MODEL 1
REMARK VINA RESULT:      -9.9      0.000      0.000
REMARK  Name = 
REMARK  5 active torsions:
REMARK  status: ('A' for Active; 'I' for Inactive)
REMARK    1  A    between atoms: C_2  and  C_11
REMARK    2  A    between atoms: N_3  and  C_4
REMARK    3  A    between atoms: C_4  and  C_5
REMARK    4  A    between atoms: C_15  and  C_17
REMARK    5  A    between atoms: C_22  and  C_23
REMARK                            x       y       z     vdW  Elec       q    Type
REMARK                         _______ _______ _______ _____ _____    ______ ____
ROOT
ATOM      1  C   UNL     1       7.909   5.896  18.346  0.00  0.00    +0.000 C 
ATOM      2  C   UNL     1       7.518   4.839  17.305  0.00  0.00    +0.000 C 
ATOM      3  C   UNL     1       6.018   4.833  17.017  0.00  0.00    +0.000 C 
ATOM      4  N   UNL     1       5.243   4.704  18.251  0.00  0.00    +0.000 N 
ATOM      5  C   UNL     1       4.134   3.830  18.240  0.00  0.00    +0.000 C 
ATOM      6  O   UNL     1       3.827   3.207  17.223  0.00  0.00    +0.000 OA
ATOM      7  C   UNL     1       5.554   5.709  19.268  0.00  0.00    +0.000 C 
ATOM      8  C   UNL     1       7.036   5.762  19.591  0.00  0.00    +0.000 C 
ENDROOT
BRANCH   5   9
ATOM      9  C   UNL     1       3.301   3.599  19.464  0.00  0.00    +0.000 A 
ATOM     10  C   UNL     1       3.434   2.362  20.125  0.00  0.00    +0.000 A 
ATOM     11  C   UNL     1       2.710   2.064  21.277  0.00  0.00    +0.000 A 
ATOM     12  C   UNL     1       1.945   3.052  21.866  0.00  0.00    +0.000 A 
ATOM     13  C   UNL     1       1.856   4.312  21.268  0.00  0.00    +0.000 A 
ATOM     14  C   UNL     1       2.496   4.626  20.039  0.00  0.00    +0.000 A 
BRANCH  14  15
ATOM     15  C   UNL     1       2.269   5.989  19.457  0.00  0.00    +0.000 A 
ATOM     16  C   UNL     1       2.295   6.205  18.061  0.00  0.00    +0.000 A 
ATOM     17  C   UNL     1       2.099   7.472  17.498  0.00  0.00    +0.000 A 
ATOM     18  C   UNL     1       1.834   8.561  18.318  0.00  0.00    +0.000 A 
ATOM     19  C   UNL     1       1.803   8.387  19.696  0.00  0.00    +0.000 A 
ATOM     20  C   UNL     1       2.050   7.127  20.255  0.00  0.00    +0.000 A 
ENDBRANCH  14  15
ENDBRANCH   5   9
BRANCH   1  22
ATOM     21  O   UNL     1       7.253   7.598  16.745  0.00  0.00    +0.000 OA
ATOM     22  C   UNL     1       7.849   7.312  17.793  0.00  0.00    +0.000 C 
ATOM     23  N   UNL     1       8.462   8.267  18.563  0.00  0.00    +0.000 N 
ATOM     24  H   UNL     1       9.074   7.992  19.326  0.00  0.00    +0.000 HD
BRANCH  23  25
ATOM     25  C   UNL     1       8.491   9.640  18.125  0.00  0.00    +0.000 C 
BRANCH  25  26
ATOM     26  C   UNL     1       9.512  10.458  18.873  0.00  0.00    +0.000 A 
ATOM     27  C   UNL     1      10.613  11.003  18.196  0.00  0.00    +0.000 A 
ATOM     28  C   UNL     1      11.498  11.851  18.860  0.00  0.00    +0.000 A 
ATOM     29  C   UNL     1      11.299  12.156  20.207  0.00  0.00    +0.000 A 
ATOM     30  C   UNL     1      10.220  11.604  20.893  0.00  0.00    +0.000 A 
ATOM     31  C   UNL     1       9.331  10.755  20.231  0.00  0.00    +0.000 A 
ENDBRANCH  25  26
ENDBRANCH  23  25
ENDBRANCH   1  22
TORSDOF 5
ENDMDL
MODEL 2
REMARK VINA RESULT:      -9.9      0.115      1.247
REMARK  Name = 
REMARK  5 active torsions:
REMARK  status: ('A' for Active; 'I' for Inactive)
REMARK    1  A    between atoms: C_2  and  C_11
REMARK    2  A    between atoms: N_3  and  C_4
REMARK    3  A    between atoms: C_4  and  C_5
REMARK    4  A    between atoms: C_15  and  C_17
REMARK    5  A    between atoms: C_22  and  C_23
REMARK                            x       y       z     vdW  Elec       q    Type
REMARK                         _______ _______ _______ _____ _____    ______ ____
ROOT
ATOM      1  C   UNL     1       7.903   5.931  18.332  0.00  0.00    +0.000 C 
ATOM      2  C   UNL     1       7.542   4.829  17.327  0.00  0.00    +0.000 C 
ATOM      3  C   UNL     1       6.044   4.776  17.036  0.00  0.00    +0.000 C 
ATOM      4  N   UNL     1       5.268   4.670  18.271  0.00  0.00    +0.000 N 
ATOM      5  C   UNL     1       4.181   3.768  18.287  0.00  0.00    +0.000 C 
ATOM      6  O   UNL     1       3.893   3.104  17.292  0.00  0.00    +0.000 OA
ATOM      7  C   UNL     1       5.550   5.717  19.254  0.00  0.00    +0.000 C 
ATOM      8  C   UNL     1       7.029   5.819  19.579  0.00  0.00    +0.000 C 
ENDROOT
BRANCH   5   9
ATOM      9  C   UNL     1       3.350   3.560  19.517  0.00  0.00    +0.000 A 
ATOM     10  C   UNL     1       3.491   2.337  20.204  0.00  0.00    +0.000 A 
ATOM     11  C   UNL     1       2.769   2.061  21.362  0.00  0.00    +0.000 A 
ATOM     12  C   UNL     1       1.998   3.056  21.930  0.00  0.00    +0.000 A 
ATOM     13  C   UNL     1       1.901   4.302  21.305  0.00  0.00    +0.000 A 
ATOM     14  C   UNL     1       2.538   4.593  20.070  0.00  0.00    +0.000 A 
BRANCH  14  15
ATOM     15  C   UNL     1       2.302   5.942  19.458  0.00  0.00    +0.000 A 
ATOM     16  C   UNL     1       2.061   7.080  20.260  0.00  0.00    +0.000 A 
ATOM     17  C   UNL     1       1.824   8.345  19.708  0.00  0.00    +0.000 A 
ATOM     18  C   UNL     1       1.857   8.517  18.331  0.00  0.00    +0.000 A 
ATOM     19  C   UNL     1       2.088   7.420  17.510  0.00  0.00    +0.000 A 
ATOM     20  C   UNL     1       2.274   6.149  18.067  0.00  0.00    +0.000 A 
ENDBRANCH  14  15
ENDBRANCH   5   9
BRANCH   1  22
ATOM     21  O   UNL     1       7.197   7.563  16.681  0.00  0.00    +0.000 OA
ATOM     22  C   UNL     1       7.810   7.325  17.731  0.00  0.00    +0.000 C 
ATOM     23  N   UNL     1       8.412   8.319  18.460  0.00  0.00    +0.000 N 
ATOM     24  H   UNL     1       9.038   8.083  19.225  0.00  0.00    +0.000 HD
BRANCH  23  25
ATOM     25  C   UNL     1       8.410   9.676  17.973  0.00  0.00    +0.000 C 
BRANCH  25  26
ATOM     26  C   UNL     1       9.410  10.543  18.694  0.00  0.00    +0.000 A 
ATOM     27  C   UNL     1       9.281  10.772  20.071  0.00  0.00    +0.000 A 
ATOM     28  C   UNL     1      10.264  11.481  20.762  0.00  0.00    +0.000 A 
ATOM     29  C   UNL     1      11.378  11.976  20.083  0.00  0.00    +0.000 A 
ATOM     30  C   UNL     1      11.505  11.770  18.711  0.00  0.00    +0.000 A 
ATOM     31  C   UNL     1      10.524  11.060  18.017  0.00  0.00    +0.000 A 
ENDBRANCH  25  26
ENDBRANCH  23  25
ENDBRANCH   1  22
TORSDOF 5
ENDMDL
MODEL 3
REMARK VINA RESULT:      -8.9      3.607      6.257
REMARK  Name = 
REMARK  5 active torsions:
REMARK  status: ('A' for Active; 'I' for Inactive)
REMARK    1  A    between atoms: C_2  and  C_11
REMARK    2  A    between atoms: N_3  and  C_4
REMARK    3  A    between atoms: C_4  and  C_5
REMARK    4  A    between atoms: C_15  and  C_17
REMARK    5  A    between atoms: C_22  and  C_23
REMARK                            x       y       z     vdW  Elec       q    Type
REMARK                         _______ _______ _______ _____ _____    ______ ____
ROOT
ATOM      1  C   UNL     1       6.135   6.141  15.915  0.00  0.00    +0.000 C 
ATOM      2  C   UNL     1       6.603   6.166  17.376  0.00  0.00    +0.000 C 
ATOM      3  C   UNL     1       6.435   4.812  18.063  0.00  0.00    +0.000 C 
ATOM      4  N   UNL     1       5.066   4.317  17.931  0.00  0.00    +0.000 N 
ATOM      5  C   UNL     1       4.468   3.734  19.070  0.00  0.00    +0.000 C 
ATOM      6  O   UNL     1       5.084   3.636  20.131  0.00  0.00    +0.000 OA
ATOM      7  C   UNL     1       4.579   4.243  16.553  0.00  0.00    +0.000 C 
ATOM      8  C   UNL     1       4.725   5.564  15.819  0.00  0.00    +0.000 C 
ENDROOT
BRANCH   5   9
ATOM      9  C   UNL     1       3.055   3.233  19.047  0.00  0.00    +0.000 A 
ATOM     10  C   UNL     1       2.854   1.841  18.977  0.00  0.00    +0.000 A 
ATOM     11  C   UNL     1       1.577   1.284  18.964  0.00  0.00    +0.000 A 
ATOM     12  C   UNL     1       0.483   2.104  19.161  0.00  0.00    +0.000 A 
ATOM     13  C   UNL     1       0.663   3.482  19.306  0.00  0.00    +0.000 A 
ATOM     14  C   UNL     1       1.938   4.102  19.224  0.00  0.00    +0.000 A 
BRANCH  14  15
ATOM     15  C   UNL     1       2.000   5.597  19.323  0.00  0.00    +0.000 A 
ATOM     16  C   UNL     1       2.306   6.395  18.198  0.00  0.00    +0.000 A 
ATOM     17  C   UNL     1       2.382   7.792  18.272  0.00  0.00    +0.000 A 
ATOM     18  C   UNL     1       2.119   8.437  19.473  0.00  0.00    +0.000 A 
ATOM     19  C   UNL     1       1.817   7.684  20.601  0.00  0.00    +0.000 A 
ATOM     20  C   UNL     1       1.792   6.286  20.531  0.00  0.00    +0.000 A 
ENDBRANCH  14  15
ENDBRANCH   5   9
BRANCH   1  22
ATOM     21  O   UNL     1       8.036   4.708  15.440  0.00  0.00    +0.000 OA
ATOM     22  C   UNL     1       7.093   5.385  15.007  0.00  0.00    +0.000 C 
ATOM     23  N   UNL     1       6.811   5.461  13.666  0.00  0.00    +0.000 N 
ATOM     24  H   UNL     1       6.138   6.142  13.324  0.00  0.00    +0.000 HD
BRANCH  23  25
ATOM     25  C   UNL     1       7.666   4.806  12.709  0.00  0.00    +0.000 C 
BRANCH  25  26
ATOM     26  C   UNL     1       6.993   3.629  12.051  0.00  0.00    +0.000 A 
ATOM     27  C   UNL     1       7.762   2.609  11.472  0.00  0.00    +0.000 A 
ATOM     28  C   UNL     1       7.147   1.467  10.962  0.00  0.00    +0.000 A 
ATOM     29  C   UNL     1       5.759   1.335  11.016  0.00  0.00    +0.000 A 
ATOM     30  C   UNL     1       4.985   2.351  11.572  0.00  0.00    +0.000 A 
ATOM     31  C   UNL     1       5.598   3.496  12.085  0.00  0.00    +0.000 A 
ENDBRANCH  25  26
ENDBRANCH  23  25
ENDBRANCH   1  22
TORSDOF 5
ENDMDL
MODEL 4
REMARK VINA RESULT:      -8.8      3.522      6.354
REMARK  Name = 
REMARK  5 active torsions:
REMARK  status: ('A' for Active; 'I' for Inactive)
REMARK    1  A    between atoms: C_2  and  C_11
REMARK    2  A    between atoms: N_3  and  C_4
REMARK    3  A    between atoms: C_4  and  C_5
REMARK    4  A    between atoms: C_15  and  C_17
REMARK    5  A    between atoms: C_22  and  C_23
REMARK                            x       y       z     vdW  Elec       q    Type
REMARK                         _______ _______ _______ _____ _____    ______ ____
ROOT
ATOM      1  C   UNL     1       6.046   6.217  15.793  0.00  0.00    +0.000 C 
ATOM      2  C   UNL     1       6.565   6.412  17.223  0.00  0.00    +0.000 C 
ATOM      3  C   UNL     1       6.480   5.132  18.052  0.00  0.00    +0.000 C 
ATOM      4  N   UNL     1       5.128   4.575  18.028  0.00  0.00    +0.000 N 
ATOM      5  C   UNL     1       4.597   4.091  19.244  0.00  0.00    +0.000 C 
ATOM      6  O   UNL     1       5.256   4.129  20.283  0.00  0.00    +0.000 OA
ATOM      7  C   UNL     1       4.596   4.339  16.685  0.00  0.00    +0.000 C 
ATOM      8  C   UNL     1       4.659   5.579  15.814  0.00  0.00    +0.000 C 
ENDROOT
BRANCH   5   9
ATOM      9  C   UNL     1       3.207   3.538  19.330  0.00  0.00    +0.000 A 
ATOM     10  C   UNL     1       3.062   2.139  19.418  0.00  0.00    +0.000 A 
ATOM     11  C   UNL     1       1.810   1.536  19.515  0.00  0.00    +0.000 A 
ATOM     12  C   UNL     1       0.690   2.330  19.665  0.00  0.00    +0.000 A 
ATOM     13  C   UNL     1       0.817   3.722  19.654  0.00  0.00    +0.000 A 
ATOM     14  C   UNL     1       2.062   4.378  19.456  0.00  0.00    +0.000 A 
BRANCH  14  15
ATOM     15  C   UNL     1       2.064   5.876  19.391  0.00  0.00    +0.000 A 
ATOM     16  C   UNL     1       1.775   6.660  20.530  0.00  0.00    +0.000 A 
ATOM     17  C   UNL     1       1.758   8.060  20.487  0.00  0.00    +0.000 A 
ATOM     18  C   UNL     1       2.065   8.721  19.306  0.00  0.00    +0.000 A 
ATOM     19  C   UNL     1       2.352   7.982  18.164  0.00  0.00    +0.000 A 
ATOM     20  C   UNL     1       2.318   6.583  18.202  0.00  0.00    +0.000 A 
ENDBRANCH  14  15
ENDBRANCH   5   9
BRANCH   1  22
ATOM     21  O   UNL     1       7.887   4.684  15.405  0.00  0.00    +0.000 OA
ATOM     22  C   UNL     1       7.001   5.407  14.929  0.00  0.00    +0.000 C 
ATOM     23  N   UNL     1       6.782   5.491  13.577  0.00  0.00    +0.000 N 
ATOM     24  H   UNL     1       6.161   6.204  13.204  0.00  0.00    +0.000 HD
BRANCH  23  25
ATOM     25  C   UNL     1       7.642   4.786  12.660  0.00  0.00    +0.000 C 
BRANCH  25  26
ATOM     26  C   UNL     1       6.999   3.537  12.117  0.00  0.00    +0.000 A 
ATOM     27  C   UNL     1       5.604   3.394  12.142  0.00  0.00    +0.000 A 
ATOM     28  C   UNL     1       4.998   2.291  11.541  0.00  0.00    +0.000 A 
ATOM     29  C   UNL     1       5.778   1.316  10.918  0.00  0.00    +0.000 A 
ATOM     30  C   UNL     1       7.165   1.440  10.905  0.00  0.00    +0.000 A 
ATOM     31  C   UNL     1       7.775   2.543  11.504  0.00  0.00    +0.000 A 
ENDBRANCH  25  26
ENDBRANCH  23  25
ENDBRANCH   1  22
TORSDOF 5
ENDMDL
MODEL 5
REMARK VINA RESULT:      -8.4      8.269     12.215
REMARK  Name = 
REMARK  5 active torsions:
REMARK  status: ('A' for Active; 'I' for Inactive)
REMARK    1  A    between atoms: C_2  and  C_11
REMARK    2  A    between atoms: N_3  and  C_4
REMARK    3  A    between atoms: C_4  and  C_5
REMARK    4  A    between atoms: C_15  and  C_17
REMARK    5  A    between atoms: C_22  and  C_23
REMARK                            x       y       z     vdW  Elec       q    Type
REMARK                         _______ _______ _______ _____ _____    ______ ____
ROOT
ATOM      1  C   UNL     1       0.034  11.283  21.779  0.00  0.00    +0.000 C 
ATOM      2  C   UNL     1      -0.470  10.683  23.098  0.00  0.00    +0.000 C 
ATOM      3  C   UNL     1      -1.995  10.692  23.195  0.00  0.00    +0.000 C 
ATOM      4  N   UNL     1      -2.532  12.032  22.959  0.00  0.00    +0.000 N 
ATOM      5  C   UNL     1      -3.572  12.479  23.803  0.00  0.00    +0.000 C 
ATOM      6  O   UNL     1      -4.016  11.760  24.698  0.00  0.00    +0.000 OA
ATOM      7  C   UNL     1      -2.107  12.639  21.697  0.00  0.00    +0.000 C 
ATOM      8  C   UNL     1      -0.597  12.654  21.544  0.00  0.00    +0.000 C 
ENDROOT
BRANCH   5   9
ATOM      9  C   UNL     1      -4.162  13.850  23.666  0.00  0.00    +0.000 A 
ATOM     10  C   UNL     1      -3.507  14.914  24.318  0.00  0.00    +0.000 A 
ATOM     11  C   UNL     1      -3.976  16.223  24.237  0.00  0.00    +0.000 A 
ATOM     12  C   UNL     1      -5.027  16.511  23.388  0.00  0.00    +0.000 A 
ATOM     13  C   UNL     1      -5.646  15.482  22.674  0.00  0.00    +0.000 A 
ATOM     14  C   UNL     1      -5.266  14.119  22.805  0.00  0.00    +0.000 A 
BRANCH  14  15
ATOM     15  C   UNL     1      -6.052  13.095  22.043  0.00  0.00    +0.000 A 
ATOM     16  C   UNL     1      -5.679  12.707  20.736  0.00  0.00    +0.000 A 
ATOM     17  C   UNL     1      -6.407  11.762  20.002  0.00  0.00    +0.000 A 
ATOM     18  C   UNL     1      -7.516  11.148  20.570  0.00  0.00    +0.000 A 
ATOM     19  C   UNL     1      -7.914  11.507  21.852  0.00  0.00    +0.000 A 
ATOM     20  C   UNL     1      -7.211  12.489  22.561  0.00  0.00    +0.000 A 
ENDBRANCH  14  15
ENDBRANCH   5   9
BRANCH   1  22
ATOM     21  O   UNL     1      -0.345   9.141  20.704  0.00  0.00    +0.000 OA
ATOM     22  C   UNL     1      -0.205  10.366  20.589  0.00  0.00    +0.000 C 
ATOM     23  N   UNL     1      -0.306  10.997  19.375  0.00  0.00    +0.000 N 
ATOM     24  H   UNL     1      -0.032  11.972  19.282  0.00  0.00    +0.000 HD
BRANCH  23  25
ATOM     25  C   UNL     1      -0.506  10.226  18.174  0.00  0.00    +0.000 C 
BRANCH  25  26
ATOM     26  C   UNL     1      -1.859  10.467  17.558  0.00  0.00    +0.000 A 
ATOM     27  C   UNL     1      -2.763  11.351  18.165  0.00  0.00    +0.000 A 
ATOM     28  C   UNL     1      -3.971  11.662  17.540  0.00  0.00    +0.000 A 
ATOM     29  C   UNL     1      -4.292  11.087  16.310  0.00  0.00    +0.000 A 
ATOM     30  C   UNL     1      -3.409  10.193  15.709  0.00  0.00    +0.000 A 
ATOM     31  C   UNL     1      -2.199   9.881  16.330  0.00  0.00    +0.000 A 
ENDBRANCH  25  26
ENDBRANCH  23  25
ENDBRANCH   1  22
TORSDOF 5
ENDMDL
MODEL 6
REMARK VINA RESULT:      -8.4      4.181      6.848
REMARK  Name = 
REMARK  5 active torsions:
REMARK  status: ('A' for Active; 'I' for Inactive)
REMARK    1  A    between atoms: C_2  and  C_11
REMARK    2  A    between atoms: N_3  and  C_4
REMARK    3  A    between atoms: C_4  and  C_5
REMARK    4  A    between atoms: C_15  and  C_17
REMARK    5  A    between atoms: C_22  and  C_23
REMARK                            x       y       z     vdW  Elec       q    Type
REMARK                         _______ _______ _______ _____ _____    ______ ____
ROOT
ATOM      1  C   UNL     1       0.758   9.923  18.651  0.00  0.00    +0.000 C 
ATOM      2  C   UNL     1       0.847   9.331  20.064  0.00  0.00    +0.000 C 
ATOM      3  C   UNL     1       2.111   8.499  20.267  0.00  0.00    +0.000 C 
ATOM      4  N   UNL     1       2.243   7.475  19.232  0.00  0.00    +0.000 N 
ATOM      5  C   UNL     1       2.651   6.184  19.635  0.00  0.00    +0.000 C 
ATOM      6  O   UNL     1       2.897   5.936  20.815  0.00  0.00    +0.000 OA
ATOM      7  C   UNL     1       2.197   7.990  17.862  0.00  0.00    +0.000 C 
ATOM      8  C   UNL     1       0.960   8.830  17.604  0.00  0.00    +0.000 C 
ENDROOT
BRANCH   5   9
ATOM      9  C   UNL     1       2.777   5.057  18.655  0.00  0.00    +0.000 A 
ATOM     10  C   UNL     1       1.625   4.293  18.383  0.00  0.00    +0.000 A 
ATOM     11  C   UNL     1       1.645   3.234  17.477  0.00  0.00    +0.000 A 
ATOM     12  C   UNL     1       2.782   3.011  16.726  0.00  0.00    +0.000 A 
ATOM     13  C   UNL     1       3.915   3.804  16.927  0.00  0.00    +0.000 A 
ATOM     14  C   UNL     1       3.972   4.827  17.911  0.00  0.00    +0.000 A 
BRANCH  14  15
ATOM     15  C   UNL     1       5.266   5.564  18.084  0.00  0.00    +0.000 A 
ATOM     16  C   UNL     1       6.192   5.196  19.086  0.00  0.00    +0.000 A 
ATOM     17  C   UNL     1       7.399   5.880  19.274  0.00  0.00    +0.000 A 
ATOM     18  C   UNL     1       7.735   6.936  18.438  0.00  0.00    +0.000 A 
ATOM     19  C   UNL     1       6.848   7.328  17.443  0.00  0.00    +0.000 A 
ATOM     20  C   UNL     1       5.620   6.672  17.293  0.00  0.00    +0.000 A 
ENDBRANCH  14  15
ENDBRANCH   5   9
BRANCH   1  22
ATOM     21  O   UNL     1       2.560  11.079  17.508  0.00  0.00    +0.000 OA
ATOM     22  C   UNL     1       1.736  11.067  18.433  0.00  0.00    +0.000 C 
ATOM     23  N   UNL     1       1.612  12.118  19.306  0.00  0.00    +0.000 N 
ATOM     24  H   UNL     1       1.046  12.021  20.145  0.00  0.00    +0.000 HD
BRANCH  23  25
ATOM     25  C   UNL     1       2.504  13.247  19.212  0.00  0.00    +0.000 C 
BRANCH  25  26
ATOM     26  C   UNL     1       1.782  14.518  18.846  0.00  0.00    +0.000 A 
ATOM     27  C   UNL     1       0.394  14.617  19.025  0.00  0.00    +0.000 A 
ATOM     28  C   UNL     1      -0.261  15.826  18.793  0.00  0.00    +0.000 A 
ATOM     29  C   UNL     1       0.460  16.944  18.372  0.00  0.00    +0.000 A 
ATOM     30  C   UNL     1       1.836  16.850  18.174  0.00  0.00    +0.000 A 
ATOM     31  C   UNL     1       2.495  15.641  18.406  0.00  0.00    +0.000 A 
ENDBRANCH  25  26
ENDBRANCH  23  25
ENDBRANCH   1  22
TORSDOF 5
ENDMDL
MODEL 7
REMARK VINA RESULT:      -8.3      3.030      5.859
REMARK  Name = 
REMARK  5 active torsions:
REMARK  status: ('A' for Active; 'I' for Inactive)
REMARK    1  A    between atoms: C_2  and  C_11
REMARK    2  A    between atoms: N_3  and  C_4
REMARK    3  A    between atoms: C_4  and  C_5
REMARK    4  A    between atoms: C_15  and  C_17
REMARK    5  A    between atoms: C_22  and  C_23
REMARK                            x       y       z     vdW  Elec       q    Type
REMARK                         _______ _______ _______ _____ _____    ______ ____
ROOT
ATOM      1  C   UNL     1       2.311   4.644  18.757  0.00  0.00    +0.000 C 
ATOM      2  C   UNL     1       2.153   5.715  17.670  0.00  0.00    +0.000 C 
ATOM      3  C   UNL     1       2.598   7.096  18.146  0.00  0.00    +0.000 C 
ATOM      4  N   UNL     1       1.926   7.470  19.390  0.00  0.00    +0.000 N 
ATOM      5  C   UNL     1       1.450   8.794  19.505  0.00  0.00    +0.000 C 
ATOM      6  O   UNL     1       1.606   9.606  18.594  0.00  0.00    +0.000 OA
ATOM      7  C   UNL     1       2.072   6.495  20.472  0.00  0.00    +0.000 C 
ATOM      8  C   UNL     1       1.646   5.101  20.054  0.00  0.00    +0.000 C 
ENDROOT
BRANCH   5   9
ATOM      9  C   UNL     1       0.714   9.262  20.724  0.00  0.00    +0.000 A 
ATOM     10  C   UNL     1       1.252   8.932  21.983  0.00  0.00    +0.000 A 
ATOM     11  C   UNL     1       0.643   9.335  23.169  0.00  0.00    +0.000 A 
ATOM     12  C   UNL     1      -0.438  10.193  23.114  0.00  0.00    +0.000 A 
ATOM     13  C   UNL     1      -0.946  10.593  21.876  0.00  0.00    +0.000 A 
ATOM     14  C   UNL     1      -0.419  10.125  20.642  0.00  0.00    +0.000 A 
BRANCH  14  15
ATOM     15  C   UNL     1      -1.093  10.567  19.378  0.00  0.00    +0.000 A 
ATOM     16  C   UNL     1      -1.891   9.680  18.623  0.00  0.00    +0.000 A 
ATOM     17  C   UNL     1      -2.518  10.069  17.432  0.00  0.00    +0.000 A 
ATOM     18  C   UNL     1      -2.392  11.375  16.977  0.00  0.00    +0.000 A 
ATOM     19  C   UNL     1      -1.612  12.275  17.693  0.00  0.00    +0.000 A 
ATOM     20  C   UNL     1      -0.948  11.865  18.855  0.00  0.00    +0.000 A 
ENDBRANCH  14  15
ENDBRANCH   5   9
BRANCH   1  22
ATOM     21  O   UNL     1       4.156   3.746  20.053  0.00  0.00    +0.000 OA
ATOM     22  C   UNL     1       3.764   4.265  18.998  0.00  0.00    +0.000 C 
ATOM     23  N   UNL     1       4.612   4.492  17.943  0.00  0.00    +0.000 N 
ATOM     24  H   UNL     1       4.307   5.059  17.157  0.00  0.00    +0.000 HD
BRANCH  23  25
ATOM     25  C   UNL     1       6.017   4.197  18.068  0.00  0.00    +0.000 C 
BRANCH  25  26
ATOM     26  C   UNL     1       6.863   5.444  18.097  0.00  0.00    +0.000 A 
ATOM     27  C   UNL     1       6.714   6.420  17.102  0.00  0.00    +0.000 A 
ATOM     28  C   UNL     1       7.413   7.624  17.186  0.00  0.00    +0.000 A 
ATOM     29  C   UNL     1       8.274   7.860  18.258  0.00  0.00    +0.000 A 
ATOM     30  C   UNL     1       8.443   6.889  19.241  0.00  0.00    +0.000 A 
ATOM     31  C   UNL     1       7.744   5.683  19.161  0.00  0.00    +0.000 A 
ENDBRANCH  25  26
ENDBRANCH  23  25
ENDBRANCH   1  22
TORSDOF 5
ENDMDL
MODEL 8
REMARK VINA RESULT:      -8.3      8.492     12.578
REMARK  Name = 
REMARK  5 active torsions:
REMARK  status: ('A' for Active; 'I' for Inactive)
REMARK    1  A    between atoms: C_2  and  C_11
REMARK    2  A    between atoms: N_3  and  C_4
REMARK    3  A    between atoms: C_4  and  C_5
REMARK    4  A    between atoms: C_15  and  C_17
REMARK    5  A    between atoms: C_22  and  C_23
REMARK                            x       y       z     vdW  Elec       q    Type
REMARK                         _______ _______ _______ _____ _____    ______ ____
ROOT
ATOM      1  C   UNL     1      -0.865  11.270  17.963  0.00  0.00    +0.000 C 
ATOM      2  C   UNL     1      -0.259  10.444  19.105  0.00  0.00    +0.000 C 
ATOM      3  C   UNL     1      -0.950  10.708  20.442  0.00  0.00    +0.000 C 
ATOM      4  N   UNL     1      -0.978  12.137  20.750  0.00  0.00    +0.000 N 
ATOM      5  C   UNL     1      -0.685  12.527  22.075  0.00  0.00    +0.000 C 
ATOM      6  O   UNL     1      -0.426  11.691  22.941  0.00  0.00    +0.000 OA
ATOM      7  C   UNL     1      -1.576  12.969  19.705  0.00  0.00    +0.000 C 
ATOM      8  C   UNL     1      -0.929  12.745  18.351  0.00  0.00    +0.000 C 
ENDROOT
BRANCH   5   9
ATOM      9  C   UNL     1      -0.650  13.969  22.481  0.00  0.00    +0.000 A 
ATOM     10  C   UNL     1       0.553  14.676  22.289  0.00  0.00    +0.000 A 
ATOM     11  C   UNL     1       0.675  16.023  22.625  0.00  0.00    +0.000 A 
ATOM     12  C   UNL     1      -0.447  16.720  23.029  0.00  0.00    +0.000 A 
ATOM     13  C   UNL     1      -1.669  16.056  23.158  0.00  0.00    +0.000 A 
ATOM     14  C   UNL     1      -1.816  14.663  22.924  0.00  0.00    +0.000 A 
BRANCH  14  15
ATOM     15  C   UNL     1      -3.161  14.047  23.164  0.00  0.00    +0.000 A 
ATOM     16  C   UNL     1      -4.231  14.245  22.262  0.00  0.00    +0.000 A 
ATOM     17  C   UNL     1      -5.499  13.691  22.476  0.00  0.00    +0.000 A 
ATOM     18  C   UNL     1      -5.727  12.888  23.585  0.00  0.00    +0.000 A 
ATOM     19  C   UNL     1      -4.699  12.674  24.496  0.00  0.00    +0.000 A 
ATOM     20  C   UNL     1      -3.448  13.272  24.302  0.00  0.00    +0.000 A 
ENDBRANCH  14  15
ENDBRANCH   5   9
BRANCH   1  22
ATOM     21  O   UNL     1      -2.570   9.574  17.636  0.00  0.00    +0.000 OA
ATOM     22  C   UNL     1      -2.233  10.762  17.535  0.00  0.00    +0.000 C 
ATOM     23  N   UNL     1      -3.096  11.724  17.073  0.00  0.00    +0.000 N 
ATOM     24  H   UNL     1      -2.752  12.654  16.850  0.00  0.00    +0.000 HD
BRANCH  23  25
ATOM     25  C   UNL     1      -4.412  11.354  16.615  0.00  0.00    +0.000 C 
BRANCH  25  26
ATOM     26  C   UNL     1      -5.497  11.843  17.538  0.00  0.00    +0.000 A 
ATOM     27  C   UNL     1      -6.412  12.812  17.101  0.00  0.00    +0.000 A 
ATOM     28  C   UNL     1      -7.484  13.186  17.911  0.00  0.00    +0.000 A 
ATOM     29  C   UNL     1      -7.647  12.603  19.168  0.00  0.00    +0.000 A 
ATOM     30  C   UNL     1      -6.733  11.654  19.619  0.00  0.00    +0.000 A 
ATOM     31  C   UNL     1      -5.660  11.277  18.810  0.00  0.00    +0.000 A 
ENDBRANCH  25  26
ENDBRANCH  23  25
ENDBRANCH   1  22
TORSDOF 5
ENDMDL
MODEL 9
REMARK VINA RESULT:      -8.2      8.565     12.609
REMARK  Name = 
REMARK  5 active torsions:
REMARK  status: ('A' for Active; 'I' for Inactive)
REMARK    1  A    between atoms: C_2  and  C_11
REMARK    2  A    between atoms: N_3  and  C_4
REMARK    3  A    between atoms: C_4  and  C_5
REMARK    4  A    between atoms: C_15  and  C_17
REMARK    5  A    between atoms: C_22  and  C_23
REMARK                            x       y       z     vdW  Elec       q    Type
REMARK                         _______ _______ _______ _____ _____    ______ ____
ROOT
ATOM      1  C   UNL     1      -1.166  11.199  17.903  0.00  0.00    +0.000 C 
ATOM      2  C   UNL     1      -0.496  10.354  18.994  0.00  0.00    +0.000 C 
ATOM      3  C   UNL     1      -1.079  10.628  20.380  0.00  0.00    +0.000 C 
ATOM      4  N   UNL     1      -1.051  12.056  20.693  0.00  0.00    +0.000 N 
ATOM      5  C   UNL     1      -0.651  12.433  21.994  0.00  0.00    +0.000 C 
ATOM      6  O   UNL     1      -0.347  11.587  22.835  0.00  0.00    +0.000 OA
ATOM      7  C   UNL     1      -1.705  12.906  19.698  0.00  0.00    +0.000 C 
ATOM      8  C   UNL     1      -1.167  12.674  18.298  0.00  0.00    +0.000 C 
ENDROOT
BRANCH   5   9
ATOM      9  C   UNL     1      -0.552  13.872  22.400  0.00  0.00    +0.000 A 
ATOM     10  C   UNL     1       0.659  14.545  22.142  0.00  0.00    +0.000 A 
ATOM     11  C   UNL     1       0.837  15.886  22.474  0.00  0.00    +0.000 A 
ATOM     12  C   UNL     1      -0.240  16.614  22.941  0.00  0.00    +0.000 A 
ATOM     13  C   UNL     1      -1.472  15.985  23.136  0.00  0.00    +0.000 A 
ATOM     14  C   UNL     1      -1.671  14.597  22.908  0.00  0.00    +0.000 A 
BRANCH  14  15
ATOM     15  C   UNL     1      -3.018  14.019  23.222  0.00  0.00    +0.000 A 
ATOM     16  C   UNL     1      -3.205  13.143  24.314  0.00  0.00    +0.000 A 
ATOM     17  C   UNL     1      -4.452  12.582  24.616  0.00  0.00    +0.000 A 
ATOM     18  C   UNL     1      -5.563  12.909  23.851  0.00  0.00    +0.000 A 
ATOM     19  C   UNL     1      -5.417  13.767  22.766  0.00  0.00    +0.000 A 
ATOM     20  C   UNL     1      -4.157  14.284  22.440  0.00  0.00    +0.000 A 
ENDBRANCH  14  15
ENDBRANCH   5   9
BRANCH   1  22
ATOM     21  O   UNL     1      -2.944   9.554  17.745  0.00  0.00    +0.000 OA
ATOM     22  C   UNL     1      -2.574  10.725  17.577  0.00  0.00    +0.000 C 
ATOM     23  N   UNL     1      -3.430  11.698  17.129  0.00  0.00    +0.000 N 
ATOM     24  H   UNL     1      -3.069  12.606  16.849  0.00  0.00    +0.000 HD
BRANCH  23  25
ATOM     25  C   UNL     1      -4.783  11.359  16.764  0.00  0.00    +0.000 C 
BRANCH  25  26
ATOM     26  C   UNL     1      -5.763  11.644  17.872  0.00  0.00    +0.000 A 
ATOM     27  C   UNL     1      -6.329  10.589  18.602  0.00  0.00    +0.000 A 
ATOM     28  C   UNL     1      -7.148  10.851  19.700  0.00  0.00    +0.000 A 
ATOM     29  C   UNL     1      -7.419  12.168  20.073  0.00  0.00    +0.000 A 
ATOM     30  C   UNL     1      -6.877  13.223  19.343  0.00  0.00    +0.000 A 
ATOM     31  C   UNL     1      -6.055  12.964  18.244  0.00  0.00    +0.000 A 
ENDBRANCH  25  26
ENDBRANCH  23  25
ENDBRANCH   1  22
TORSDOF 5
ENDMDL
