MODEL 1
REMARK VINA RESULT:      -8.6      0.000      0.000
REMARK  Name = 
REMARK  4 active torsions:
REMARK  status: ('A' for Active; 'I' for Inactive)
REMARK    1  A    between atoms: C_1  and  C_2
REMARK    2  A    between atoms: C_5  and  C_6
REMARK    3  A    between atoms: C_9  and  C_10
REMARK    4  A    between atoms: C_10  and  N_11
REMARK                            x       y       z     vdW  Elec       q    Type
REMARK                         _______ _______ _______ _____ _____    ______ ____
ROOT
ATOM      1  C   UNL     1       8.077   8.510  18.158  0.00  0.00    +0.000 A 
ATOM      2  N   UNL     1       8.394   7.340  18.677  0.00  0.00    +0.000 NA
ATOM      3  N   UNL     1       7.570   6.406  18.082  0.00  0.00    +0.000 NA
ATOM      4  C   UNL     1       6.816   7.067  17.227  0.00  0.00    +0.000 A 
ATOM      5  O   UNL     1       7.065   8.415  17.236  0.00  0.00    +0.000 OA
ENDROOT
BRANCH   1  10
ATOM      6  C   UNL     1      10.160  13.810  19.145  0.00  0.00    +0.000 C 
ATOM      7  C   UNL     1       9.655  12.428  18.857  0.00  0.00    +0.000 A 
ATOM      8  C   UNL     1       8.797  12.182  17.781  0.00  0.00    +0.000 A 
ATOM      9  C   UNL     1       8.307  10.895  17.547  0.00  0.00    +0.000 A 
ATOM     10  C   UNL     1       8.658   9.825  18.385  0.00  0.00    +0.000 A 
ATOM     11  C   UNL     1       9.543  10.073  19.444  0.00  0.00    +0.000 A 
ATOM     12  C   UNL     1      10.037  11.361  19.677  0.00  0.00    +0.000 A 
ENDBRANCH   1  10
BRANCH   4  13
ATOM     13  C   UNL     1       5.716   6.576  16.364  0.00  0.00    +0.000 C 
BRANCH  13  14
ATOM     14  N   UNL     1       4.680   5.895  17.140  0.00  0.00    +0.000 N 
ATOM     15  N   UNL     1       3.813   6.704  17.849  0.00  0.00    +0.000 NA
ATOM     16  C   UNL     1       2.814   6.151  18.461  0.00  0.00    +0.000 A 
ATOM     17  C   UNL     1       2.521   4.725  18.420  0.00  0.00    +0.000 A 
ATOM     18  C   UNL     1       1.364   4.211  19.010  0.00  0.00    +0.000 A 
ATOM     19  C   UNL     1       1.097   2.845  18.907  0.00  0.00    +0.000 A 
ATOM     20  C   UNL     1       1.988   2.006  18.233  0.00  0.00    +0.000 A 
ATOM     21  C   UNL     1       3.147   2.531  17.655  0.00  0.00    +0.000 A 
ATOM     22  C   UNL     1       3.408   3.902  17.743  0.00  0.00    +0.000 A 
ATOM     23  C   UNL     1       4.581   4.505  17.081  0.00  0.00    +0.000 A 
ATOM     24  O   UNL     1       5.376   3.783  16.485  0.00  0.00    +0.000 OA
ENDBRANCH  13  14
ENDBRANCH   4  13
TORSDOF 3
ENDMDL
MODEL 2
REMARK VINA RESULT:      -8.6      1.714      2.105
REMARK  Name = 
REMARK  4 active torsions:
REMARK  status: ('A' for Active; 'I' for Inactive)
REMARK    1  A    between atoms: C_1  and  C_2
REMARK    2  A    between atoms: C_5  and  C_6
REMARK    3  A    between atoms: C_9  and  C_10
REMARK    4  A    between atoms: C_10  and  N_11
REMARK                            x       y       z     vdW  Elec       q    Type
REMARK                         _______ _______ _______ _____ _____    ______ ____
ROOT
ATOM      1  C   UNL     1       8.300   8.952  18.116  0.00  0.00    +0.000 A 
ATOM      2  N   UNL     1       7.397   8.954  17.156  0.00  0.00    +0.000 NA
ATOM      3  N   UNL     1       6.955   7.653  17.024  0.00  0.00    +0.000 NA
ATOM      4  C   UNL     1       7.608   6.946  17.926  0.00  0.00    +0.000 A 
ATOM      5  O   UNL     1       8.499   7.701  18.644  0.00  0.00    +0.000 OA
ENDROOT
BRANCH   1  10
ATOM      6  C   UNL     1      11.097  13.484  20.361  0.00  0.00    +0.000 C 
ATOM      7  C   UNL     1      10.413  12.285  19.776  0.00  0.00    +0.000 A 
ATOM      8  C   UNL     1      10.354  12.091  18.394  0.00  0.00    +0.000 A 
ATOM      9  C   UNL     1       9.682  10.986  17.862  0.00  0.00    +0.000 A 
ATOM     10  C   UNL     1       9.051  10.054  18.700  0.00  0.00    +0.000 A 
ATOM     11  C   UNL     1       9.141  10.238  20.086  0.00  0.00    +0.000 A 
ATOM     12  C   UNL     1       9.815  11.342  20.620  0.00  0.00    +0.000 A 
ENDBRANCH   1  10
BRANCH   4  13
ATOM     13  C   UNL     1       7.572   5.488  18.187  0.00  0.00    +0.000 C 
BRANCH  13  14
ATOM     14  N   UNL     1       6.246   4.925  17.940  0.00  0.00    +0.000 N 
ATOM     15  N   UNL     1       6.046   4.343  16.703  0.00  0.00    +0.000 NA
ATOM     16  C   UNL     1       4.925   3.735  16.481  0.00  0.00    +0.000 A 
ATOM     17  C   UNL     1       3.866   3.589  17.470  0.00  0.00    +0.000 A 
ATOM     18  C   UNL     1       2.729   2.825  17.199  0.00  0.00    +0.000 A 
ATOM     19  C   UNL     1       1.759   2.672  18.192  0.00  0.00    +0.000 A 
ATOM     20  C   UNL     1       1.924   3.293  19.434  0.00  0.00    +0.000 A 
ATOM     21  C   UNL     1       3.062   4.063  19.689  0.00  0.00    +0.000 A 
ATOM     22  C   UNL     1       4.042   4.203  18.701  0.00  0.00    +0.000 A 
ATOM     23  C   UNL     1       5.292   4.945  18.958  0.00  0.00    +0.000 A 
ATOM     24  O   UNL     1       5.454   5.498  20.042  0.00  0.00    +0.000 OA
ENDBRANCH  13  14
ENDBRANCH   4  13
TORSDOF 3
ENDMDL
MODEL 3
REMARK VINA RESULT:      -8.5      0.603      1.075
REMARK  Name = 
REMARK  4 active torsions:
REMARK  status: ('A' for Active; 'I' for Inactive)
REMARK    1  A    between atoms: C_1  and  C_2
REMARK    2  A    between atoms: C_5  and  C_6
REMARK    3  A    between atoms: C_9  and  C_10
REMARK    4  A    between atoms: C_10  and  N_11
REMARK                            x       y       z     vdW  Elec       q    Type
REMARK                         _______ _______ _______ _____ _____    ______ ____
ROOT
ATOM      1  C   UNL     1       8.352   8.642  18.413  0.00  0.00    +0.000 A 
ATOM      2  N   UNL     1       8.542   7.460  18.962  0.00  0.00    +0.000 NA
ATOM      3  N   UNL     1       7.723   6.575  18.291  0.00  0.00    +0.000 NA
ATOM      4  C   UNL     1       7.100   7.275  17.365  0.00  0.00    +0.000 A 
ATOM      5  O   UNL     1       7.432   8.605  17.396  0.00  0.00    +0.000 OA
ENDROOT
BRANCH   1  10
ATOM      6  C   UNL     1      11.094  13.593  19.587  0.00  0.00    +0.000 C 
ATOM      7  C   UNL     1      10.341  12.331  19.290  0.00  0.00    +0.000 A 
ATOM      8  C   UNL     1       9.936  11.474  20.316  0.00  0.00    +0.000 A 
ATOM      9  C   UNL     1       9.265  10.284  20.021  0.00  0.00    +0.000 A 
ATOM     10  C   UNL     1       8.990   9.921  18.694  0.00  0.00    +0.000 A 
ATOM     11  C   UNL     1       9.372  10.800  17.671  0.00  0.00    +0.000 A 
ATOM     12  C   UNL     1      10.041  11.993  17.966  0.00  0.00    +0.000 A 
ENDBRANCH   1  10
BRANCH   4  13
ATOM     13  C   UNL     1       6.060   6.847  16.400  0.00  0.00    +0.000 C 
BRANCH  13  14
ATOM     14  N   UNL     1       4.962   6.143  17.061  0.00  0.00    +0.000 N 
ATOM     15  N   UNL     1       3.981   6.933  17.629  0.00  0.00    +0.000 NA
ATOM     16  C   UNL     1       2.935   6.353  18.128  0.00  0.00    +0.000 A 
ATOM     17  C   UNL     1       2.705   4.916  18.095  0.00  0.00    +0.000 A 
ATOM     18  C   UNL     1       1.505   4.368  18.552  0.00  0.00    +0.000 A 
ATOM     19  C   UNL     1       1.306   2.990  18.459  0.00  0.00    +0.000 A 
ATOM     20  C   UNL     1       2.308   2.172  17.928  0.00  0.00    +0.000 A 
ATOM     21  C   UNL     1       3.509   2.731  17.484  0.00  0.00    +0.000 A 
ATOM     22  C   UNL     1       3.703   4.114  17.561  0.00  0.00    +0.000 A 
ATOM     23  C   UNL     1       4.926   4.749  17.033  0.00  0.00    +0.000 A 
ATOM     24  O   UNL     1       5.817   4.046  16.564  0.00  0.00    +0.000 OA
ENDBRANCH  13  14
ENDBRANCH   4  13
TORSDOF 3
ENDMDL
MODEL 4
REMARK VINA RESULT:      -8.4      1.199      2.068
REMARK  Name = 
REMARK  4 active torsions:
REMARK  status: ('A' for Active; 'I' for Inactive)
REMARK    1  A    between atoms: C_1  and  C_2
REMARK    2  A    between atoms: C_5  and  C_6
REMARK    3  A    between atoms: C_9  and  C_10
REMARK    4  A    between atoms: C_10  and  N_11
REMARK                            x       y       z     vdW  Elec       q    Type
REMARK                         _______ _______ _______ _____ _____    ______ ____
ROOT
ATOM      1  C   UNL     1       7.912   8.261  18.071  0.00  0.00    +0.000 A 
ATOM      2  N   UNL     1       8.252   7.097  18.585  0.00  0.00    +0.000 NA
ATOM      3  N   UNL     1       7.453   6.148  17.981  0.00  0.00    +0.000 NA
ATOM      4  C   UNL     1       6.689   6.796  17.125  0.00  0.00    +0.000 A 
ATOM      5  O   UNL     1       6.909   8.150  17.142  0.00  0.00    +0.000 OA
ENDROOT
BRANCH   1  10
ATOM      6  C   UNL     1      10.314  13.449  18.923  0.00  0.00    +0.000 C 
ATOM      7  C   UNL     1       9.658  12.114  18.735  0.00  0.00    +0.000 A 
ATOM      8  C   UNL     1       9.974  11.033  19.562  0.00  0.00    +0.000 A 
ATOM      9  C   UNL     1       9.379   9.785  19.352  0.00  0.00    +0.000 A 
ATOM     10  C   UNL     1       8.462   9.589  18.308  0.00  0.00    +0.000 A 
ATOM     11  C   UNL     1       8.127  10.686  17.503  0.00  0.00    +0.000 A 
ATOM     12  C   UNL     1       8.718  11.936  17.714  0.00  0.00    +0.000 A 
ENDBRANCH   1  10
BRANCH   4  13
ATOM     13  C   UNL     1       5.606   6.285  16.253  0.00  0.00    +0.000 C 
BRANCH  13  14
ATOM     14  N   UNL     1       4.666   5.444  16.992  0.00  0.00    +0.000 N 
ATOM     15  N   UNL     1       4.808   4.079  16.836  0.00  0.00    +0.000 NA
ATOM     16  C   UNL     1       4.070   3.295  17.556  0.00  0.00    +0.000 A 
ATOM     17  C   UNL     1       3.119   3.761  18.556  0.00  0.00    +0.000 A 
ATOM     18  C   UNL     1       2.437   2.859  19.375  0.00  0.00    +0.000 A 
ATOM     19  C   UNL     1       1.570   3.349  20.353  0.00  0.00    +0.000 A 
ATOM     20  C   UNL     1       1.380   4.727  20.493  0.00  0.00    +0.000 A 
ATOM     21  C   UNL     1       2.061   5.619  19.660  0.00  0.00    +0.000 A 
ATOM     22  C   UNL     1       2.942   5.129  18.692  0.00  0.00    +0.000 A 
ATOM     23  C   UNL     1       3.737   6.041  17.845  0.00  0.00    +0.000 A 
ATOM     24  O   UNL     1       3.582   7.254  17.953  0.00  0.00    +0.000 OA
ENDBRANCH  13  14
ENDBRANCH   4  13
TORSDOF 3
ENDMDL
MODEL 5
REMARK VINA RESULT:      -8.2      1.565      1.674
REMARK  Name = 
REMARK  4 active torsions:
REMARK  status: ('A' for Active; 'I' for Inactive)
REMARK    1  A    between atoms: C_1  and  C_2
REMARK    2  A    between atoms: C_5  and  C_6
REMARK    3  A    between atoms: C_9  and  C_10
REMARK    4  A    between atoms: C_10  and  N_11
REMARK                            x       y       z     vdW  Elec       q    Type
REMARK                         _______ _______ _______ _____ _____    ______ ____
ROOT
ATOM      1  C   UNL     1       8.348   8.999  18.204  0.00  0.00    +0.000 A 
ATOM      2  N   UNL     1       7.394   9.004  17.295  0.00  0.00    +0.000 NA
ATOM      3  N   UNL     1       6.963   7.700  17.166  0.00  0.00    +0.000 NA
ATOM      4  C   UNL     1       7.672   6.988  18.019  0.00  0.00    +0.000 A 
ATOM      5  O   UNL     1       8.592   7.743  18.700  0.00  0.00    +0.000 OA
ENDROOT
BRANCH   1  10
ATOM      6  C   UNL     1      11.212  13.535  20.356  0.00  0.00    +0.000 C 
ATOM      7  C   UNL     1      10.511  12.334  19.796  0.00  0.00    +0.000 A 
ATOM      8  C   UNL     1      10.435  12.121  18.417  0.00  0.00    +0.000 A 
ATOM      9  C   UNL     1       9.748  11.016  17.907  0.00  0.00    +0.000 A 
ATOM     10  C   UNL     1       9.116  10.102  18.765  0.00  0.00    +0.000 A 
ATOM     11  C   UNL     1       9.222  10.305  20.148  0.00  0.00    +0.000 A 
ATOM     12  C   UNL     1       9.913  11.409  20.658  0.00  0.00    +0.000 A 
ENDBRANCH   1  10
BRANCH   4  13
ATOM     13  C   UNL     1       7.670   5.525  18.257  0.00  0.00    +0.000 C 
BRANCH  13  14
ATOM     14  N   UNL     1       6.322   5.019  18.510  0.00  0.00    +0.000 N 
ATOM     15  N   UNL     1       5.764   5.339  19.733  0.00  0.00    +0.000 NA
ATOM     16  C   UNL     1       4.533   5.006  19.955  0.00  0.00    +0.000 A 
ATOM     17  C   UNL     1       3.677   4.344  18.980  0.00  0.00    +0.000 A 
ATOM     18  C   UNL     1       2.326   4.115  19.247  0.00  0.00    +0.000 A 
ATOM     19  C   UNL     1       1.530   3.521  18.266  0.00  0.00    +0.000 A 
ATOM     20  C   UNL     1       2.090   3.148  17.041  0.00  0.00    +0.000 A 
ATOM     21  C   UNL     1       3.446   3.375  16.789  0.00  0.00    +0.000 A 
ATOM     22  C   UNL     1       4.240   3.985  17.765  0.00  0.00    +0.000 A 
ATOM     23  C   UNL     1       5.658   4.310  17.509  0.00  0.00    +0.000 A 
ATOM     24  O   UNL     1       6.166   3.989  16.438  0.00  0.00    +0.000 OA
ENDBRANCH  13  14
ENDBRANCH   4  13
TORSDOF 3
ENDMDL
MODEL 6
REMARK VINA RESULT:      -8.1      0.619      1.163
REMARK  Name = 
REMARK  4 active torsions:
REMARK  status: ('A' for Active; 'I' for Inactive)
REMARK    1  A    between atoms: C_1  and  C_2
REMARK    2  A    between atoms: C_5  and  C_6
REMARK    3  A    between atoms: C_9  and  C_10
REMARK    4  A    between atoms: C_10  and  N_11
REMARK                            x       y       z     vdW  Elec       q    Type
REMARK                         _______ _______ _______ _____ _____    ______ ____
ROOT
ATOM      1  C   UNL     1       7.769   8.196  17.888  0.00  0.00    +0.000 A 
ATOM      2  N   UNL     1       8.252   6.988  18.099  0.00  0.00    +0.000 NA
ATOM      3  N   UNL     1       7.349   6.099  17.553  0.00  0.00    +0.000 NA
ATOM      4  C   UNL     1       6.382   6.826  17.031  0.00  0.00    +0.000 A 
ATOM      5  O   UNL     1       6.568   8.170  17.224  0.00  0.00    +0.000 OA
ENDROOT
BRANCH   1  10
ATOM      6  C   UNL     1      10.223  13.293  19.076  0.00  0.00    +0.000 C 
ATOM      7  C   UNL     1       9.551  11.981  18.800  0.00  0.00    +0.000 A 
ATOM      8  C   UNL     1       9.791  10.864  19.605  0.00  0.00    +0.000 A 
ATOM      9  C   UNL     1       9.184   9.638  19.313  0.00  0.00    +0.000 A 
ATOM     10  C   UNL     1       8.331   9.501  18.207  0.00  0.00    +0.000 A 
ATOM     11  C   UNL     1       8.071  10.633  17.423  0.00  0.00    +0.000 A 
ATOM     12  C   UNL     1       8.675  11.861  17.716  0.00  0.00    +0.000 A 
ENDBRANCH   1  10
BRANCH   4  13
ATOM     13  C   UNL     1       5.127   6.392  16.373  0.00  0.00    +0.000 C 
BRANCH  13  14
ATOM     14  N   UNL     1       4.205   5.768  17.321  0.00  0.00    +0.000 N 
ATOM     15  N   UNL     1       3.606   6.609  18.239  0.00  0.00    +0.000 NA
ATOM     16  C   UNL     1       2.700   6.119  19.025  0.00  0.00    +0.000 A 
ATOM     17  C   UNL     1       2.240   4.738  18.979  0.00  0.00    +0.000 A 
ATOM     18  C   UNL     1       1.182   4.306  19.780  0.00  0.00    +0.000 A 
ATOM     19  C   UNL     1       0.741   2.986  19.671  0.00  0.00    +0.000 A 
ATOM     20  C   UNL     1       1.367   2.110  18.780  0.00  0.00    +0.000 A 
ATOM     21  C   UNL     1       2.432   2.552  17.991  0.00  0.00    +0.000 A 
ATOM     22  C   UNL     1       2.864   3.879  18.087  0.00  0.00    +0.000 A 
ATOM     23  C   UNL     1       3.934   4.404  17.217  0.00  0.00    +0.000 A 
ATOM     24  O   UNL     1       4.497   3.648  16.429  0.00  0.00    +0.000 OA
ENDBRANCH  13  14
ENDBRANCH   4  13
TORSDOF 3
ENDMDL
MODEL 7
REMARK VINA RESULT:      -8.1      4.532      6.294
REMARK  Name = 
REMARK  4 active torsions:
REMARK  status: ('A' for Active; 'I' for Inactive)
REMARK    1  A    between atoms: C_1  and  C_2
REMARK    2  A    between atoms: C_5  and  C_6
REMARK    3  A    between atoms: C_9  and  C_10
REMARK    4  A    between atoms: C_10  and  N_11
REMARK                            x       y       z     vdW  Elec       q    Type
REMARK                         _______ _______ _______ _____ _____    ______ ____
ROOT
ATOM      1  C   UNL     1       2.161   6.134  20.053  0.00  0.00    +0.000 A 
ATOM      2  N   UNL     1       1.494   5.243  20.759  0.00  0.00    +0.000 NA
ATOM      3  N   UNL     1       2.248   4.087  20.751  0.00  0.00    +0.000 NA
ATOM      4  C   UNL     1       3.333   4.356  20.053  0.00  0.00    +0.000 A 
ATOM      5  O   UNL     1       3.338   5.634  19.557  0.00  0.00    +0.000 OA
ENDROOT
BRANCH   1  10
ATOM      6  C   UNL     1       0.756  11.602  18.814  0.00  0.00    +0.000 C 
ATOM      7  C   UNL     1       1.165  10.198  19.145  0.00  0.00    +0.000 A 
ATOM      8  C   UNL     1       1.770   9.378  18.189  0.00  0.00    +0.000 A 
ATOM      9  C   UNL     1       2.114   8.060  18.503  0.00  0.00    +0.000 A 
ATOM     10  C   UNL     1       1.855   7.531  19.776  0.00  0.00    +0.000 A 
ATOM     11  C   UNL     1       1.277   8.369  20.740  0.00  0.00    +0.000 A 
ATOM     12  C   UNL     1       0.935   9.689  20.428  0.00  0.00    +0.000 A 
ENDBRANCH   1  10
BRANCH   4  13
ATOM     13  C   UNL     1       4.455   3.465  19.674  0.00  0.00    +0.000 C 
BRANCH  13  14
ATOM     14  N   UNL     1       5.164   3.958  18.494  0.00  0.00    +0.000 N 
ATOM     15  N   UNL     1       6.409   4.516  18.713  0.00  0.00    +0.000 NA
ATOM     16  C   UNL     1       7.118   4.865  17.687  0.00  0.00    +0.000 A 
ATOM     17  C   UNL     1       6.703   4.671  16.305  0.00  0.00    +0.000 A 
ATOM     18  C   UNL     1       7.565   4.968  15.247  0.00  0.00    +0.000 A 
ATOM     19  C   UNL     1       7.146   4.723  13.938  0.00  0.00    +0.000 A 
ATOM     20  C   UNL     1       5.872   4.201  13.697  0.00  0.00    +0.000 A 
ATOM     21  C   UNL     1       5.015   3.917  14.764  0.00  0.00    +0.000 A 
ATOM     22  C   UNL     1       5.440   4.147  16.076  0.00  0.00    +0.000 A 
ATOM     23  C   UNL     1       4.594   3.789  17.232  0.00  0.00    +0.000 A 
ATOM     24  O   UNL     1       3.471   3.331  17.039  0.00  0.00    +0.000 OA
ENDBRANCH  13  14
ENDBRANCH   4  13
TORSDOF 3
ENDMDL
MODEL 8
REMARK VINA RESULT:      -8.1      1.538      1.846
REMARK  Name = 
REMARK  4 active torsions:
REMARK  status: ('A' for Active; 'I' for Inactive)
REMARK    1  A    between atoms: C_1  and  C_2
REMARK    2  A    between atoms: C_5  and  C_6
REMARK    3  A    between atoms: C_9  and  C_10
REMARK    4  A    between atoms: C_10  and  N_11
REMARK                            x       y       z     vdW  Elec       q    Type
REMARK                         _______ _______ _______ _____ _____    ______ ____
ROOT
ATOM      1  C   UNL     1       8.313   9.104  18.091  0.00  0.00    +0.000 A 
ATOM      2  N   UNL     1       7.323   9.083  17.221  0.00  0.00    +0.000 NA
ATOM      3  N   UNL     1       6.881   7.778  17.155  0.00  0.00    +0.000 NA
ATOM      4  C   UNL     1       7.622   7.092  18.003  0.00  0.00    +0.000 A 
ATOM      5  O   UNL     1       8.571   7.865  18.620  0.00  0.00    +0.000 OA
ENDROOT
BRANCH   1  10
ATOM      6  C   UNL     1      11.637  13.378  20.115  0.00  0.00    +0.000 C 
ATOM      7  C   UNL     1      10.737  12.299  19.593  0.00  0.00    +0.000 A 
ATOM      8  C   UNL     1      10.025  11.469  20.463  0.00  0.00    +0.000 A 
ATOM      9  C   UNL     1       9.217  10.444  19.962  0.00  0.00    +0.000 A 
ATOM     10  C   UNL     1       9.107  10.223  18.581  0.00  0.00    +0.000 A 
ATOM     11  C   UNL     1       9.798  11.079  17.713  0.00  0.00    +0.000 A 
ATOM     12  C   UNL     1      10.605  12.106  18.213  0.00  0.00    +0.000 A 
ENDBRANCH   1  10
BRANCH   4  13
ATOM     13  C   UNL     1       7.623   5.639  18.292  0.00  0.00    +0.000 C 
BRANCH  13  14
ATOM     14  N   UNL     1       6.270   5.129  18.514  0.00  0.00    +0.000 N 
ATOM     15  N   UNL     1       5.647   5.526  19.681  0.00  0.00    +0.000 NA
ATOM     16  C   UNL     1       4.410   5.189  19.866  0.00  0.00    +0.000 A 
ATOM     17  C   UNL     1       3.615   4.444  18.901  0.00  0.00    +0.000 A 
ATOM     18  C   UNL     1       2.255   4.211  19.116  0.00  0.00    +0.000 A 
ATOM     19  C   UNL     1       1.518   3.535  18.143  0.00  0.00    +0.000 A 
ATOM     20  C   UNL     1       2.144   3.085  16.977  0.00  0.00    +0.000 A 
ATOM     21  C   UNL     1       3.508   3.316  16.777  0.00  0.00    +0.000 A 
ATOM     22  C   UNL     1       4.243   4.009  17.744  0.00  0.00    +0.000 A 
ATOM     23  C   UNL     1       5.667   4.338  17.536  0.00  0.00    +0.000 A 
ATOM     24  O   UNL     1       6.234   3.950  16.518  0.00  0.00    +0.000 OA
ENDBRANCH  13  14
ENDBRANCH   4  13
TORSDOF 3
ENDMDL
MODEL 9
REMARK VINA RESULT:      -8.1      4.658      7.100
REMARK  Name = 
REMARK  4 active torsions:
REMARK  status: ('A' for Active; 'I' for Inactive)
REMARK    1  A    between atoms: C_1  and  C_2
REMARK    2  A    between atoms: C_5  and  C_6
REMARK    3  A    between atoms: C_9  and  C_10
REMARK    4  A    between atoms: C_10  and  N_11
REMARK                            x       y       z     vdW  Elec       q    Type
REMARK                         _______ _______ _______ _____ _____    ______ ____
ROOT
ATOM      1  C   UNL     1       1.257   8.588  20.334  0.00  0.00    +0.000 A 
ATOM      2  N   UNL     1       1.773   8.746  19.132  0.00  0.00    +0.000 NA
ATOM      3  N   UNL     1       2.420   7.569  18.820  0.00  0.00    +0.000 NA
ATOM      4  C   UNL     1       2.242   6.763  19.848  0.00  0.00    +0.000 A 
ATOM      5  O   UNL     1       1.529   7.351  20.861  0.00  0.00    +0.000 OA
ENDROOT
BRANCH   1  10
ATOM      6  C   UNL     1      -2.212  12.084  23.360  0.00  0.00    +0.000 C 
ATOM      7  C   UNL     1      -1.275  11.206  22.586  0.00  0.00    +0.000 A 
ATOM      8  C   UNL     1      -0.960  11.485  21.253  0.00  0.00    +0.000 A 
ATOM      9  C   UNL     1      -0.112  10.637  20.534  0.00  0.00    +0.000 A 
ATOM     10  C   UNL     1       0.433   9.489  21.128  0.00  0.00    +0.000 A 
ATOM     11  C   UNL     1       0.138   9.232  22.474  0.00  0.00    +0.000 A 
ATOM     12  C   UNL     1      -0.708  10.081  23.196  0.00  0.00    +0.000 A 
ENDBRANCH   1  10
BRANCH   4  13
ATOM     13  C   UNL     1       2.770   5.398  20.079  0.00  0.00    +0.000 C 
BRANCH  13  14
ATOM     14  N   UNL     1       3.491   4.891  18.912  0.00  0.00    +0.000 N 
ATOM     15  N   UNL     1       2.726   4.295  17.928  0.00  0.00    +0.000 NA
ATOM     16  C   UNL     1       3.309   3.932  16.829  0.00  0.00    +0.000 A 
ATOM     17  C   UNL     1       4.721   4.145  16.546  0.00  0.00    +0.000 A 
ATOM     18  C   UNL     1       5.260   3.829  15.297  0.00  0.00    +0.000 A 
ATOM     19  C   UNL     1       6.608   4.093  15.050  0.00  0.00    +0.000 A 
ATOM     20  C   UNL     1       7.406   4.653  16.052  0.00  0.00    +0.000 A 
ATOM     21  C   UNL     1       6.858   4.956  17.301  0.00  0.00    +0.000 A 
ATOM     22  C   UNL     1       5.503   4.707  17.543  0.00  0.00    +0.000 A 
ATOM     23  C   UNL     1       4.870   5.083  18.823  0.00  0.00    +0.000 A 
ATOM     24  O   UNL     1       5.556   5.574  19.714  0.00  0.00    +0.000 OA
ENDBRANCH  13  14
ENDBRANCH   4  13
TORSDOF 3
ENDMDL
