MODEL 1
REMARK VINA RESULT:      -8.5      0.000      0.000
REMARK  Name = 
REMARK  2 active torsions:
REMARK  status: ('A' for Active; 'I' for Inactive)
REMARK    1  A    between atoms: C_2  and  C_13
REMARK    2  A    between atoms: C_18  and  N_19
REMARK                            x       y       z     vdW  Elec       q    Type
REMARK                         _______ _______ _______ _____ _____    ______ ____
ROOT
ATOM      1  O   UNL     1       2.158   8.392  19.012  0.00  0.00    +0.000 OA
ATOM      2  C   UNL     1       1.823   7.560  19.848  0.00  0.00    +0.000 C 
ATOM      3  N   UNL     1       0.907   7.753  20.859  0.00  0.00    +0.000 N 
ATOM      4  C   UNL     1       0.296   8.967  21.029  0.00  0.00    +0.000 A 
ATOM      5  N   UNL     1       0.047   9.500  22.198  0.00  0.00    +0.000 NA
ATOM      6  C   UNL     1      -0.507  10.725  21.919  0.00  0.00    +0.000 A 
ATOM      7  C   UNL     1      -0.840  11.774  22.788  0.00  0.00    +0.000 A 
ATOM      8  C   UNL     1      -1.459  12.912  22.259  0.00  0.00    +0.000 A 
ATOM      9  C   UNL     1      -1.766  12.990  20.897  0.00  0.00    +0.000 A 
ATOM     10  C   UNL     1      -1.410  11.968  20.008  0.00  0.00    +0.000 A 
ATOM     11  C   UNL     1      -0.746  10.868  20.556  0.00  0.00    +0.000 A 
ATOM     12  N   UNL     1      -0.167   9.751  20.003  0.00  0.00    +0.000 N 
ATOM     13  H   UNL     1       0.987   7.201  21.703  0.00  0.00    +0.000 HD
ATOM     14  H   UNL     1      -0.093   9.529  19.021  0.00  0.00    +0.000 HD
ENDROOT
BRANCH   2  15
ATOM     15  C   UNL     1       2.466   6.223  19.858  0.00  0.00    +0.000 A 
ATOM     16  C   UNL     1       1.970   5.230  20.710  0.00  0.00    +0.000 A 
ATOM     17  C   UNL     1       2.537   3.954  20.688  0.00  0.00    +0.000 A 
ATOM     18  C   UNL     1       3.592   3.665  19.815  0.00  0.00    +0.000 A 
ATOM     19 CL   UNL     1       4.310   2.097  19.942  0.00  0.00    +0.000 Cl
ATOM     20  C   UNL     1       4.086   4.658  18.949  0.00  0.00    +0.000 A 
ATOM     21  C   UNL     1       3.526   5.946  18.985  0.00  0.00    +0.000 A 
BRANCH  20  22
ATOM     22  N   UNL     1       5.115   4.427  18.008  0.00  0.00    +0.000 N 
ATOM     23  C   UNL     1       4.829   4.462  16.598  0.00  0.00    +0.000 C 
ATOM     24  C   UNL     1       6.172   4.145  15.969  0.00  0.00    +0.000 C 
ATOM     25  C   UNL     1       7.169   4.781  16.928  0.00  0.00    +0.000 C 
ATOM     26  C   UNL     1       6.451   4.743  18.254  0.00  0.00    +0.000 C 
ATOM     27  O   UNL     1       6.983   4.956  19.334  0.00  0.00    +0.000 OA
ENDBRANCH  20  22
ENDBRANCH   2  15
TORSDOF 2
ENDMDL
MODEL 2
REMARK VINA RESULT:      -8.3      1.280      1.350
REMARK  Name = 
REMARK  2 active torsions:
REMARK  status: ('A' for Active; 'I' for Inactive)
REMARK    1  A    between atoms: C_2  and  C_13
REMARK    2  A    between atoms: C_18  and  N_19
REMARK                            x       y       z     vdW  Elec       q    Type
REMARK                         _______ _______ _______ _____ _____    ______ ____
ROOT
ATOM      1  O   UNL     1       2.344   8.680  17.830  0.00  0.00    +0.000 OA
ATOM      2  C   UNL     1       2.115   8.097  18.884  0.00  0.00    +0.000 C 
ATOM      3  N   UNL     1       1.420   8.610  19.958  0.00  0.00    +0.000 N 
ATOM      4  C   UNL     1       0.938   9.891  19.933  0.00  0.00    +0.000 A 
ATOM      5  N   UNL     1       0.950  10.695  20.966  0.00  0.00    +0.000 NA
ATOM      6  C   UNL     1       0.440  11.882  20.499  0.00  0.00    +0.000 A 
ATOM      7  C   UNL     1       0.349  13.127  21.135  0.00  0.00    +0.000 A 
ATOM      8  C   UNL     1      -0.278  14.181  20.461  0.00  0.00    +0.000 A 
ATOM      9  C   UNL     1      -0.828  13.989  19.191  0.00  0.00    +0.000 A 
ATOM     10  C   UNL     1      -0.717  12.761  18.524  0.00  0.00    +0.000 A 
ATOM     11  C   UNL     1      -0.040  11.744  19.200  0.00  0.00    +0.000 A 
ATOM     12  N   UNL     1       0.346  10.475  18.841  0.00  0.00    +0.000 N 
ATOM     13  H   UNL     1       1.619   8.254  20.884  0.00  0.00    +0.000 HD
ATOM     14  H   UNL     1       0.219  10.034  17.942  0.00  0.00    +0.000 HD
ENDROOT
BRANCH   2  15
ATOM     15  C   UNL     1       2.654   6.733  19.106  0.00  0.00    +0.000 A 
ATOM     16  C   UNL     1       2.078   5.918  20.087  0.00  0.00    +0.000 A 
ATOM     17  C   UNL     1       2.546   4.615  20.266  0.00  0.00    +0.000 A 
ATOM     18  C   UNL     1       3.582   4.120  19.466  0.00  0.00    +0.000 A 
ATOM     19 CL   UNL     1       4.178   2.541  19.839  0.00  0.00    +0.000 Cl
ATOM     20  C   UNL     1       4.157   4.933  18.470  0.00  0.00    +0.000 A 
ATOM     21  C   UNL     1       3.696   6.249  18.304  0.00  0.00    +0.000 A 
BRANCH  20  22
ATOM     22  N   UNL     1       5.172   4.488  17.595  0.00  0.00    +0.000 N 
ATOM     23  C   UNL     1       4.945   4.465  16.173  0.00  0.00    +0.000 C 
ATOM     24  C   UNL     1       6.247   3.911  15.627  0.00  0.00    +0.000 C 
ATOM     25  C   UNL     1       7.293   4.460  16.588  0.00  0.00    +0.000 C 
ATOM     26  C   UNL     1       6.531   4.621  17.879  0.00  0.00    +0.000 C 
ATOM     27  O   UNL     1       7.051   4.829  18.966  0.00  0.00    +0.000 OA
ENDBRANCH  20  22
ENDBRANCH   2  15
TORSDOF 2
ENDMDL
MODEL 3
REMARK VINA RESULT:      -8.2      2.235      3.485
REMARK  Name = 
REMARK  2 active torsions:
REMARK  status: ('A' for Active; 'I' for Inactive)
REMARK    1  A    between atoms: C_2  and  C_13
REMARK    2  A    between atoms: C_18  and  N_19
REMARK                            x       y       z     vdW  Elec       q    Type
REMARK                         _______ _______ _______ _____ _____    ______ ____
ROOT
ATOM      1  O   UNL     1       1.905   9.848  17.514  0.00  0.00    +0.000 OA
ATOM      2  C   UNL     1       1.870   9.002  18.400  0.00  0.00    +0.000 C 
ATOM      3  N   UNL     1       1.256   9.141  19.627  0.00  0.00    +0.000 N 
ATOM      4  C   UNL     1       0.636  10.312  19.971  0.00  0.00    +0.000 A 
ATOM      5  N   UNL     1       0.683  10.837  21.170  0.00  0.00    +0.000 NA
ATOM      6  C   UNL     1      -0.007  12.020  21.067  0.00  0.00    +0.000 A 
ATOM      7  C   UNL     1      -0.158  13.051  22.004  0.00  0.00    +0.000 A 
ATOM      8  C   UNL     1      -0.974  14.140  21.678  0.00  0.00    +0.000 A 
ATOM      9  C   UNL     1      -1.648  14.186  20.455  0.00  0.00    +0.000 A 
ATOM     10  C   UNL     1      -1.483  13.182  19.491  0.00  0.00    +0.000 A 
ATOM     11  C   UNL     1      -0.621  12.134  19.824  0.00  0.00    +0.000 A 
ATOM     12  N   UNL     1      -0.143  11.055  19.121  0.00  0.00    +0.000 N 
ATOM     13  H   UNL     1       1.603   8.603  20.410  0.00  0.00    +0.000 HD
ATOM     14  H   UNL     1      -0.328  10.830  18.155  0.00  0.00    +0.000 HD
ENDROOT
BRANCH   2  15
ATOM     15  C   UNL     1       2.578   7.712  18.219  0.00  0.00    +0.000 A 
ATOM     16  C   UNL     1       3.686   7.650  17.366  0.00  0.00    +0.000 A 
ATOM     17  C   UNL     1       4.389   6.452  17.230  0.00  0.00    +0.000 A 
ATOM     18  C   UNL     1       3.995   5.317  17.947  0.00  0.00    +0.000 A 
ATOM     19 CL   UNL     1       4.848   3.848  17.625  0.00  0.00    +0.000 Cl
ATOM     20  C   UNL     1       2.888   5.378  18.816  0.00  0.00    +0.000 A 
ATOM     21  C   UNL     1       2.172   6.579  18.937  0.00  0.00    +0.000 A 
BRANCH  20  22
ATOM     22  N   UNL     1       2.462   4.287  19.607  0.00  0.00    +0.000 N 
ATOM     23  C   UNL     1       2.372   4.421  21.037  0.00  0.00    +0.000 C 
ATOM     24  C   UNL     1       1.911   3.046  21.482  0.00  0.00    +0.000 C 
ATOM     25  C   UNL     1       1.014   2.589  20.339  0.00  0.00    +0.000 C 
ATOM     26  C   UNL     1       1.578   3.313  19.141  0.00  0.00    +0.000 C 
ATOM     27  O   UNL     1       1.288   3.059  17.981  0.00  0.00    +0.000 OA
ENDBRANCH  20  22
ENDBRANCH   2  15
TORSDOF 2
ENDMDL
MODEL 4
REMARK VINA RESULT:      -8.1      1.682      2.263
REMARK  Name = 
REMARK  2 active torsions:
REMARK  status: ('A' for Active; 'I' for Inactive)
REMARK    1  A    between atoms: C_2  and  C_13
REMARK    2  A    between atoms: C_18  and  N_19
REMARK                            x       y       z     vdW  Elec       q    Type
REMARK                         _______ _______ _______ _____ _____    ______ ____
ROOT
ATOM      1  O   UNL     1       0.878   6.274  20.844  0.00  0.00    +0.000 OA
ATOM      2  C   UNL     1       1.634   6.813  20.042  0.00  0.00    +0.000 C 
ATOM      3  N   UNL     1       1.719   8.167  19.797  0.00  0.00    +0.000 N 
ATOM      4  C   UNL     1       0.896   9.050  20.444  0.00  0.00    +0.000 A 
ATOM      5  N   UNL     1       0.359  10.098  19.874  0.00  0.00    +0.000 NA
ATOM      6  C   UNL     1      -0.430  10.666  20.844  0.00  0.00    +0.000 A 
ATOM      7  C   UNL     1      -1.338  11.729  20.748  0.00  0.00    +0.000 A 
ATOM      8  C   UNL     1      -1.983  12.167  21.910  0.00  0.00    +0.000 A 
ATOM      9  C   UNL     1      -1.706  11.576  23.146  0.00  0.00    +0.000 A 
ATOM     10  C   UNL     1      -0.829  10.489  23.257  0.00  0.00    +0.000 A 
ATOM     11  C   UNL     1      -0.240  10.040  22.072  0.00  0.00    +0.000 A 
ATOM     12  N   UNL     1       0.569   8.971  21.774  0.00  0.00    +0.000 N 
ATOM     13  H   UNL     1       2.040   8.479  18.890  0.00  0.00    +0.000 HD
ATOM     14  H   UNL     1       0.882   8.252  22.409  0.00  0.00    +0.000 HD
ENDROOT
BRANCH   2  15
ATOM     15  C   UNL     1       2.522   5.985  19.192  0.00  0.00    +0.000 A 
ATOM     16  C   UNL     1       1.993   4.878  18.519  0.00  0.00    +0.000 A 
ATOM     17  C   UNL     1       2.812   4.124  17.676  0.00  0.00    +0.000 A 
ATOM     18  C   UNL     1       4.156   4.474  17.498  0.00  0.00    +0.000 A 
ATOM     19 CL   UNL     1       5.123   3.415  16.534  0.00  0.00    +0.000 Cl
ATOM     20  C   UNL     1       4.689   5.593  18.165  0.00  0.00    +0.000 A 
ATOM     21  C   UNL     1       3.868   6.340  19.026  0.00  0.00    +0.000 A 
BRANCH  20  22
ATOM     22  N   UNL     1       6.021   6.034  17.999  0.00  0.00    +0.000 N 
ATOM     23  C   UNL     1       6.304   7.205  17.211  0.00  0.00    +0.000 C 
ATOM     24  C   UNL     1       7.815   7.303  17.272  0.00  0.00    +0.000 C 
ATOM     25  C   UNL     1       8.145   6.781  18.664  0.00  0.00    +0.000 C 
ATOM     26  C   UNL     1       7.013   5.828  18.957  0.00  0.00    +0.000 C 
ATOM     27  O   UNL     1       7.006   5.028  19.881  0.00  0.00    +0.000 OA
ENDBRANCH  20  22
ENDBRANCH   2  15
TORSDOF 2
ENDMDL
MODEL 5
REMARK VINA RESULT:      -8.1      3.345      8.735
REMARK  Name = 
REMARK  2 active torsions:
REMARK  status: ('A' for Active; 'I' for Inactive)
REMARK    1  A    between atoms: C_2  and  C_13
REMARK    2  A    between atoms: C_18  and  N_19
REMARK                            x       y       z     vdW  Elec       q    Type
REMARK                         _______ _______ _______ _____ _____    ______ ____
ROOT
ATOM      1  O   UNL     1       2.100   8.311  19.513  0.00  0.00    +0.000 OA
ATOM      2  C   UNL     1       1.444   8.108  20.529  0.00  0.00    +0.000 C 
ATOM      3  N   UNL     1       1.266   6.889  21.147  0.00  0.00    +0.000 N 
ATOM      4  C   UNL     1       1.813   5.750  20.619  0.00  0.00    +0.000 A 
ATOM      5  N   UNL     1       1.208   4.589  20.604  0.00  0.00    +0.000 NA
ATOM      6  C   UNL     1       2.068   3.749  19.940  0.00  0.00    +0.000 A 
ATOM      7  C   UNL     1       1.875   2.427  19.517  0.00  0.00    +0.000 A 
ATOM      8  C   UNL     1       2.942   1.755  18.908  0.00  0.00    +0.000 A 
ATOM      9  C   UNL     1       4.182   2.380  18.750  0.00  0.00    +0.000 A 
ATOM     10  C   UNL     1       4.383   3.713  19.135  0.00  0.00    +0.000 A 
ATOM     11  C   UNL     1       3.286   4.373  19.692  0.00  0.00    +0.000 A 
ATOM     12  N   UNL     1       3.074   5.673  20.084  0.00  0.00    +0.000 N 
ATOM     13  H   UNL     1       0.431   6.737  21.697  0.00  0.00    +0.000 HD
ATOM     14  H   UNL     1       3.722   6.443  20.006  0.00  0.00    +0.000 HD
ENDROOT
BRANCH   2  15
ATOM     15  C   UNL     1       0.708   9.225  21.169  0.00  0.00    +0.000 A 
ATOM     16  C   UNL     1       0.085   9.019  22.405  0.00  0.00    +0.000 A 
ATOM     17  C   UNL     1      -0.566  10.080  23.038  0.00  0.00    +0.000 A 
ATOM     18  C   UNL     1      -0.592  11.347  22.444  0.00  0.00    +0.000 A 
ATOM     19 CL   UNL     1      -1.523  12.568  23.239  0.00  0.00    +0.000 Cl
ATOM     20  C   UNL     1       0.043  11.561  21.206  0.00  0.00    +0.000 A 
ATOM     21  C   UNL     1       0.682  10.489  20.563  0.00  0.00    +0.000 A 
BRANCH  20  22
ATOM     22  N   UNL     1       0.098  12.822  20.569  0.00  0.00    +0.000 N 
ATOM     23  C   UNL     1       1.345  13.536  20.483  0.00  0.00    +0.000 C 
ATOM     24  C   UNL     1       0.958  14.815  19.766  0.00  0.00    +0.000 C 
ATOM     25  C   UNL     1      -0.147  14.367  18.818  0.00  0.00    +0.000 C 
ATOM     26  C   UNL     1      -0.756  13.183  19.527  0.00  0.00    +0.000 C 
ATOM     27  O   UNL     1      -1.817  12.661  19.214  0.00  0.00    +0.000 OA
ENDBRANCH  20  22
ENDBRANCH   2  15
TORSDOF 2
ENDMDL
MODEL 6
REMARK VINA RESULT:      -8.1      1.334      1.812
REMARK  Name = 
REMARK  2 active torsions:
REMARK  status: ('A' for Active; 'I' for Inactive)
REMARK    1  A    between atoms: C_2  and  C_13
REMARK    2  A    between atoms: C_18  and  N_19
REMARK                            x       y       z     vdW  Elec       q    Type
REMARK                         _______ _______ _______ _____ _____    ______ ____
ROOT
ATOM      1  O   UNL     1       0.906   7.472  21.439  0.00  0.00    +0.000 OA
ATOM      2  C   UNL     1       1.569   7.329  20.418  0.00  0.00    +0.000 C 
ATOM      3  N   UNL     1       1.774   8.286  19.446  0.00  0.00    +0.000 N 
ATOM      4  C   UNL     1       1.191   9.521  19.545  0.00  0.00    +0.000 A 
ATOM      5  N   UNL     1       0.694  10.176  18.527  0.00  0.00    +0.000 NA
ATOM      6  C   UNL     1       0.162  11.321  19.067  0.00  0.00    +0.000 A 
ATOM      7  C   UNL     1      -0.612  12.319  18.459  0.00  0.00    +0.000 A 
ATOM      8  C   UNL     1      -0.985  13.433  19.218  0.00  0.00    +0.000 A 
ATOM      9  C   UNL     1      -0.571  13.564  20.547  0.00  0.00    +0.000 A 
ATOM     10  C   UNL     1       0.174  12.561  21.182  0.00  0.00    +0.000 A 
ATOM     11  C   UNL     1       0.487  11.437  20.414  0.00  0.00    +0.000 A 
ATOM     12  N   UNL     1       1.095  10.241  20.709  0.00  0.00    +0.000 N 
ATOM     13  H   UNL     1       1.967   7.986  18.499  0.00  0.00    +0.000 HD
ATOM     14  H   UNL     1       1.425   9.934  21.613  0.00  0.00    +0.000 HD
ENDROOT
BRANCH   2  15
ATOM     15  C   UNL     1       2.188   6.016  20.116  0.00  0.00    +0.000 A 
ATOM     16  C   UNL     1       1.556   4.843  20.547  0.00  0.00    +0.000 A 
ATOM     17  C   UNL     1       2.106   3.601  20.223  0.00  0.00    +0.000 A 
ATOM     18  C   UNL     1       3.280   3.525  19.464  0.00  0.00    +0.000 A 
ATOM     19 CL   UNL     1       3.953   1.953  19.214  0.00  0.00    +0.000 Cl
ATOM     20  C   UNL     1       3.912   4.702  19.019  0.00  0.00    +0.000 A 
ATOM     21  C   UNL     1       3.367   5.950  19.361  0.00  0.00    +0.000 A 
BRANCH  20  22
ATOM     22  N   UNL     1       5.071   4.702  18.211  0.00  0.00    +0.000 N 
ATOM     23  C   UNL     1       4.963   4.899  16.789  0.00  0.00    +0.000 C 
ATOM     24  C   UNL     1       6.402   4.804  16.320  0.00  0.00    +0.000 C 
ATOM     25  C   UNL     1       7.190   5.400  17.479  0.00  0.00    +0.000 C 
ATOM     26  C   UNL     1       6.320   5.113  18.677  0.00  0.00    +0.000 C 
ATOM     27  O   UNL     1       6.684   5.229  19.838  0.00  0.00    +0.000 OA
ENDBRANCH  20  22
ENDBRANCH   2  15
TORSDOF 2
ENDMDL
MODEL 7
REMARK VINA RESULT:      -8.1      1.858      2.757
REMARK  Name = 
REMARK  2 active torsions:
REMARK  status: ('A' for Active; 'I' for Inactive)
REMARK    1  A    between atoms: C_2  and  C_13
REMARK    2  A    between atoms: C_18  and  N_19
REMARK                            x       y       z     vdW  Elec       q    Type
REMARK                         _______ _______ _______ _____ _____    ______ ____
ROOT
ATOM      1  O   UNL     1       2.315   9.688  17.738  0.00  0.00    +0.000 OA
ATOM      2  C   UNL     1       2.261   8.590  18.280  0.00  0.00    +0.000 C 
ATOM      3  N   UNL     1       1.498   8.270  19.383  0.00  0.00    +0.000 N 
ATOM      4  C   UNL     1       0.731   9.219  20.005  0.00  0.00    +0.000 A 
ATOM      5  N   UNL     1       0.588   9.305  21.303  0.00  0.00    +0.000 NA
ATOM      6  C   UNL     1      -0.198  10.414  21.501  0.00  0.00    +0.000 A 
ATOM      7  C   UNL     1      -0.556  11.053  22.695  0.00  0.00    +0.000 A 
ATOM      8  C   UNL     1      -1.431  12.143  22.636  0.00  0.00    +0.000 A 
ATOM      9  C   UNL     1      -1.961  12.569  21.415  0.00  0.00    +0.000 A 
ATOM     10  C   UNL     1      -1.588  11.964  20.206  0.00  0.00    +0.000 A 
ATOM     11  C   UNL     1      -0.672  10.913  20.292  0.00  0.00    +0.000 A 
ATOM     12  N   UNL     1      -0.013  10.165  19.347  0.00  0.00    +0.000 N 
ATOM     13  H   UNL     1       1.803   7.516  19.985  0.00  0.00    +0.000 HD
ATOM     14  H   UNL     1      -0.062  10.274  18.344  0.00  0.00    +0.000 HD
ENDROOT
BRANCH   2  15
ATOM     15  C   UNL     1       3.108   7.479  17.785  0.00  0.00    +0.000 A 
ATOM     16  C   UNL     1       4.215   7.766  16.978  0.00  0.00    +0.000 A 
ATOM     17  C   UNL     1       5.047   6.729  16.550  0.00  0.00    +0.000 A 
ATOM     18  C   UNL     1       4.781   5.408  16.930  0.00  0.00    +0.000 A 
ATOM     19 CL   UNL     1       5.792   4.179  16.255  0.00  0.00    +0.000 Cl
ATOM     20  C   UNL     1       3.675   5.117  17.750  0.00  0.00    +0.000 A 
ATOM     21  C   UNL     1       2.830   6.159  18.164  0.00  0.00    +0.000 A 
BRANCH  20  22
ATOM     22  N   UNL     1       3.372   3.816  18.211  0.00  0.00    +0.000 N 
ATOM     23  C   UNL     1       2.502   2.960  17.446  0.00  0.00    +0.000 C 
ATOM     24  C   UNL     1       2.429   1.703  18.291  0.00  0.00    +0.000 C 
ATOM     25  C   UNL     1       3.813   1.622  18.922  0.00  0.00    +0.000 C 
ATOM     26  C   UNL     1       4.251   3.064  18.990  0.00  0.00    +0.000 C 
ATOM     27  O   UNL     1       5.213   3.464  19.630  0.00  0.00    +0.000 OA
ENDBRANCH  20  22
ENDBRANCH   2  15
TORSDOF 2
ENDMDL
MODEL 8
REMARK VINA RESULT:      -8.0      3.341      8.753
REMARK  Name = 
REMARK  2 active torsions:
REMARK  status: ('A' for Active; 'I' for Inactive)
REMARK    1  A    between atoms: C_2  and  C_13
REMARK    2  A    between atoms: C_18  and  N_19
REMARK                            x       y       z     vdW  Elec       q    Type
REMARK                         _______ _______ _______ _____ _____    ______ ____
ROOT
ATOM      1  O   UNL     1       2.031   8.363  19.377  0.00  0.00    +0.000 OA
ATOM      2  C   UNL     1       1.438   8.187  20.435  0.00  0.00    +0.000 C 
ATOM      3  N   UNL     1       1.309   6.986  21.100  0.00  0.00    +0.000 N 
ATOM      4  C   UNL     1       1.838   5.836  20.577  0.00  0.00    +0.000 A 
ATOM      5  N   UNL     1       1.245   4.670  20.634  0.00  0.00    +0.000 NA
ATOM      6  C   UNL     1       2.074   3.817  19.948  0.00  0.00    +0.000 A 
ATOM      7  C   UNL     1       1.872   2.480  19.578  0.00  0.00    +0.000 A 
ATOM      8  C   UNL     1       2.908   1.800  18.930  0.00  0.00    +0.000 A 
ATOM      9  C   UNL     1       4.130   2.430  18.680  0.00  0.00    +0.000 A 
ATOM     10  C   UNL     1       4.339   3.776  19.011  0.00  0.00    +0.000 A 
ATOM     11  C   UNL     1       3.269   4.444  19.609  0.00  0.00    +0.000 A 
ATOM     12  N   UNL     1       3.066   5.753  19.972  0.00  0.00    +0.000 N 
ATOM     13  H   UNL     1       0.509   6.845  21.703  0.00  0.00    +0.000 HD
ATOM     14  H   UNL     1       3.700   6.527  19.832  0.00  0.00    +0.000 HD
ENDROOT
BRANCH   2  15
ATOM     15  C   UNL     1       0.728   9.317  21.081  0.00  0.00    +0.000 A 
ATOM     16  C   UNL     1       0.097   9.118  22.315  0.00  0.00    +0.000 A 
ATOM     17  C   UNL     1      -0.529  10.190  22.953  0.00  0.00    +0.000 A 
ATOM     18  C   UNL     1      -0.522  11.461  22.369  0.00  0.00    +0.000 A 
ATOM     19 CL   UNL     1      -1.425  12.699  23.170  0.00  0.00    +0.000 Cl
ATOM     20  C   UNL     1       0.120  11.669  21.133  0.00  0.00    +0.000 A 
ATOM     21  C   UNL     1       0.734  10.585  20.485  0.00  0.00    +0.000 A 
BRANCH  20  22
ATOM     22  N   UNL     1       0.208  12.932  20.507  0.00  0.00    +0.000 N 
ATOM     23  C   UNL     1      -0.926  13.474  19.806  0.00  0.00    +0.000 C 
ATOM     24  C   UNL     1      -0.404  14.796  19.279  0.00  0.00    +0.000 C 
ATOM     25  C   UNL     1       0.566  15.248  20.362  0.00  0.00    +0.000 C 
ATOM     26  C   UNL     1       1.041  13.951  20.969  0.00  0.00    +0.000 C 
ATOM     27  O   UNL     1       1.995  13.852  21.727  0.00  0.00    +0.000 OA
ENDBRANCH  20  22
ENDBRANCH   2  15
TORSDOF 2
ENDMDL
MODEL 9
REMARK VINA RESULT:      -8.0      2.181      3.192
REMARK  Name = 
REMARK  2 active torsions:
REMARK  status: ('A' for Active; 'I' for Inactive)
REMARK    1  A    between atoms: C_2  and  C_13
REMARK    2  A    between atoms: C_18  and  N_19
REMARK                            x       y       z     vdW  Elec       q    Type
REMARK                         _______ _______ _______ _____ _____    ______ ____
ROOT
ATOM      1  O   UNL     1       1.439   7.590  20.665  0.00  0.00    +0.000 OA
ATOM      2  C   UNL     1       1.798   8.059  19.591  0.00  0.00    +0.000 C 
ATOM      3  N   UNL     1       1.423   9.282  19.076  0.00  0.00    +0.000 N 
ATOM      4  C   UNL     1       0.548  10.088  19.753  0.00  0.00    +0.000 A 
ATOM      5  N   UNL     1      -0.389  10.795  19.174  0.00  0.00    +0.000 NA
ATOM      6  C   UNL     1      -1.066  11.400  20.205  0.00  0.00    +0.000 A 
ATOM      7  C   UNL     1      -2.243  12.160  20.176  0.00  0.00    +0.000 A 
ATOM      8  C   UNL     1      -2.704  12.727  21.369  0.00  0.00    +0.000 A 
ATOM      9  C   UNL     1      -1.992  12.564  22.560  0.00  0.00    +0.000 A 
ATOM     10  C   UNL     1      -0.832  11.778  22.616  0.00  0.00    +0.000 A 
ATOM     11  C   UNL     1      -0.425  11.182  21.420  0.00  0.00    +0.000 A 
ATOM     12  N   UNL     1       0.572  10.290  21.110  0.00  0.00    +0.000 N 
ATOM     13  H   UNL     1       1.422   9.409  18.072  0.00  0.00    +0.000 HD
ATOM     14  H   UNL     1       1.220   9.856  21.752  0.00  0.00    +0.000 HD
ENDROOT
BRANCH   2  15
ATOM     15  C   UNL     1       2.672   7.265  18.694  0.00  0.00    +0.000 A 
ATOM     16  C   UNL     1       3.409   7.917  17.699  0.00  0.00    +0.000 A 
ATOM     17  C   UNL     1       4.273   7.183  16.884  0.00  0.00    +0.000 A 
ATOM     18  C   UNL     1       4.409   5.801  17.062  0.00  0.00    +0.000 A 
ATOM     19 CL   UNL     1       5.407   4.957  15.931  0.00  0.00    +0.000 Cl
ATOM     20  C   UNL     1       3.677   5.143  18.070  0.00  0.00    +0.000 A 
ATOM     21  C   UNL     1       2.796   5.881  18.876  0.00  0.00    +0.000 A 
BRANCH  20  22
ATOM     22  N   UNL     1       3.798   3.762  18.339  0.00  0.00    +0.000 N 
ATOM     23  C   UNL     1       4.363   3.312  19.584  0.00  0.00    +0.000 C 
ATOM     24  C   UNL     1       4.328   1.803  19.452  0.00  0.00    +0.000 C 
ATOM     25  C   UNL     1       3.067   1.550  18.636  0.00  0.00    +0.000 C 
ATOM     26  C   UNL     1       2.923   2.809  17.817  0.00  0.00    +0.000 C 
ATOM     27  O   UNL     1       2.164   2.931  16.866  0.00  0.00    +0.000 OA
ENDBRANCH  20  22
ENDBRANCH   2  15
TORSDOF 2
ENDMDL
