MODEL 1
REMARK VINA RESULT:      -8.3      0.000      0.000
REMARK  Name = 
REMARK  8 active torsions:
REMARK  status: ('A' for Active; 'I' for Inactive)
REMARK    1  A    between atoms: C_1  and  O_2
REMARK    2  A    between atoms: O_2  and  C_3
REMARK    3  A    between atoms: C_6  and  S_7
REMARK    4  A    between atoms: S_7  and  N_10
REMARK    5  A    between atoms: N_10  and  C_11
REMARK    6  A    between atoms: C_15  and  N_16
REMARK    7  A    between atoms: C_17  and  C_19
REMARK    8  A    between atoms: C_27  and  C_28
REMARK                            x       y       z     vdW  Elec       q    Type
REMARK                         _______ _______ _______ _____ _____    ______ ____
ROOT
ATOM      1  C   UNL     1       2.654   4.874  18.199  0.00  0.00    +0.000 A 
ATOM      2  C   UNL     1       3.410   3.816  17.680  0.00  0.00    +0.000 A 
ATOM      3  C   UNL     1       4.695   4.041  17.183  0.00  0.00    +0.000 A 
ATOM      4  C   UNL     1       5.211   5.337  17.163  0.00  0.00    +0.000 A 
ATOM      5  C   UNL     1       4.492   6.396  17.722  0.00  0.00    +0.000 A 
ATOM      6  C   UNL     1       3.231   6.158  18.283  0.00  0.00    +0.000 A 
ENDROOT
BRANCH   6   7
ATOM      7  N   UNL     1       2.506   7.188  18.924  0.00  0.00    +0.000 N 
ATOM      8  C   UNL     1       2.075   8.369  18.334  0.00  0.00    +0.000 C 
ATOM      9  O   UNL     1       2.483   8.784  17.253  0.00  0.00    +0.000 OA
ATOM     10  H   UNL     1       2.346   7.080  19.920  0.00  0.00    +0.000 HD
BRANCH   8  11
ATOM     11  C   UNL     1       0.968   8.999  19.044  0.00  0.00    +0.000 A 
ATOM     12  O   UNL     1       0.155   9.816  18.293  0.00  0.00    +0.000 OA
ATOM     13  C   UNL     1       0.212  11.009  18.943  0.00  0.00    +0.000 A 
ATOM     14  C   UNL     1      -0.111  12.232  18.376  0.00  0.00    +0.000 A 
ATOM     15  C   UNL     1       0.335  13.351  19.080  0.00  0.00    +0.000 A 
ATOM     16  C   UNL     1       0.977  13.226  20.317  0.00  0.00    +0.000 A 
ATOM     17  C   UNL     1       1.149  11.975  20.929  0.00  0.00    +0.000 A 
ATOM     18  C   UNL     1       0.774  10.831  20.208  0.00  0.00    +0.000 A 
ATOM     19  C   UNL     1       0.900   9.420  20.372  0.00  0.00    +0.000 A 
ATOM     20  C   UNL     1       1.260   8.695  21.614  0.00  0.00    +0.000 C 
ENDBRANCH   8  11
ENDBRANCH   6   7
BRANCH   4  21
ATOM     21  S   UNL     1       6.798   5.638  16.418  0.00  0.00    +0.000 S 
ATOM     22  O   UNL     1       7.155   7.019  16.686  0.00  0.00    +0.000 OA
ATOM     23  O   UNL     1       7.698   4.565  16.782  0.00  0.00    +0.000 OA
BRANCH  21  24
ATOM     24  N   UNL     1       6.466   5.531  14.773  0.00  0.00    +0.000 NA
ATOM     25  H   UNL     1       6.772   6.373  14.283  0.00  0.00    +0.000 HD
BRANCH  24  26
ATOM     26  C   UNL     1       6.666   4.239  14.118  0.00  0.00    +0.000 C 
ATOM     27  C   UNL     1       6.907   4.172  12.636  0.00  0.00    +0.000 C 
ATOM     28  C   UNL     1       5.605   3.693  13.206  0.00  0.00    +0.000 C 
ENDBRANCH  24  26
ENDBRANCH  21  24
ENDBRANCH   4  21
BRANCH   1  30
ATOM     29  C   UNL     1       1.135   3.887  19.743  0.00  0.00    +0.000 C 
ATOM     30  O   UNL     1       1.356   4.756  18.635  0.00  0.00    +0.000 OA
ENDBRANCH   1  30
TORSDOF 6
ENDMDL
MODEL 2
REMARK VINA RESULT:      -8.2      1.423      1.687
REMARK  Name = 
REMARK  8 active torsions:
REMARK  status: ('A' for Active; 'I' for Inactive)
REMARK    1  A    between atoms: C_1  and  O_2
REMARK    2  A    between atoms: O_2  and  C_3
REMARK    3  A    between atoms: C_6  and  S_7
REMARK    4  A    between atoms: S_7  and  N_10
REMARK    5  A    between atoms: N_10  and  C_11
REMARK    6  A    between atoms: C_15  and  N_16
REMARK    7  A    between atoms: C_17  and  C_19
REMARK    8  A    between atoms: C_27  and  C_28
REMARK                            x       y       z     vdW  Elec       q    Type
REMARK                         _______ _______ _______ _____ _____    ______ ____
ROOT
ATOM      1  C   UNL     1       2.881   5.024  18.818  0.00  0.00    +0.000 A 
ATOM      2  C   UNL     1       3.834   4.074  19.206  0.00  0.00    +0.000 A 
ATOM      3  C   UNL     1       5.188   4.276  18.932  0.00  0.00    +0.000 A 
ATOM      4  C   UNL     1       5.588   5.410  18.228  0.00  0.00    +0.000 A 
ATOM      5  C   UNL     1       4.660   6.393  17.877  0.00  0.00    +0.000 A 
ATOM      6  C   UNL     1       3.310   6.223  18.212  0.00  0.00    +0.000 A 
ENDROOT
BRANCH   6   7
ATOM      7  N   UNL     1       2.355   7.228  17.941  0.00  0.00    +0.000 N 
ATOM      8  C   UNL     1       1.890   8.174  18.843  0.00  0.00    +0.000 C 
ATOM      9  O   UNL     1       2.059   8.106  20.058  0.00  0.00    +0.000 OA
ATOM     10  H   UNL     1       1.925   7.210  17.021  0.00  0.00    +0.000 HD
BRANCH   8  11
ATOM     11  C   UNL     1       1.315   9.352  18.202  0.00  0.00    +0.000 A 
ATOM     12  O   UNL     1       2.204  10.199  17.584  0.00  0.00    +0.000 OA
ATOM     13  C   UNL     1       1.979  11.396  18.189  0.00  0.00    +0.000 A 
ATOM     14  C   UNL     1       2.873  12.455  18.199  0.00  0.00    +0.000 A 
ATOM     15  C   UNL     1       2.611  13.447  19.146  0.00  0.00    +0.000 A 
ATOM     16  C   UNL     1       1.467  13.401  19.952  0.00  0.00    +0.000 A 
ATOM     17  C   UNL     1       0.507  12.389  19.803  0.00  0.00    +0.000 A 
ATOM     18  C   UNL     1       0.785  11.343  18.910  0.00  0.00    +0.000 A 
ATOM     19  C   UNL     1       0.191  10.092  18.569  0.00  0.00    +0.000 A 
ATOM     20  C   UNL     1      -1.176   9.631  18.909  0.00  0.00    +0.000 C 
ENDBRANCH   8  11
ENDBRANCH   6   7
BRANCH   4  21
ATOM     21  S   UNL     1       7.298   5.604  17.775  0.00  0.00    +0.000 S 
ATOM     22  O   UNL     1       7.718   6.927  18.198  0.00  0.00    +0.000 OA
ATOM     23  O   UNL     1       8.032   4.431  18.200  0.00  0.00    +0.000 OA
BRANCH  21  24
ATOM     24  N   UNL     1       7.240   5.626  16.094  0.00  0.00    +0.000 NA
ATOM     25  H   UNL     1       8.037   6.132  15.707  0.00  0.00    +0.000 HD
BRANCH  24  26
ATOM     26  C   UNL     1       6.792   4.413  15.409  0.00  0.00    +0.000 C 
ATOM     27  C   UNL     1       6.698   4.383  13.910  0.00  0.00    +0.000 C 
ATOM     28  C   UNL     1       5.448   4.387  14.740  0.00  0.00    +0.000 C 
ENDBRANCH  24  26
ENDBRANCH  21  24
ENDBRANCH   4  21
BRANCH   1  30
ATOM     29  C   UNL     1       1.082   3.603  19.459  0.00  0.00    +0.000 C 
ATOM     30  O   UNL     1       1.525   4.869  18.978  0.00  0.00    +0.000 OA
ENDBRANCH   1  30
TORSDOF 6
ENDMDL
MODEL 3
REMARK VINA RESULT:      -7.9      1.829      2.324
REMARK  Name = 
REMARK  8 active torsions:
REMARK  status: ('A' for Active; 'I' for Inactive)
REMARK    1  A    between atoms: C_1  and  O_2
REMARK    2  A    between atoms: O_2  and  C_3
REMARK    3  A    between atoms: C_6  and  S_7
REMARK    4  A    between atoms: S_7  and  N_10
REMARK    5  A    between atoms: N_10  and  C_11
REMARK    6  A    between atoms: C_15  and  N_16
REMARK    7  A    between atoms: C_17  and  C_19
REMARK    8  A    between atoms: C_27  and  C_28
REMARK                            x       y       z     vdW  Elec       q    Type
REMARK                         _______ _______ _______ _____ _____    ______ ____
ROOT
ATOM      1  C   UNL     1       2.576   5.201  19.120  0.00  0.00    +0.000 A 
ATOM      2  C   UNL     1       3.308   4.117  18.622  0.00  0.00    +0.000 A 
ATOM      3  C   UNL     1       4.260   4.306  17.618  0.00  0.00    +0.000 A 
ATOM      4  C   UNL     1       4.450   5.577  17.077  0.00  0.00    +0.000 A 
ATOM      5  C   UNL     1       3.766   6.678  17.595  0.00  0.00    +0.000 A 
ATOM      6  C   UNL     1       2.861   6.500  18.650  0.00  0.00    +0.000 A 
ENDROOT
BRANCH   6   7
ATOM      7  N   UNL     1       2.206   7.599  19.249  0.00  0.00    +0.000 N 
ATOM      8  C   UNL     1       1.768   8.742  18.595  0.00  0.00    +0.000 C 
ATOM      9  O   UNL     1       2.114   9.058  17.460  0.00  0.00    +0.000 OA
ATOM     10  H   UNL     1       2.109   7.574  20.260  0.00  0.00    +0.000 HD
BRANCH   8  11
ATOM     11  C   UNL     1       0.725   9.460  19.320  0.00  0.00    +0.000 A 
ATOM     12  O   UNL     1      -0.153  10.188  18.553  0.00  0.00    +0.000 OA
ATOM     13  C   UNL     1      -0.043  11.450  19.049  0.00  0.00    +0.000 A 
ATOM     14  C   UNL     1      -0.418  12.599  18.372  0.00  0.00    +0.000 A 
ATOM     15  C   UNL     1       0.086  13.790  18.897  0.00  0.00    +0.000 A 
ATOM     16  C   UNL     1       0.835  13.807  20.080  0.00  0.00    +0.000 A 
ATOM     17  C   UNL     1       1.063  12.636  20.817  0.00  0.00    +0.000 A 
ATOM     18  C   UNL     1       0.630  11.418  20.272  0.00  0.00    +0.000 A 
ATOM     19  C   UNL     1       0.774  10.035  20.589  0.00  0.00    +0.000 A 
ATOM     20  C   UNL     1       1.244   9.458  21.872  0.00  0.00    +0.000 C 
ENDBRANCH   8  11
ENDBRANCH   6   7
BRANCH   4  21
ATOM     21  S   UNL     1       5.575   5.792  15.716  0.00  0.00    +0.000 S 
ATOM     22  O   UNL     1       5.695   4.515  15.038  0.00  0.00    +0.000 OA
ATOM     23  O   UNL     1       5.199   6.979  14.979  0.00  0.00    +0.000 OA
BRANCH  21  24
ATOM     24  N   UNL     1       7.044   6.076  16.485  0.00  0.00    +0.000 NA
ATOM     25  H   UNL     1       7.741   6.422  15.825  0.00  0.00    +0.000 HD
BRANCH  24  26
ATOM     26  C   UNL     1       7.011   6.658  17.827  0.00  0.00    +0.000 C 
ATOM     27  C   UNL     1       8.195   7.425  18.346  0.00  0.00    +0.000 C 
ATOM     28  C   UNL     1       7.868   6.075  18.914  0.00  0.00    +0.000 C 
ENDBRANCH  24  26
ENDBRANCH  21  24
ENDBRANCH   4  21
BRANCH   1  30
ATOM     29  C   UNL     1       1.120   3.774  20.349  0.00  0.00    +0.000 C 
ATOM     30  O   UNL     1       1.569   5.093  20.049  0.00  0.00    +0.000 OA
ENDBRANCH   1  30
TORSDOF 6
ENDMDL
MODEL 4
REMARK VINA RESULT:      -7.9      3.110      8.760
REMARK  Name = 
REMARK  8 active torsions:
REMARK  status: ('A' for Active; 'I' for Inactive)
REMARK    1  A    between atoms: C_1  and  O_2
REMARK    2  A    between atoms: O_2  and  C_3
REMARK    3  A    between atoms: C_6  and  S_7
REMARK    4  A    between atoms: S_7  and  N_10
REMARK    5  A    between atoms: N_10  and  C_11
REMARK    6  A    between atoms: C_15  and  N_16
REMARK    7  A    between atoms: C_17  and  C_19
REMARK    8  A    between atoms: C_27  and  C_28
REMARK                            x       y       z     vdW  Elec       q    Type
REMARK                         _______ _______ _______ _____ _____    ______ ____
ROOT
ATOM      1  C   UNL     1       2.054   8.060  18.702  0.00  0.00    +0.000 A 
ATOM      2  C   UNL     1       1.394   9.294  18.725  0.00  0.00    +0.000 A 
ATOM      3  C   UNL     1       0.881   9.802  19.920  0.00  0.00    +0.000 A 
ATOM      4  C   UNL     1       0.989   9.052  21.091  0.00  0.00    +0.000 A 
ATOM      5  C   UNL     1       1.688   7.844  21.098  0.00  0.00    +0.000 A 
ATOM      6  C   UNL     1       2.262   7.367  19.913  0.00  0.00    +0.000 A 
ENDROOT
BRANCH   6   7
ATOM      7  N   UNL     1       3.039   6.187  19.896  0.00  0.00    +0.000 N 
ATOM      8  C   UNL     1       2.555   4.895  19.743  0.00  0.00    +0.000 C 
ATOM      9  O   UNL     1       1.371   4.588  19.855  0.00  0.00    +0.000 OA
ATOM     10  H   UNL     1       4.032   6.294  20.078  0.00  0.00    +0.000 HD
BRANCH   8  11
ATOM     11  C   UNL     1       3.564   3.950  19.276  0.00  0.00    +0.000 A 
ATOM     12  O   UNL     1       4.866   4.245  19.604  0.00  0.00    +0.000 OA
ATOM     13  C   UNL     1       5.496   4.295  18.400  0.00  0.00    +0.000 A 
ATOM     14  C   UNL     1       6.705   4.932  18.168  0.00  0.00    +0.000 A 
ATOM     15  C   UNL     1       7.008   5.165  16.826  0.00  0.00    +0.000 A 
ATOM     16  C   UNL     1       6.180   4.695  15.800  0.00  0.00    +0.000 A 
ATOM     17  C   UNL     1       5.043   3.921  16.074  0.00  0.00    +0.000 A 
ATOM     18  C   UNL     1       4.679   3.736  17.416  0.00  0.00    +0.000 A 
ATOM     19  C   UNL     1       3.572   3.174  18.118  0.00  0.00    +0.000 A 
ATOM     20  C   UNL     1       2.516   2.294  17.561  0.00  0.00    +0.000 C 
ENDBRANCH   8  11
ENDBRANCH   6   7
BRANCH   4  21
ATOM     21  S   UNL     1       0.228   9.646  22.586  0.00  0.00    +0.000 S 
ATOM     22  O   UNL     1      -1.065   8.999  22.709  0.00  0.00    +0.000 OA
ATOM     23  O   UNL     1       1.191   9.571  23.664  0.00  0.00    +0.000 OA
BRANCH  21  24
ATOM     24  N   UNL     1      -0.068  11.265  22.238  0.00  0.00    +0.000 NA
ATOM     25  H   UNL     1       0.660  11.649  21.635  0.00  0.00    +0.000 HD
BRANCH  24  26
ATOM     26  C   UNL     1      -1.453  11.669  21.994  0.00  0.00    +0.000 C 
ATOM     27  C   UNL     1      -1.818  13.126  21.960  0.00  0.00    +0.000 C 
ATOM     28  C   UNL     1      -2.262  12.269  23.108  0.00  0.00    +0.000 C 
ENDBRANCH  24  26
ENDBRANCH  21  24
ENDBRANCH   4  21
BRANCH   1  30
ATOM     29  C   UNL     1       3.920   7.544  17.318  0.00  0.00    +0.000 C 
ATOM     30  O   UNL     1       2.519   7.452  17.561  0.00  0.00    +0.000 OA
ENDBRANCH   1  30
TORSDOF 6
ENDMDL
MODEL 5
REMARK VINA RESULT:      -7.8      2.488      8.283
REMARK  Name = 
REMARK  8 active torsions:
REMARK  status: ('A' for Active; 'I' for Inactive)
REMARK    1  A    between atoms: C_1  and  O_2
REMARK    2  A    between atoms: O_2  and  C_3
REMARK    3  A    between atoms: C_6  and  S_7
REMARK    4  A    between atoms: S_7  and  N_10
REMARK    5  A    between atoms: N_10  and  C_11
REMARK    6  A    between atoms: C_15  and  N_16
REMARK    7  A    between atoms: C_17  and  C_19
REMARK    8  A    between atoms: C_27  and  C_28
REMARK                            x       y       z     vdW  Elec       q    Type
REMARK                         _______ _______ _______ _____ _____    ______ ____
ROOT
ATOM      1  C   UNL     1       3.331   5.939  19.299  0.00  0.00    +0.000 A 
ATOM      2  C   UNL     1       2.412   6.519  20.181  0.00  0.00    +0.000 A 
ATOM      3  C   UNL     1       1.808   7.740  19.873  0.00  0.00    +0.000 A 
ATOM      4  C   UNL     1       2.157   8.406  18.699  0.00  0.00    +0.000 A 
ATOM      5  C   UNL     1       3.033   7.819  17.783  0.00  0.00    +0.000 A 
ATOM      6  C   UNL     1       3.586   6.562  18.060  0.00  0.00    +0.000 A 
ENDROOT
BRANCH   6   7
ATOM      7  N   UNL     1       4.417   5.904  17.126  0.00  0.00    +0.000 N 
ATOM      8  C   UNL     1       5.706   6.281  16.775  0.00  0.00    +0.000 C 
ATOM      9  O   UNL     1       6.197   7.375  17.039  0.00  0.00    +0.000 OA
ATOM     10  H   UNL     1       4.006   5.125  16.622  0.00  0.00    +0.000 HD
BRANCH   8  11
ATOM     11  C   UNL     1       6.489   5.195  16.196  0.00  0.00    +0.000 A 
ATOM     12  O   UNL     1       7.582   5.569  15.450  0.00  0.00    +0.000 OA
ATOM     13  C   UNL     1       7.356   4.991  14.239  0.00  0.00    +0.000 A 
ATOM     14  C   UNL     1       7.955   5.387  13.053  0.00  0.00    +0.000 A 
ATOM     15  C   UNL     1       7.345   4.911  11.892  0.00  0.00    +0.000 A 
ATOM     16  C   UNL     1       6.265   4.022  11.946  0.00  0.00    +0.000 A 
ATOM     17  C   UNL     1       5.787   3.527  13.168  0.00  0.00    +0.000 A 
ATOM     18  C   UNL     1       6.336   4.046  14.351  0.00  0.00    +0.000 A 
ATOM     19  C   UNL     1       6.063   3.946  15.747  0.00  0.00    +0.000 A 
ATOM     20  C   UNL     1       5.201   2.943  16.418  0.00  0.00    +0.000 C 
ENDBRANCH   8  11
ENDBRANCH   6   7
BRANCH   4  21
ATOM     21  S   UNL     1       1.478  10.017  18.369  0.00  0.00    +0.000 S 
ATOM     22  O   UNL     1       1.074  10.593  19.638  0.00  0.00    +0.000 OA
ATOM     23  O   UNL     1       2.377  10.735  17.492  0.00  0.00    +0.000 OA
BRANCH  21  24
ATOM     24  N   UNL     1       0.067   9.662  17.523  0.00  0.00    +0.000 NA
ATOM     25  H   UNL     1       0.087   8.707  17.164  0.00  0.00    +0.000 HD
BRANCH  24  26
ATOM     26  C   UNL     1      -1.195  10.176  18.054  0.00  0.00    +0.000 C 
ATOM     27  C   UNL     1      -2.346  10.453  17.128  0.00  0.00    +0.000 C 
ATOM     28  C   UNL     1      -1.605  11.592  17.765  0.00  0.00    +0.000 C 
ENDBRANCH  24  26
ENDBRANCH  21  24
ENDBRANCH   4  21
BRANCH   1  30
ATOM     29  C   UNL     1       3.252   3.602  19.747  0.00  0.00    +0.000 C 
ATOM     30  O   UNL     1       4.028   4.783  19.558  0.00  0.00    +0.000 OA
ENDBRANCH   1  30
TORSDOF 6
ENDMDL
MODEL 6
REMARK VINA RESULT:      -7.5      2.237      8.454
REMARK  Name = 
REMARK  8 active torsions:
REMARK  status: ('A' for Active; 'I' for Inactive)
REMARK    1  A    between atoms: C_1  and  O_2
REMARK    2  A    between atoms: O_2  and  C_3
REMARK    3  A    between atoms: C_6  and  S_7
REMARK    4  A    between atoms: S_7  and  N_10
REMARK    5  A    between atoms: N_10  and  C_11
REMARK    6  A    between atoms: C_15  and  N_16
REMARK    7  A    between atoms: C_17  and  C_19
REMARK    8  A    between atoms: C_27  and  C_28
REMARK                            x       y       z     vdW  Elec       q    Type
REMARK                         _______ _______ _______ _____ _____    ______ ____
ROOT
ATOM      1  C   UNL     1       3.199   5.994  19.390  0.00  0.00    +0.000 A 
ATOM      2  C   UNL     1       2.273   6.587  20.257  0.00  0.00    +0.000 A 
ATOM      3  C   UNL     1       1.658   7.794  19.918  0.00  0.00    +0.000 A 
ATOM      4  C   UNL     1       2.003   8.435  18.729  0.00  0.00    +0.000 A 
ATOM      5  C   UNL     1       2.886   7.834  17.829  0.00  0.00    +0.000 A 
ATOM      6  C   UNL     1       3.451   6.590  18.137  0.00  0.00    +0.000 A 
ENDROOT
BRANCH   6   7
ATOM      7  N   UNL     1       4.289   5.917  17.220  0.00  0.00    +0.000 N 
ATOM      8  C   UNL     1       5.591   6.272  16.896  0.00  0.00    +0.000 C 
ATOM      9  O   UNL     1       6.095   7.358  17.171  0.00  0.00    +0.000 OA
ATOM     10  H   UNL     1       3.875   5.145  16.708  0.00  0.00    +0.000 HD
BRANCH   8  11
ATOM     11  C   UNL     1       6.368   5.173  16.333  0.00  0.00    +0.000 A 
ATOM     12  O   UNL     1       7.480   5.527  15.606  0.00  0.00    +0.000 OA
ATOM     13  C   UNL     1       7.266   4.950  14.393  0.00  0.00    +0.000 A 
ATOM     14  C   UNL     1       7.892   5.334  13.217  0.00  0.00    +0.000 A 
ATOM     15  C   UNL     1       7.296   4.865  12.046  0.00  0.00    +0.000 A 
ATOM     16  C   UNL     1       6.201   3.993  12.083  0.00  0.00    +0.000 A 
ATOM     17  C   UNL     1       5.693   3.508  13.298  0.00  0.00    +0.000 A 
ATOM     18  C   UNL     1       6.229   4.022  14.488  0.00  0.00    +0.000 A 
ATOM     19  C   UNL     1       5.930   3.929  15.879  0.00  0.00    +0.000 A 
ATOM     20  C   UNL     1       5.041   2.941  16.537  0.00  0.00    +0.000 C 
ENDBRANCH   8  11
ENDBRANCH   6   7
BRANCH   4  21
ATOM     21  S   UNL     1       1.308  10.030  18.358  0.00  0.00    +0.000 S 
ATOM     22  O   UNL     1       2.296  10.775  17.599  0.00  0.00    +0.000 OA
ATOM     23  O   UNL     1      -0.031   9.851  17.841  0.00  0.00    +0.000 OA
BRANCH  21  24
ATOM     24  N   UNL     1       1.209  10.756  19.873  0.00  0.00    +0.000 NA
ATOM     25  H   UNL     1       1.853  11.546  19.943  0.00  0.00    +0.000 HD
BRANCH  24  26
ATOM     26  C   UNL     1      -0.113  10.886  20.484  0.00  0.00    +0.000 C 
ATOM     27  C   UNL     1      -0.302  11.745  21.701  0.00  0.00    +0.000 C 
ATOM     28  C   UNL     1      -0.384  10.252  21.818  0.00  0.00    +0.000 C 
ENDBRANCH  24  26
ENDBRANCH  21  24
ENDBRANCH   4  21
BRANCH   1  30
ATOM     29  C   UNL     1       3.141   3.672  19.909  0.00  0.00    +0.000 C 
ATOM     30  O   UNL     1       3.907   4.852  19.679  0.00  0.00    +0.000 OA
ENDBRANCH   1  30
TORSDOF 6
ENDMDL
MODEL 7
REMARK VINA RESULT:      -7.4      2.160      2.970
REMARK  Name = 
REMARK  8 active torsions:
REMARK  status: ('A' for Active; 'I' for Inactive)
REMARK    1  A    between atoms: C_1  and  O_2
REMARK    2  A    between atoms: O_2  and  C_3
REMARK    3  A    between atoms: C_6  and  S_7
REMARK    4  A    between atoms: S_7  and  N_10
REMARK    5  A    between atoms: N_10  and  C_11
REMARK    6  A    between atoms: C_15  and  N_16
REMARK    7  A    between atoms: C_17  and  C_19
REMARK    8  A    between atoms: C_27  and  C_28
REMARK                            x       y       z     vdW  Elec       q    Type
REMARK                         _______ _______ _______ _____ _____    ______ ____
ROOT
ATOM      1  C   UNL     1       2.811   4.902  18.168  0.00  0.00    +0.000 A 
ATOM      2  C   UNL     1       3.747   3.902  18.457  0.00  0.00    +0.000 A 
ATOM      3  C   UNL     1       5.114   4.147  18.312  0.00  0.00    +0.000 A 
ATOM      4  C   UNL     1       5.546   5.383  17.833  0.00  0.00    +0.000 A 
ATOM      5  C   UNL     1       4.631   6.410  17.589  0.00  0.00    +0.000 A 
ATOM      6  C   UNL     1       3.265   6.185  17.800  0.00  0.00    +0.000 A 
ENDROOT
BRANCH   6   7
ATOM      7  N   UNL     1       2.317   7.220  17.635  0.00  0.00    +0.000 N 
ATOM      8  C   UNL     1       1.930   8.132  18.608  0.00  0.00    +0.000 C 
ATOM      9  O   UNL     1       2.170   8.002  19.805  0.00  0.00    +0.000 OA
ATOM     10  H   UNL     1       1.832   7.255  16.744  0.00  0.00    +0.000 HD
BRANCH   8  11
ATOM     11  C   UNL     1       1.343   9.350  18.059  0.00  0.00    +0.000 A 
ATOM     12  O   UNL     1       2.213  10.212  17.433  0.00  0.00    +0.000 OA
ATOM     13  C   UNL     1       2.046  11.381  18.108  0.00  0.00    +0.000 A 
ATOM     14  C   UNL     1       2.961  12.422  18.119  0.00  0.00    +0.000 A 
ATOM     15  C   UNL     1       2.772  13.369  19.126  0.00  0.00    +0.000 A 
ATOM     16  C   UNL     1       1.675  13.304  19.993  0.00  0.00    +0.000 A 
ATOM     17  C   UNL     1       0.688  12.317  19.850  0.00  0.00    +0.000 A 
ATOM     18  C   UNL     1       0.894  11.312  18.892  0.00  0.00    +0.000 A 
ATOM     19  C   UNL     1       0.257  10.090  18.525  0.00  0.00    +0.000 A 
ATOM     20  C   UNL     1      -1.098   9.636  18.919  0.00  0.00    +0.000 C 
ENDBRANCH   8  11
ENDBRANCH   6   7
BRANCH   4  21
ATOM     21  S   UNL     1       7.279   5.651  17.534  0.00  0.00    +0.000 S 
ATOM     22  O   UNL     1       8.004   4.537  18.118  0.00  0.00    +0.000 OA
ATOM     23  O   UNL     1       7.467   5.999  16.142  0.00  0.00    +0.000 OA
BRANCH  21  24
ATOM     24  N   UNL     1       7.619   7.001  18.479  0.00  0.00    +0.000 NA
ATOM     25  H   UNL     1       7.910   6.726  19.418  0.00  0.00    +0.000 HD
BRANCH  24  26
ATOM     26  C   UNL     1       8.304   8.125  17.843  0.00  0.00    +0.000 C 
ATOM     27  C   UNL     1       8.745   9.303  18.665  0.00  0.00    +0.000 C 
ATOM     28  C   UNL     1       7.602   9.445  17.704  0.00  0.00    +0.000 C 
ENDBRANCH  24  26
ENDBRANCH  21  24
ENDBRANCH   4  21
BRANCH   1  30
ATOM     29  C   UNL     1       0.989   3.447  18.650  0.00  0.00    +0.000 C 
ATOM     30  O   UNL     1       1.449   4.722  18.209  0.00  0.00    +0.000 OA
ENDBRANCH   1  30
TORSDOF 6
ENDMDL
MODEL 8
REMARK VINA RESULT:      -7.2      1.711      1.812
REMARK  Name = 
REMARK  8 active torsions:
REMARK  status: ('A' for Active; 'I' for Inactive)
REMARK    1  A    between atoms: C_1  and  O_2
REMARK    2  A    between atoms: O_2  and  C_3
REMARK    3  A    between atoms: C_6  and  S_7
REMARK    4  A    between atoms: S_7  and  N_10
REMARK    5  A    between atoms: N_10  and  C_11
REMARK    6  A    between atoms: C_15  and  N_16
REMARK    7  A    between atoms: C_17  and  C_19
REMARK    8  A    between atoms: C_27  and  C_28
REMARK                            x       y       z     vdW  Elec       q    Type
REMARK                         _______ _______ _______ _____ _____    ______ ____
ROOT
ATOM      1  C   UNL     1       2.594   4.585  19.477  0.00  0.00    +0.000 A 
ATOM      2  C   UNL     1       3.611   3.633  19.618  0.00  0.00    +0.000 A 
ATOM      3  C   UNL     1       4.926   3.944  19.269  0.00  0.00    +0.000 A 
ATOM      4  C   UNL     1       5.221   5.198  18.734  0.00  0.00    +0.000 A 
ATOM      5  C   UNL     1       4.230   6.177  18.633  0.00  0.00    +0.000 A 
ATOM      6  C   UNL     1       2.924   5.887  19.048  0.00  0.00    +0.000 A 
ENDROOT
BRANCH   6   7
ATOM      7  N   UNL     1       1.913   6.874  19.031  0.00  0.00    +0.000 N 
ATOM      8  C   UNL     1       1.750   7.890  19.963  0.00  0.00    +0.000 C 
ATOM      9  O   UNL     1       2.307   7.913  21.057  0.00  0.00    +0.000 OA
ATOM     10  H   UNL     1       1.206   6.789  18.306  0.00  0.00    +0.000 HD
BRANCH   8  11
ATOM     11  C   UNL     1       0.974   9.018  19.460  0.00  0.00    +0.000 A 
ATOM     12  O   UNL     1       1.404   9.568  18.275  0.00  0.00    +0.000 OA
ATOM     13  C   UNL     1       1.619  10.874  18.587  0.00  0.00    +0.000 A 
ATOM     14  C   UNL     1       2.416  11.739  17.854  0.00  0.00    +0.000 A 
ATOM     15  C   UNL     1       2.781  12.914  18.512  0.00  0.00    +0.000 A 
ATOM     16  C   UNL     1       2.288  13.220  19.786  0.00  0.00    +0.000 A 
ATOM     17  C   UNL     1       1.361  12.387  20.431  0.00  0.00    +0.000 A 
ATOM     18  C   UNL     1       1.036  11.166  19.821  0.00  0.00    +0.000 A 
ATOM     19  C   UNL     1       0.291  10.003  20.173  0.00  0.00    +0.000 A 
ATOM     20  C   UNL     1      -0.671   9.863  21.294  0.00  0.00    +0.000 C 
ENDBRANCH   8  11
ENDBRANCH   6   7
BRANCH   4  21
ATOM     21  S   UNL     1       6.874   5.548  18.178  0.00  0.00    +0.000 S 
ATOM     22  O   UNL     1       6.860   6.858  17.554  0.00  0.00    +0.000 OA
ATOM     23  O   UNL     1       7.801   5.257  19.250  0.00  0.00    +0.000 OA
BRANCH  21  24
ATOM     24  N   UNL     1       7.101   4.425  16.946  0.00  0.00    +0.000 NA
ATOM     25  H   UNL     1       7.643   3.625  17.276  0.00  0.00    +0.000 HD
BRANCH  24  26
ATOM     26  C   UNL     1       5.985   4.176  16.034  0.00  0.00    +0.000 C 
ATOM     27  C   UNL     1       6.248   3.864  14.588  0.00  0.00    +0.000 C 
ATOM     28  C   UNL     1       5.649   5.185  14.974  0.00  0.00    +0.000 C 
ENDBRANCH  24  26
ENDBRANCH  21  24
ENDBRANCH   4  21
BRANCH   1  30
ATOM     29  C   UNL     1       0.840   2.983  19.620  0.00  0.00    +0.000 C 
ATOM     30  O   UNL     1       1.264   4.339  19.722  0.00  0.00    +0.000 OA
ENDBRANCH   1  30
TORSDOF 6
ENDMDL
MODEL 9
REMARK VINA RESULT:      -7.2      3.162      8.619
REMARK  Name = 
REMARK  8 active torsions:
REMARK  status: ('A' for Active; 'I' for Inactive)
REMARK    1  A    between atoms: C_1  and  O_2
REMARK    2  A    between atoms: O_2  and  C_3
REMARK    3  A    between atoms: C_6  and  S_7
REMARK    4  A    between atoms: S_7  and  N_10
REMARK    5  A    between atoms: N_10  and  C_11
REMARK    6  A    between atoms: C_15  and  N_16
REMARK    7  A    between atoms: C_17  and  C_19
REMARK    8  A    between atoms: C_27  and  C_28
REMARK                            x       y       z     vdW  Elec       q    Type
REMARK                         _______ _______ _______ _____ _____    ______ ____
ROOT
ATOM      1  C   UNL     1       1.818   8.373  18.540  0.00  0.00    +0.000 A 
ATOM      2  C   UNL     1       1.234   9.618  18.275  0.00  0.00    +0.000 A 
ATOM      3  C   UNL     1       0.692  10.380  19.312  0.00  0.00    +0.000 A 
ATOM      4  C   UNL     1       0.694   9.878  20.613  0.00  0.00    +0.000 A 
ATOM      5  C   UNL     1       1.317   8.663  20.904  0.00  0.00    +0.000 A 
ATOM      6  C   UNL     1       1.922   7.930  19.874  0.00  0.00    +0.000 A 
ENDROOT
BRANCH   6   7
ATOM      7  N   UNL     1       2.626   6.734  20.141  0.00  0.00    +0.000 N 
ATOM      8  C   UNL     1       2.063   5.475  20.297  0.00  0.00    +0.000 C 
ATOM      9  O   UNL     1       0.864   5.277  20.475  0.00  0.00    +0.000 OA
ATOM     10  H   UNL     1       3.626   6.820  20.295  0.00  0.00    +0.000 HD
BRANCH   8  11
ATOM     11  C   UNL     1       3.008   4.386  20.072  0.00  0.00    +0.000 A 
ATOM     12  O   UNL     1       4.336   4.690  20.254  0.00  0.00    +0.000 OA
ATOM     13  C   UNL     1       4.904   4.374  19.059  0.00  0.00    +0.000 A 
ATOM     14  C   UNL     1       6.124   4.858  18.614  0.00  0.00    +0.000 A 
ATOM     15  C   UNL     1       6.365   4.697  17.249  0.00  0.00    +0.000 A 
ATOM     16  C   UNL     1       5.467   4.008  16.426  0.00  0.00    +0.000 A 
ATOM     17  C   UNL     1       4.315   3.400  16.947  0.00  0.00    +0.000 A 
ATOM     18  C   UNL     1       4.015   3.611  18.302  0.00  0.00    +0.000 A 
ATOM     19  C   UNL     1       2.925   3.322  19.174  0.00  0.00    +0.000 A 
ATOM     20  C   UNL     1       1.807   2.380  18.925  0.00  0.00    +0.000 C 
ENDBRANCH   8  11
ENDBRANCH   6   7
BRANCH   4  21
ATOM     21  S   UNL     1      -0.105  10.797  21.909  0.00  0.00    +0.000 S 
ATOM     22  O   UNL     1      -1.484  11.010  21.513  0.00  0.00    +0.000 OA
ATOM     23  O   UNL     1       0.205  10.181  23.181  0.00  0.00    +0.000 OA
BRANCH  21  24
ATOM     24  N   UNL     1       0.660  12.294  21.834  0.00  0.00    +0.000 NA
ATOM     25  H   UNL     1       1.616  12.199  21.490  0.00  0.00    +0.000 HD
BRANCH  24  26
ATOM     26  C   UNL     1      -0.127  13.442  21.384  0.00  0.00    +0.000 C 
ATOM     27  C   UNL     1       0.326  14.250  20.201  0.00  0.00    +0.000 C 
ATOM     28  C   UNL     1       0.404  14.833  21.581  0.00  0.00    +0.000 C 
ENDBRANCH  24  26
ENDBRANCH  21  24
ENDBRANCH   4  21
BRANCH   1  30
ATOM     29  C   UNL     1       3.716   7.528  17.377  0.00  0.00    +0.000 C 
ATOM     30  O   UNL     1       2.304   7.526  17.573  0.00  0.00    +0.000 OA
ENDBRANCH   1  30
TORSDOF 6
ENDMDL
