MODEL 1
REMARK VINA RESULT:      -8.4      0.000      0.000
REMARK  Name = 
REMARK  5 active torsions:
REMARK  status: ('A' for Active; 'I' for Inactive)
REMARK    1  A    between atoms: C_1  and  C_2
REMARK    2  A    between atoms: C_2  and  C_3
REMARK    3  A    between atoms: C_2  and  C_4
REMARK    4  A    between atoms: C_8  and  N_9
REMARK    5  A    between atoms: C_10  and  C_12
REMARK                            x       y       z     vdW  Elec       q    Type
REMARK                         _______ _______ _______ _____ _____    ______ ____
ROOT
ATOM      1  N   UNL     1       1.294   8.791  19.209  0.00  0.00    +0.000 N 
ATOM      2  C   UNL     1       1.295   9.968  18.480  0.00  0.00    +0.000 C 
ATOM      3  O   UNL     1       2.017  10.277  17.544  0.00  0.00    +0.000 OA
ATOM      4  H   UNL     1       0.589   8.718  19.936  0.00  0.00    +0.000 HD
ENDROOT
BRANCH   2   5
ATOM      5  C   UNL     1       0.256  10.979  18.941  0.00  0.00    +0.000 A 
ATOM      6  N   UNL     1       0.671  11.887  19.780  0.00  0.00    +0.000 NA
ATOM      7  N   UNL     1      -0.247  12.770  20.264  0.00  0.00    +0.000 N 
ATOM      8  C   UNL     1      -1.589  12.786  19.968  0.00  0.00    +0.000 A 
ATOM      9  O   UNL     1      -2.361  13.591  20.476  0.00  0.00    +0.000 OA
ATOM     10  C   UNL     1      -2.055  11.789  18.990  0.00  0.00    +0.000 A 
ATOM     11  C   UNL     1      -3.400  11.760  18.599  0.00  0.00    +0.000 A 
ATOM     12  C   UNL     1      -3.829  10.824  17.658  0.00  0.00    +0.000 A 
ATOM     13  C   UNL     1      -2.920   9.925  17.110  0.00  0.00    +0.000 A 
ATOM     14  C   UNL     1      -1.576   9.958  17.501  0.00  0.00    +0.000 A 
ATOM     15  C   UNL     1      -1.139  10.885  18.454  0.00  0.00    +0.000 A 
ATOM     16  H   UNL     1       0.077  13.435  20.960  0.00  0.00    +0.000 HD
ENDBRANCH   2   5
BRANCH   1  21
ATOM     17  C   UNL     1       5.197   5.014  17.120  0.00  0.00    +0.000 A 
ATOM     18  N   UNL     1       4.677   6.156  16.719  0.00  0.00    +0.000 NA
ATOM     19  C   UNL     1       3.822   6.492  17.731  0.00  0.00    +0.000 A 
ATOM     20  C   UNL     1       2.968   7.588  17.863  0.00  0.00    +0.000 A 
ATOM     21  C   UNL     1       2.166   7.698  19.009  0.00  0.00    +0.000 A 
ATOM     22  C   UNL     1       2.226   6.695  19.996  0.00  0.00    +0.000 A 
ATOM     23  C   UNL     1       3.091   5.588  19.885  0.00  0.00    +0.000 A 
ATOM     24  C   UNL     1       3.861   5.537  18.730  0.00  0.00    +0.000 A 
ATOM     25  O   UNL     1       4.758   4.577  18.347  0.00  0.00    +0.000 OA
BRANCH  17  27
ATOM     26  C   UNL     1       5.905   4.289  14.868  0.00  0.00    +0.000 C 
ATOM     27  C   UNL     1       6.143   4.136  16.372  0.00  0.00    +0.000 C 
ATOM     28  C   UNL     1       7.590   4.486  16.721  0.00  0.00    +0.000 C 
ENDBRANCH  17  27
ENDBRANCH   1  21
TORSDOF 3
ENDMDL
MODEL 2
REMARK VINA RESULT:      -8.3      2.248      8.823
REMARK  Name = 
REMARK  5 active torsions:
REMARK  status: ('A' for Active; 'I' for Inactive)
REMARK    1  A    between atoms: C_1  and  C_2
REMARK    2  A    between atoms: C_2  and  C_3
REMARK    3  A    between atoms: C_2  and  C_4
REMARK    4  A    between atoms: C_8  and  N_9
REMARK    5  A    between atoms: C_10  and  C_12
REMARK                            x       y       z     vdW  Elec       q    Type
REMARK                         _______ _______ _______ _____ _____    ______ ____
ROOT
ATOM      1  N   UNL     1       2.124   8.100  19.265  0.00  0.00    +0.000 N 
ATOM      2  C   UNL     1       2.662   8.064  17.989  0.00  0.00    +0.000 C 
ATOM      3  O   UNL     1       2.445   8.822  17.056  0.00  0.00    +0.000 OA
ATOM      4  H   UNL     1       2.459   7.389  19.909  0.00  0.00    +0.000 HD
ENDROOT
BRANCH   2   5
ATOM      5  C   UNL     1       3.633   6.915  17.762  0.00  0.00    +0.000 A 
ATOM      6  N   UNL     1       4.875   7.247  17.551  0.00  0.00    +0.000 NA
ATOM      7  N   UNL     1       5.761   6.248  17.279  0.00  0.00    +0.000 N 
ATOM      8  C   UNL     1       5.467   4.908  17.185  0.00  0.00    +0.000 A 
ATOM      9  O   UNL     1       6.315   4.072  16.898  0.00  0.00    +0.000 OA
ATOM     10  C   UNL     1       4.073   4.525  17.464  0.00  0.00    +0.000 A 
ATOM     11  C   UNL     1       3.694   3.176  17.430  0.00  0.00    +0.000 A 
ATOM     12  C   UNL     1       2.376   2.819  17.713  0.00  0.00    +0.000 A 
ATOM     13  C   UNL     1       1.444   3.802  18.030  0.00  0.00    +0.000 A 
ATOM     14  C   UNL     1       1.827   5.149  18.065  0.00  0.00    +0.000 A 
ATOM     15  C   UNL     1       3.144   5.517  17.769  0.00  0.00    +0.000 A 
ATOM     16  H   UNL     1       6.714   6.524  17.060  0.00  0.00    +0.000 HD
ENDBRANCH   2   5
BRANCH   1  21
ATOM     17  C   UNL     1      -1.119  11.672  22.517  0.00  0.00    +0.000 A 
ATOM     18  N   UNL     1      -0.133  10.828  22.737  0.00  0.00    +0.000 NA
ATOM     19  C   UNL     1       0.154  10.340  21.493  0.00  0.00    +0.000 A 
ATOM     20  C   UNL     1       1.094   9.389  21.092  0.00  0.00    +0.000 A 
ATOM     21  C   UNL     1       1.184   9.043  19.736  0.00  0.00    +0.000 A 
ATOM     22  C   UNL     1       0.316   9.649  18.806  0.00  0.00    +0.000 A 
ATOM     23  C   UNL     1      -0.631  10.620  19.191  0.00  0.00    +0.000 A 
ATOM     24  C   UNL     1      -0.669  10.922  20.547  0.00  0.00    +0.000 A 
ATOM     25  O   UNL     1      -1.494  11.796  21.200  0.00  0.00    +0.000 OA
BRANCH  17  27
ATOM     26  C   UNL     1      -1.385  13.886  23.579  0.00  0.00    +0.000 C 
ATOM     27  C   UNL     1      -1.895  12.445  23.531  0.00  0.00    +0.000 C 
ATOM     28  C   UNL     1      -3.388  12.418  23.198  0.00  0.00    +0.000 C 
ENDBRANCH  17  27
ENDBRANCH   1  21
TORSDOF 3
ENDMDL
MODEL 3
REMARK VINA RESULT:      -8.3      2.097      8.683
REMARK  Name = 
REMARK  5 active torsions:
REMARK  status: ('A' for Active; 'I' for Inactive)
REMARK    1  A    between atoms: C_1  and  C_2
REMARK    2  A    between atoms: C_2  and  C_3
REMARK    3  A    between atoms: C_2  and  C_4
REMARK    4  A    between atoms: C_8  and  N_9
REMARK    5  A    between atoms: C_10  and  C_12
REMARK                            x       y       z     vdW  Elec       q    Type
REMARK                         _______ _______ _______ _____ _____    ______ ____
ROOT
ATOM      1  N   UNL     1       2.220   7.766  19.557  0.00  0.00    +0.000 N 
ATOM      2  C   UNL     1       2.561   7.820  18.216  0.00  0.00    +0.000 C 
ATOM      3  O   UNL     1       2.198   8.629  17.376  0.00  0.00    +0.000 OA
ATOM      4  H   UNL     1       2.656   7.024  20.097  0.00  0.00    +0.000 HD
ENDROOT
BRANCH   2   5
ATOM      5  C   UNL     1       3.500   6.708  17.774  0.00  0.00    +0.000 A 
ATOM      6  N   UNL     1       4.681   7.082  17.367  0.00  0.00    +0.000 NA
ATOM      7  N   UNL     1       5.525   6.118  16.903  0.00  0.00    +0.000 N 
ATOM      8  C   UNL     1       5.245   4.777  16.800  0.00  0.00    +0.000 A 
ATOM      9  O   UNL     1       6.047   3.976  16.333  0.00  0.00    +0.000 OA
ATOM     10  C   UNL     1       3.928   4.345  17.296  0.00  0.00    +0.000 A 
ATOM     11  C   UNL     1       3.575   2.989  17.267  0.00  0.00    +0.000 A 
ATOM     12  C   UNL     1       2.333   2.585  17.756  0.00  0.00    +0.000 A 
ATOM     13  C   UNL     1       1.451   3.529  18.272  0.00  0.00    +0.000 A 
ATOM     14  C   UNL     1       1.808   4.883  18.302  0.00  0.00    +0.000 A 
ATOM     15  C   UNL     1       3.047   5.298  17.801  0.00  0.00    +0.000 A 
ATOM     16  H   UNL     1       6.420   6.429  16.535  0.00  0.00    +0.000 HD
ENDBRANCH   2   5
BRANCH   1  21
ATOM     17  C   UNL     1      -1.536  11.994  20.924  0.00  0.00    +0.000 A 
ATOM     18  N   UNL     1      -0.957  11.563  19.823  0.00  0.00    +0.000 NA
ATOM     19  C   UNL     1      -0.198  10.511  20.250  0.00  0.00    +0.000 A 
ATOM     20  C   UNL     1       0.661   9.671  19.539  0.00  0.00    +0.000 A 
ATOM     21  C   UNL     1       1.350   8.658  20.222  0.00  0.00    +0.000 A 
ATOM     22  C   UNL     1       1.174   8.515  21.612  0.00  0.00    +0.000 A 
ATOM     23  C   UNL     1       0.302   9.347  22.344  0.00  0.00    +0.000 A 
ATOM     24  C   UNL     1      -0.353  10.328  21.612  0.00  0.00    +0.000 A 
ATOM     25  O   UNL     1      -1.227  11.281  22.058  0.00  0.00    +0.000 OA
BRANCH  17  27
ATOM     26  C   UNL     1      -3.802  12.876  20.495  0.00  0.00    +0.000 C 
ATOM     27  C   UNL     1      -2.422  13.185  21.077  0.00  0.00    +0.000 C 
ATOM     28  C   UNL     1      -2.540  13.580  22.550  0.00  0.00    +0.000 C 
ENDBRANCH  17  27
ENDBRANCH   1  21
TORSDOF 3
ENDMDL
MODEL 4
REMARK VINA RESULT:      -8.2      6.698      9.634
REMARK  Name = 
REMARK  5 active torsions:
REMARK  status: ('A' for Active; 'I' for Inactive)
REMARK    1  A    between atoms: C_1  and  C_2
REMARK    2  A    between atoms: C_2  and  C_3
REMARK    3  A    between atoms: C_2  and  C_4
REMARK    4  A    between atoms: C_8  and  N_9
REMARK    5  A    between atoms: C_10  and  C_12
REMARK                            x       y       z     vdW  Elec       q    Type
REMARK                         _______ _______ _______ _____ _____    ______ ____
ROOT
ATOM      1  N   UNL     1       7.765   8.614  17.431  0.00  0.00    +0.000 N 
ATOM      2  C   UNL     1       7.756   7.316  17.913  0.00  0.00    +0.000 C 
ATOM      3  O   UNL     1       8.242   6.891  18.951  0.00  0.00    +0.000 OA
ATOM      4  H   UNL     1       7.276   8.766  16.554  0.00  0.00    +0.000 HD
ENDROOT
BRANCH   2   5
ATOM      5  C   UNL     1       7.050   6.324  17.001  0.00  0.00    +0.000 A 
ATOM      6  N   UNL     1       7.527   6.215  15.793  0.00  0.00    +0.000 NA
ATOM      7  N   UNL     1       6.880   5.384  14.929  0.00  0.00    +0.000 N 
ATOM      8  C   UNL     1       5.747   4.655  15.201  0.00  0.00    +0.000 A 
ATOM      9  O   UNL     1       5.199   3.958  14.355  0.00  0.00    +0.000 OA
ATOM     10  C   UNL     1       5.228   4.744  16.576  0.00  0.00    +0.000 A 
ATOM     11  C   UNL     1       4.100   4.003  16.953  0.00  0.00    +0.000 A 
ATOM     12  C   UNL     1       3.626   4.078  18.262  0.00  0.00    +0.000 A 
ATOM     13  C   UNL     1       4.276   4.887  19.189  0.00  0.00    +0.000 A 
ATOM     14  C   UNL     1       5.404   5.624  18.811  0.00  0.00    +0.000 A 
ATOM     15  C   UNL     1       5.879   5.565  17.495  0.00  0.00    +0.000 A 
ATOM     16  H   UNL     1       7.227   5.352  13.974  0.00  0.00    +0.000 HD
ENDBRANCH   2   5
BRANCH   1  21
ATOM     17  C   UNL     1       9.791  13.891  18.811  0.00  0.00    +0.000 A 
ATOM     18  N   UNL     1       9.131  13.366  17.799  0.00  0.00    +0.000 NA
ATOM     19  C   UNL     1       8.980  12.057  18.160  0.00  0.00    +0.000 A 
ATOM     20  C   UNL     1       8.381  10.996  17.477  0.00  0.00    +0.000 A 
ATOM     21  C   UNL     1       8.369   9.723  18.064  0.00  0.00    +0.000 A 
ATOM     22  C   UNL     1       8.973   9.533  19.322  0.00  0.00    +0.000 A 
ATOM     23  C   UNL     1       9.572  10.594  20.031  0.00  0.00    +0.000 A 
ATOM     24  C   UNL     1       9.549  11.831  19.399  0.00  0.00    +0.000 A 
ATOM     25  O   UNL     1      10.071  13.018  19.836  0.00  0.00    +0.000 OA
BRANCH  17  27
ATOM     26  C   UNL     1      11.632  15.278  19.696  0.00  0.00    +0.000 C 
ATOM     27  C   UNL     1      10.308  15.286  18.931  0.00  0.00    +0.000 C 
ATOM     28  C   UNL     1      10.495  15.909  17.546  0.00  0.00    +0.000 C 
ENDBRANCH  17  27
ENDBRANCH   1  21
TORSDOF 3
ENDMDL
MODEL 5
REMARK VINA RESULT:      -8.2      2.054      2.589
REMARK  Name = 
REMARK  5 active torsions:
REMARK  status: ('A' for Active; 'I' for Inactive)
REMARK    1  A    between atoms: C_1  and  C_2
REMARK    2  A    between atoms: C_2  and  C_3
REMARK    3  A    between atoms: C_2  and  C_4
REMARK    4  A    between atoms: C_8  and  N_9
REMARK    5  A    between atoms: C_10  and  C_12
REMARK                            x       y       z     vdW  Elec       q    Type
REMARK                         _______ _______ _______ _____ _____    ______ ____
ROOT
ATOM      1  N   UNL     1       2.218   7.016  19.492  0.00  0.00    +0.000 N 
ATOM      2  C   UNL     1       1.779   8.279  19.130  0.00  0.00    +0.000 C 
ATOM      3  O   UNL     1       1.872   8.829  18.043  0.00  0.00    +0.000 OA
ATOM      4  H   UNL     1       2.016   6.731  20.445  0.00  0.00    +0.000 HD
ENDROOT
BRANCH   2   5
ATOM      5  C   UNL     1       1.110   9.045  20.260  0.00  0.00    +0.000 A 
ATOM      6  N   UNL     1       1.426   8.677  21.470  0.00  0.00    +0.000 NA
ATOM      7  N   UNL     1       0.797   9.299  22.507  0.00  0.00    +0.000 N 
ATOM      8  C   UNL     1      -0.165  10.275  22.402  0.00  0.00    +0.000 A 
ATOM      9  O   UNL     1      -0.713  10.760  23.385  0.00  0.00    +0.000 OA
ATOM     10  C   UNL     1      -0.495  10.723  21.039  0.00  0.00    +0.000 A 
ATOM     11  C   UNL     1      -1.436  11.743  20.841  0.00  0.00    +0.000 A 
ATOM     12  C   UNL     1      -1.730  12.175  19.549  0.00  0.00    +0.000 A 
ATOM     13  C   UNL     1      -1.086  11.593  18.460  0.00  0.00    +0.000 A 
ATOM     14  C   UNL     1      -0.145  10.575  18.661  0.00  0.00    +0.000 A 
ATOM     15  C   UNL     1       0.146  10.127  19.955  0.00  0.00    +0.000 A 
ATOM     16  H   UNL     1       1.010   8.963  23.442  0.00  0.00    +0.000 HD
ENDBRANCH   2   5
BRANCH   1  21
ATOM     17  C   UNL     1       5.627   4.504  15.500  0.00  0.00    +0.000 A 
ATOM     18  N   UNL     1       5.403   5.735  15.914  0.00  0.00    +0.000 NA
ATOM     19  C   UNL     1       4.474   5.576  16.903  0.00  0.00    +0.000 A 
ATOM     20  C   UNL     1       3.831   6.528  17.698  0.00  0.00    +0.000 A 
ATOM     21  C   UNL     1       2.890   6.104  18.647  0.00  0.00    +0.000 A 
ATOM     22  C   UNL     1       2.599   4.732  18.772  0.00  0.00    +0.000 A 
ATOM     23  C   UNL     1       3.247   3.757  17.987  0.00  0.00    +0.000 A 
ATOM     24  C   UNL     1       4.170   4.238  17.067  0.00  0.00    +0.000 A 
ATOM     25  O   UNL     1       4.920   3.531  16.167  0.00  0.00    +0.000 OA
BRANCH  17  27
ATOM     26  C   UNL     1       5.631   3.633  13.190  0.00  0.00    +0.000 C 
ATOM     27  C   UNL     1       6.499   4.072  14.370  0.00  0.00    +0.000 C 
ATOM     28  C   UNL     1       7.434   5.208  13.950  0.00  0.00    +0.000 C 
ENDBRANCH  17  27
ENDBRANCH   1  21
TORSDOF 3
ENDMDL
MODEL 6
REMARK VINA RESULT:      -8.2      2.169      8.729
REMARK  Name = 
REMARK  5 active torsions:
REMARK  status: ('A' for Active; 'I' for Inactive)
REMARK    1  A    between atoms: C_1  and  C_2
REMARK    2  A    between atoms: C_2  and  C_3
REMARK    3  A    between atoms: C_2  and  C_4
REMARK    4  A    between atoms: C_8  and  N_9
REMARK    5  A    between atoms: C_10  and  C_12
REMARK                            x       y       z     vdW  Elec       q    Type
REMARK                         _______ _______ _______ _____ _____    ______ ____
ROOT
ATOM      1  N   UNL     1       1.899   8.558  17.742  0.00  0.00    +0.000 N 
ATOM      2  C   UNL     1       2.389   7.634  18.650  0.00  0.00    +0.000 C 
ATOM      3  O   UNL     1       2.253   7.623  19.864  0.00  0.00    +0.000 OA
ATOM      4  H   UNL     1       2.100   8.371  16.764  0.00  0.00    +0.000 HD
ENDROOT
BRANCH   2   5
ATOM      5  C   UNL     1       3.199   6.515  18.013  0.00  0.00    +0.000 A 
ATOM      6  N   UNL     1       4.281   6.876  17.383  0.00  0.00    +0.000 NA
ATOM      7  N   UNL     1       4.997   5.907  16.747  0.00  0.00    +0.000 N 
ATOM      8  C   UNL     1       4.676   4.572  16.684  0.00  0.00    +0.000 A 
ATOM      9  O   UNL     1       5.353   3.766  16.056  0.00  0.00    +0.000 OA
ATOM     10  C   UNL     1       3.477   4.153  17.428  0.00  0.00    +0.000 A 
ATOM     11  C   UNL     1       3.099   2.804  17.453  0.00  0.00    +0.000 A 
ATOM     12  C   UNL     1       1.973   2.412  18.176  0.00  0.00    +0.000 A 
ATOM     13  C   UNL     1       1.230   3.362  18.871  0.00  0.00    +0.000 A 
ATOM     14  C   UNL     1       1.612   4.709  18.846  0.00  0.00    +0.000 A 
ATOM     15  C   UNL     1       2.733   5.113  18.113  0.00  0.00    +0.000 A 
ATOM     16  H   UNL     1       5.806   6.210  16.212  0.00  0.00    +0.000 HD
ENDBRANCH   2   5
BRANCH   1  21
ATOM     17  C   UNL     1       0.108  13.858  19.342  0.00  0.00    +0.000 A 
ATOM     18  N   UNL     1       1.269  13.250  19.219  0.00  0.00    +0.000 NA
ATOM     19  C   UNL     1       0.931  12.001  18.778  0.00  0.00    +0.000 A 
ATOM     20  C   UNL     1       1.737  10.897  18.491  0.00  0.00    +0.000 A 
ATOM     21  C   UNL     1       1.138   9.704  18.063  0.00  0.00    +0.000 A 
ATOM     22  C   UNL     1      -0.264   9.636  17.943  0.00  0.00    +0.000 A 
ATOM     23  C   UNL     1      -1.092  10.744  18.216  0.00  0.00    +0.000 A 
ATOM     24  C   UNL     1      -0.439  11.897  18.634  0.00  0.00    +0.000 A 
ATOM     25  O   UNL     1      -0.984  13.100  18.989  0.00  0.00    +0.000 OA
BRANCH  17  27
ATOM     26  C   UNL     1       1.062  15.699  20.683  0.00  0.00    +0.000 C 
ATOM     27  C   UNL     1      -0.146  15.231  19.869  0.00  0.00    +0.000 C 
ATOM     28  C   UNL     1      -0.425  16.203  18.722  0.00  0.00    +0.000 C 
ENDBRANCH  17  27
ENDBRANCH   1  21
TORSDOF 3
ENDMDL
MODEL 7
REMARK VINA RESULT:      -8.2      2.290      2.731
REMARK  Name = 
REMARK  5 active torsions:
REMARK  status: ('A' for Active; 'I' for Inactive)
REMARK    1  A    between atoms: C_1  and  C_2
REMARK    2  A    between atoms: C_2  and  C_3
REMARK    3  A    between atoms: C_2  and  C_4
REMARK    4  A    between atoms: C_8  and  N_9
REMARK    5  A    between atoms: C_10  and  C_12
REMARK                            x       y       z     vdW  Elec       q    Type
REMARK                         _______ _______ _______ _____ _____    ______ ____
ROOT
ATOM      1  N   UNL     1       2.399   8.458  18.878  0.00  0.00    +0.000 N 
ATOM      2  C   UNL     1       1.363   9.228  18.374  0.00  0.00    +0.000 C 
ATOM      3  O   UNL     1       0.761   9.087  17.320  0.00  0.00    +0.000 OA
ATOM      4  H   UNL     1       2.747   8.727  19.794  0.00  0.00    +0.000 HD
ENDROOT
BRANCH   2   5
ATOM      5  C   UNL     1       0.963  10.387  19.273  0.00  0.00    +0.000 A 
ATOM      6  N   UNL     1       1.203  11.582  18.810  0.00  0.00    +0.000 NA
ATOM      7  N   UNL     1       0.917  12.643  19.615  0.00  0.00    +0.000 N 
ATOM      8  C   UNL     1       0.413  12.578  20.892  0.00  0.00    +0.000 A 
ATOM      9  O   UNL     1       0.218  13.581  21.570  0.00  0.00    +0.000 OA
ATOM     10  C   UNL     1       0.102  11.233  21.404  0.00  0.00    +0.000 A 
ATOM     11  C   UNL     1      -0.454  11.076  22.681  0.00  0.00    +0.000 A 
ATOM     12  C   UNL     1      -0.763   9.801  23.151  0.00  0.00    +0.000 A 
ATOM     13  C   UNL     1      -0.520   8.689  22.350  0.00  0.00    +0.000 A 
ATOM     14  C   UNL     1       0.033   8.849  21.073  0.00  0.00    +0.000 A 
ATOM     15  C   UNL     1       0.358  10.125  20.599  0.00  0.00    +0.000 A 
ATOM     16  H   UNL     1       1.162  13.565  19.265  0.00  0.00    +0.000 HD
ENDBRANCH   2   5
BRANCH   1  21
ATOM     17  C   UNL     1       5.568   4.901  15.538  0.00  0.00    +0.000 A 
ATOM     18  N   UNL     1       5.472   6.203  15.708  0.00  0.00    +0.000 NA
ATOM     19  C   UNL     1       4.520   6.331  16.678  0.00  0.00    +0.000 A 
ATOM     20  C   UNL     1       3.973   7.477  17.261  0.00  0.00    +0.000 A 
ATOM     21  C   UNL     1       2.979   7.340  18.241  0.00  0.00    +0.000 A 
ATOM     22  C   UNL     1       2.542   6.053  18.610  0.00  0.00    +0.000 A 
ATOM     23  C   UNL     1       3.091   4.885  18.042  0.00  0.00    +0.000 A 
ATOM     24  C   UNL     1       4.072   5.086  17.079  0.00  0.00    +0.000 A 
ATOM     25  O   UNL     1       4.753   4.149  16.352  0.00  0.00    +0.000 OA
BRANCH  17  27
ATOM     26  C   UNL     1       5.517   3.681  13.392  0.00  0.00    +0.000 C 
ATOM     27  C   UNL     1       6.403   4.175  14.537  0.00  0.00    +0.000 C 
ATOM     28  C   UNL     1       7.509   5.086  14.001  0.00  0.00    +0.000 C 
ENDBRANCH  17  27
ENDBRANCH   1  21
TORSDOF 3
ENDMDL
MODEL 8
REMARK VINA RESULT:      -8.1      1.910      8.867
REMARK  Name = 
REMARK  5 active torsions:
REMARK  status: ('A' for Active; 'I' for Inactive)
REMARK    1  A    between atoms: C_1  and  C_2
REMARK    2  A    between atoms: C_2  and  C_3
REMARK    3  A    between atoms: C_2  and  C_4
REMARK    4  A    between atoms: C_8  and  N_9
REMARK    5  A    between atoms: C_10  and  C_12
REMARK                            x       y       z     vdW  Elec       q    Type
REMARK                         _______ _______ _______ _____ _____    ______ ____
ROOT
ATOM      1  N   UNL     1       1.753   8.624  17.724  0.00  0.00    +0.000 N 
ATOM      2  C   UNL     1       2.331   7.732  18.611  0.00  0.00    +0.000 C 
ATOM      3  O   UNL     1       2.106   7.601  19.805  0.00  0.00    +0.000 OA
ATOM      4  H   UNL     1       2.060   8.553  16.758  0.00  0.00    +0.000 HD
ENDROOT
BRANCH   2   5
ATOM      5  C   UNL     1       3.378   6.827  17.981  0.00  0.00    +0.000 A 
ATOM      6  N   UNL     1       4.463   7.412  17.556  0.00  0.00    +0.000 NA
ATOM      7  N   UNL     1       5.395   6.641  16.928  0.00  0.00    +0.000 N 
ATOM      8  C   UNL     1       5.295   5.294  16.676  0.00  0.00    +0.000 A 
ATOM      9  O   UNL     1       6.161   4.677  16.068  0.00  0.00    +0.000 OA
ATOM     10  C   UNL     1       4.090   4.621  17.190  0.00  0.00    +0.000 A 
ATOM     11  C   UNL     1       3.925   3.241  17.013  0.00  0.00    +0.000 A 
ATOM     12  C   UNL     1       2.791   2.608  17.519  0.00  0.00    +0.000 A 
ATOM     13  C   UNL     1       1.828   3.348  18.199  0.00  0.00    +0.000 A 
ATOM     14  C   UNL     1       1.997   4.727  18.375  0.00  0.00    +0.000 A 
ATOM     15  C   UNL     1       3.127   5.373  17.859  0.00  0.00    +0.000 A 
ATOM     16  H   UNL     1       6.208   7.119  16.551  0.00  0.00    +0.000 HD
ENDBRANCH   2   5
BRANCH   1  21
ATOM     17  C   UNL     1      -3.200  11.587  18.464  0.00  0.00    +0.000 A 
ATOM     18  N   UNL     1      -2.864  10.416  17.964  0.00  0.00    +0.000 NA
ATOM     19  C   UNL     1      -1.509  10.372  18.133  0.00  0.00    +0.000 A 
ATOM     20  C   UNL     1      -0.587   9.386  17.774  0.00  0.00    +0.000 A 
ATOM     21  C   UNL     1       0.774   9.589  18.047  0.00  0.00    +0.000 A 
ATOM     22  C   UNL     1       1.187  10.786  18.664  0.00  0.00    +0.000 A 
ATOM     23  C   UNL     1       0.269  11.786  19.044  0.00  0.00    +0.000 A 
ATOM     24  C   UNL     1      -1.064  11.526  18.750  0.00  0.00    +0.000 A 
ATOM     25  O   UNL     1      -2.155  12.319  18.978  0.00  0.00    +0.000 OA
BRANCH  17  27
ATOM     26  C   UNL     1      -5.595  11.194  18.011  0.00  0.00    +0.000 C 
ATOM     27  C   UNL     1      -4.554  12.213  18.476  0.00  0.00    +0.000 C 
ATOM     28  C   UNL     1      -4.896  12.724  19.877  0.00  0.00    +0.000 C 
ENDBRANCH  17  27
ENDBRANCH   1  21
TORSDOF 3
ENDMDL
MODEL 9
REMARK VINA RESULT:      -8.1      2.442      8.639
REMARK  Name = 
REMARK  5 active torsions:
REMARK  status: ('A' for Active; 'I' for Inactive)
REMARK    1  A    between atoms: C_1  and  C_2
REMARK    2  A    between atoms: C_2  and  C_3
REMARK    3  A    between atoms: C_2  and  C_4
REMARK    4  A    between atoms: C_8  and  N_9
REMARK    5  A    between atoms: C_10  and  C_12
REMARK                            x       y       z     vdW  Elec       q    Type
REMARK                         _______ _______ _______ _____ _____    ______ ____
ROOT
ATOM      1  N   UNL     1       1.846   8.705  18.106  0.00  0.00    +0.000 N 
ATOM      2  C   UNL     1       2.150   7.788  19.099  0.00  0.00    +0.000 C 
ATOM      3  O   UNL     1       1.964   7.887  20.302  0.00  0.00    +0.000 OA
ATOM      4  H   UNL     1       2.056   8.418  17.155  0.00  0.00    +0.000 HD
ENDROOT
BRANCH   2   5
ATOM      5  C   UNL     1       2.803   6.515  18.582  0.00  0.00    +0.000 A 
ATOM      6  N   UNL     1       3.737   6.672  17.687  0.00  0.00    +0.000 NA
ATOM      7  N   UNL     1       4.299   5.550  17.155  0.00  0.00    +0.000 N 
ATOM      8  C   UNL     1       3.961   4.253  17.457  0.00  0.00    +0.000 A 
ATOM      9  O   UNL     1       4.487   3.294  16.905  0.00  0.00    +0.000 OA
ATOM     10  C   UNL     1       2.935   4.071  18.497  0.00  0.00    +0.000 A 
ATOM     11  C   UNL     1       2.557   2.782  18.897  0.00  0.00    +0.000 A 
ATOM     12  C   UNL     1       1.599   2.618  19.896  0.00  0.00    +0.000 A 
ATOM     13  C   UNL     1       1.022   3.735  20.493  0.00  0.00    +0.000 A 
ATOM     14  C   UNL     1       1.403   5.022  20.093  0.00  0.00    +0.000 A 
ATOM     15  C   UNL     1       2.355   5.195  19.082  0.00  0.00    +0.000 A 
ATOM     16  H   UNL     1       4.985   5.685  16.417  0.00  0.00    +0.000 HD
ENDBRANCH   2   5
BRANCH   1  21
ATOM     17  C   UNL     1       0.839  14.389  18.841  0.00  0.00    +0.000 A 
ATOM     18  N   UNL     1       1.900  13.635  18.641  0.00  0.00    +0.000 NA
ATOM     19  C   UNL     1       1.383  12.374  18.545  0.00  0.00    +0.000 A 
ATOM     20  C   UNL     1       2.025  11.147  18.358  0.00  0.00    +0.000 A 
ATOM     21  C   UNL     1       1.259   9.974  18.310  0.00  0.00    +0.000 A 
ATOM     22  C   UNL     1      -0.139  10.050  18.465  0.00  0.00    +0.000 A 
ATOM     23  C   UNL     1      -0.805  11.280  18.643  0.00  0.00    +0.000 A 
ATOM     24  C   UNL     1       0.008  12.407  18.679  0.00  0.00    +0.000 A 
ATOM     25  O   UNL     1      -0.357  13.712  18.863  0.00  0.00    +0.000 OA
BRANCH  17  27
ATOM     26  C   UNL     1       2.073  16.507  18.540  0.00  0.00    +0.000 C 
ATOM     27  C   UNL     1       0.807  15.858  19.102  0.00  0.00    +0.000 C 
ATOM     28  C   UNL     1      -0.438  16.486  18.474  0.00  0.00    +0.000 C 
ENDBRANCH  17  27
ENDBRANCH   1  21
TORSDOF 3
ENDMDL
