MODEL 1
REMARK VINA RESULT:      -8.2      0.000      0.000
REMARK  Name = 
REMARK  6 active torsions:
REMARK  status: ('A' for Active; 'I' for Inactive)
REMARK    1  A    between atoms: C_1  and  C_2
REMARK    2  A    between atoms: C_4  and  C_5
REMARK    3  A    between atoms: N_6  and  C_7
REMARK    4  A    between atoms: C_12  and  N_13
REMARK    5  A    between atoms: N_16  and  C_17
REMARK    6  A    between atoms: C_21  and  C_22
REMARK                            x       y       z     vdW  Elec       q    Type
REMARK                         _______ _______ _______ _____ _____    ______ ____
ROOT
ATOM      1  N   UNL     1       2.477   6.492  18.632  0.00  0.00    +0.000 N 
ATOM      2  C   UNL     1       1.934   6.980  19.813  0.00  0.00    +0.000 C 
ATOM      3  O   UNL     1       1.718   6.286  20.800  0.00  0.00    +0.000 OA
ATOM      4  N   UNL     1       1.629   8.330  19.751  0.00  0.00    +0.000 N 
ATOM      5  H   UNL     1       3.074   7.127  18.106  0.00  0.00    +0.000 HD
ATOM      6  H   UNL     1       1.838   8.858  18.910  0.00  0.00    +0.000 HD
ENDROOT
BRANCH   1  12
ATOM      7  C   UNL     1       3.882   4.579  17.895  0.00  0.00    +0.000 A 
ATOM      8  C   UNL     1       3.970   3.210  17.566  0.00  0.00    +0.000 A 
ATOM      9  C   UNL     1       2.859   2.370  17.637  0.00  0.00    +0.000 A 
ATOM     10  C   UNL     1       1.639   2.886  18.034  0.00  0.00    +0.000 A 
ATOM     11  C   UNL     1       1.532   4.240  18.353  0.00  0.00    +0.000 A 
ATOM     12  C   UNL     1       2.639   5.109  18.316  0.00  0.00    +0.000 A 
BRANCH   7  18
ATOM     13  C   UNL     1       8.180   5.743  19.614  0.00  0.00    +0.000 C 
ATOM     14  C   UNL     1       7.036   5.788  18.672  0.00  0.00    +0.000 A 
ATOM     15  C   UNL     1       7.060   6.158  17.315  0.00  0.00    +0.000 A 
ATOM     16  C   UNL     1       5.774   5.953  16.859  0.00  0.00    +0.000 A 
ATOM     17  C   UNL     1       5.202   6.324  15.538  0.00  0.00    +0.000 C 
ATOM     18  N   UNL     1       5.087   5.347  17.911  0.00  0.00    +0.000 N 
ATOM     19  N   UNL     1       5.802   5.463  19.071  0.00  0.00    +0.000 NA
ENDBRANCH   7  18
ENDBRANCH   1  12
BRANCH   4  20
ATOM     20  C   UNL     1       1.003   9.035  20.780  0.00  0.00    +0.000 A 
ATOM     21  C   UNL     1       1.285   8.986  22.127  0.00  0.00    +0.000 A 
ATOM     22  N   UNL     1       0.430   9.846  22.742  0.00  0.00    +0.000 N 
ATOM     23  N   UNL     1      -0.405  10.467  21.898  0.00  0.00    +0.000 NA
ATOM     24  C   UNL     1      -0.076   9.968  20.693  0.00  0.00    +0.000 A 
ATOM     25  H   UNL     1       0.366  10.056  23.733  0.00  0.00    +0.000 HD
BRANCH  24  26
ATOM     26  C   UNL     1      -0.782  10.381  19.426  0.00  0.00    +0.000 A 
ATOM     27  N   UNL     1      -0.669   9.694  18.303  0.00  0.00    +0.000 NA
ATOM     28  C   UNL     1      -1.438  10.289  17.321  0.00  0.00    +0.000 A 
ATOM     29  C   UNL     1      -2.101  11.437  17.691  0.00  0.00    +0.000 A 
ATOM     30  S   UNL     1      -1.789  11.777  19.338  0.00  0.00    +0.000 S 
ENDBRANCH  24  26
ENDBRANCH   4  20
TORSDOF 4
ENDMDL
MODEL 2
REMARK VINA RESULT:      -8.1      1.706      2.611
REMARK  Name = 
REMARK  6 active torsions:
REMARK  status: ('A' for Active; 'I' for Inactive)
REMARK    1  A    between atoms: C_1  and  C_2
REMARK    2  A    between atoms: C_4  and  C_5
REMARK    3  A    between atoms: N_6  and  C_7
REMARK    4  A    between atoms: C_12  and  N_13
REMARK    5  A    between atoms: N_16  and  C_17
REMARK    6  A    between atoms: C_21  and  C_22
REMARK                            x       y       z     vdW  Elec       q    Type
REMARK                         _______ _______ _______ _____ _____    ______ ____
ROOT
ATOM      1  N   UNL     1       2.622   5.462  19.922  0.00  0.00    +0.000 N 
ATOM      2  C   UNL     1       2.113   6.491  19.142  0.00  0.00    +0.000 C 
ATOM      3  O   UNL     1       1.668   6.332  18.011  0.00  0.00    +0.000 OA
ATOM      4  N   UNL     1       2.191   7.728  19.761  0.00  0.00    +0.000 N 
ATOM      5  H   UNL     1       2.485   5.540  20.928  0.00  0.00    +0.000 HD
ATOM      6  H   UNL     1       2.562   7.801  20.703  0.00  0.00    +0.000 HD
ENDROOT
BRANCH   1  12
ATOM      7  C   UNL     1       4.106   3.851  18.748  0.00  0.00    +0.000 A 
ATOM      8  C   UNL     1       4.321   2.537  18.279  0.00  0.00    +0.000 A 
ATOM      9  C   UNL     1       3.382   1.527  18.485  0.00  0.00    +0.000 A 
ATOM     10  C   UNL     1       2.209   1.814  19.159  0.00  0.00    +0.000 A 
ATOM     11  C   UNL     1       1.975   3.110  19.620  0.00  0.00    +0.000 A 
ATOM     12  C   UNL     1       2.913   4.146  19.452  0.00  0.00    +0.000 A 
BRANCH   7  18
ATOM     13  C   UNL     1       8.313   5.768  19.932  0.00  0.00    +0.000 C 
ATOM     14  C   UNL     1       7.085   5.583  19.124  0.00  0.00    +0.000 A 
ATOM     15  C   UNL     1       6.904   5.881  17.761  0.00  0.00    +0.000 A 
ATOM     16  C   UNL     1       5.629   5.451  17.460  0.00  0.00    +0.000 A 
ATOM     17  C   UNL     1       4.867   5.659  16.200  0.00  0.00    +0.000 C 
ATOM     18  N   UNL     1       5.165   4.799  18.602  0.00  0.00    +0.000 N 
ATOM     19  N   UNL     1       5.969   5.087  19.670  0.00  0.00    +0.000 NA
ENDBRANCH   7  18
ENDBRANCH   1  12
BRANCH   4  20
ATOM     20  C   UNL     1       1.818   8.928  19.153  0.00  0.00    +0.000 A 
ATOM     21  C   UNL     1       2.156   9.375  17.895  0.00  0.00    +0.000 A 
ATOM     22  N   UNL     1       1.558  10.585  17.731  0.00  0.00    +0.000 N 
ATOM     23  N   UNL     1       0.844  10.979  18.794  0.00  0.00    +0.000 NA
ATOM     24  C   UNL     1       1.007   9.980  19.680  0.00  0.00    +0.000 A 
ATOM     25  H   UNL     1       1.597  11.193  16.918  0.00  0.00    +0.000 HD
BRANCH  24  26
ATOM     26  C   UNL     1       0.381  10.004  21.052  0.00  0.00    +0.000 A 
ATOM     27  N   UNL     1       0.544   9.019  21.916  0.00  0.00    +0.000 NA
ATOM     28  C   UNL     1      -0.122   9.322  23.089  0.00  0.00    +0.000 A 
ATOM     29  C   UNL     1      -0.811  10.513  23.098  0.00  0.00    +0.000 A 
ATOM     30  S   UNL     1      -0.596  11.314  21.602  0.00  0.00    +0.000 S 
ENDBRANCH  24  26
ENDBRANCH   4  20
TORSDOF 4
ENDMDL
MODEL 3
REMARK VINA RESULT:      -7.9      1.629      1.749
REMARK  Name = 
REMARK  6 active torsions:
REMARK  status: ('A' for Active; 'I' for Inactive)
REMARK    1  A    between atoms: C_1  and  C_2
REMARK    2  A    between atoms: C_4  and  C_5
REMARK    3  A    between atoms: N_6  and  C_7
REMARK    4  A    between atoms: C_12  and  N_13
REMARK    5  A    between atoms: N_16  and  C_17
REMARK    6  A    between atoms: C_21  and  C_22
REMARK                            x       y       z     vdW  Elec       q    Type
REMARK                         _______ _______ _______ _____ _____    ______ ____
ROOT
ATOM      1  N   UNL     1       2.478   6.602  18.674  0.00  0.00    +0.000 N 
ATOM      2  C   UNL     1       1.906   7.105  19.834  0.00  0.00    +0.000 C 
ATOM      3  O   UNL     1       1.649   6.420  20.819  0.00  0.00    +0.000 OA
ATOM      4  N   UNL     1       1.621   8.458  19.755  0.00  0.00    +0.000 N 
ATOM      5  H   UNL     1       3.100   7.226  18.163  0.00  0.00    +0.000 HD
ATOM      6  H   UNL     1       1.863   8.978  18.917  0.00  0.00    +0.000 HD
ENDROOT
BRANCH   1  12
ATOM      7  C   UNL     1       3.876   4.669  17.974  0.00  0.00    +0.000 A 
ATOM      8  C   UNL     1       3.955   3.297  17.657  0.00  0.00    +0.000 A 
ATOM      9  C   UNL     1       2.835   2.468  17.719  0.00  0.00    +0.000 A 
ATOM     10  C   UNL     1       1.614   2.999  18.094  0.00  0.00    +0.000 A 
ATOM     11  C   UNL     1       1.515   4.357  18.399  0.00  0.00    +0.000 A 
ATOM     12  C   UNL     1       2.631   5.215  18.372  0.00  0.00    +0.000 A 
BRANCH   7  18
ATOM     13  C   UNL     1       8.208   5.730  19.671  0.00  0.00    +0.000 C 
ATOM     14  C   UNL     1       7.051   5.821  18.749  0.00  0.00    +0.000 A 
ATOM     15  C   UNL     1       7.058   6.243  17.407  0.00  0.00    +0.000 A 
ATOM     16  C   UNL     1       5.765   6.066  16.963  0.00  0.00    +0.000 A 
ATOM     17  C   UNL     1       5.176   6.493  15.666  0.00  0.00    +0.000 C 
ATOM     18  N   UNL     1       5.088   5.426  18.001  0.00  0.00    +0.000 N 
ATOM     19  N   UNL     1       5.820   5.491  19.154  0.00  0.00    +0.000 NA
ENDBRANCH   7  18
ENDBRANCH   1  12
BRANCH   4  20
ATOM     20  C   UNL     1       0.972   9.178  20.759  0.00  0.00    +0.000 A 
ATOM     21  C   UNL     1       0.265   8.679  21.830  0.00  0.00    +0.000 A 
ATOM     22  N   UNL     1      -0.177   9.747  22.546  0.00  0.00    +0.000 N 
ATOM     23  N   UNL     1       0.186  10.928  22.026  0.00  0.00    +0.000 NA
ATOM     24  C   UNL     1       0.878  10.595  20.921  0.00  0.00    +0.000 A 
ATOM     25  H   UNL     1      -0.729   9.740  23.397  0.00  0.00    +0.000 HD
BRANCH  24  26
ATOM     26  C   UNL     1       1.475  11.627  19.998  0.00  0.00    +0.000 A 
ATOM     27  N   UNL     1       1.662  11.395  18.712  0.00  0.00    +0.000 NA
ATOM     28  C   UNL     1       2.200  12.520  18.115  0.00  0.00    +0.000 A 
ATOM     29  C   UNL     1       2.449  13.583  18.952  0.00  0.00    +0.000 A 
ATOM     30  S   UNL     1       1.962  13.188  20.544  0.00  0.00    +0.000 S 
ENDBRANCH  24  26
ENDBRANCH   4  20
TORSDOF 4
ENDMDL
MODEL 4
REMARK VINA RESULT:      -7.8      1.974      2.226
REMARK  Name = 
REMARK  6 active torsions:
REMARK  status: ('A' for Active; 'I' for Inactive)
REMARK    1  A    between atoms: C_1  and  C_2
REMARK    2  A    between atoms: C_4  and  C_5
REMARK    3  A    between atoms: N_6  and  C_7
REMARK    4  A    between atoms: C_12  and  N_13
REMARK    5  A    between atoms: N_16  and  C_17
REMARK    6  A    between atoms: C_21  and  C_22
REMARK                            x       y       z     vdW  Elec       q    Type
REMARK                         _______ _______ _______ _____ _____    ______ ____
ROOT
ATOM      1  N   UNL     1       2.208   6.514  20.768  0.00  0.00    +0.000 N 
ATOM      2  C   UNL     1       1.172   7.330  21.203  0.00  0.00    +0.000 C 
ATOM      3  O   UNL     1      -0.006   6.993  21.203  0.00  0.00    +0.000 OA
ATOM      4  N   UNL     1       1.604   8.583  21.608  0.00  0.00    +0.000 N 
ATOM      5  H   UNL     1       3.102   6.617  21.244  0.00  0.00    +0.000 HD
ATOM      6  H   UNL     1       2.594   8.805  21.595  0.00  0.00    +0.000 HD
ENDROOT
BRANCH   1  12
ATOM      7  C   UNL     1       2.833   4.961  18.931  0.00  0.00    +0.000 A 
ATOM      8  C   UNL     1       2.595   3.748  18.250  0.00  0.00    +0.000 A 
ATOM      9  C   UNL     1       1.590   2.870  18.654  0.00  0.00    +0.000 A 
ATOM     10  C   UNL     1       0.802   3.191  19.745  0.00  0.00    +0.000 A 
ATOM     11  C   UNL     1       1.016   4.392  20.423  0.00  0.00    +0.000 A 
ATOM     12  C   UNL     1       2.038   5.288  20.057  0.00  0.00    +0.000 A 
BRANCH   7  18
ATOM     13  C   UNL     1       7.429   5.587  17.806  0.00  0.00    +0.000 C 
ATOM     14  C   UNL     1       6.006   5.969  17.968  0.00  0.00    +0.000 A 
ATOM     15  C   UNL     1       5.309   6.981  17.282  0.00  0.00    +0.000 A 
ATOM     16  C   UNL     1       4.005   6.885  17.721  0.00  0.00    +0.000 A 
ATOM     17  C   UNL     1       2.874   7.808  17.436  0.00  0.00    +0.000 C 
ATOM     18  N   UNL     1       3.955   5.750  18.529  0.00  0.00    +0.000 N 
ATOM     19  N   UNL     1       5.220   5.342  18.849  0.00  0.00    +0.000 NA
ENDBRANCH   7  18
ENDBRANCH   1  12
BRANCH   4  20
ATOM     20  C   UNL     1       0.749   9.609  22.012  0.00  0.00    +0.000 A 
ATOM     21  C   UNL     1      -0.098   9.620  23.098  0.00  0.00    +0.000 A 
ATOM     22  N   UNL     1      -0.723  10.828  23.100  0.00  0.00    +0.000 N 
ATOM     23  N   UNL     1      -0.352  11.625  22.089  0.00  0.00    +0.000 NA
ATOM     24  C   UNL     1       0.538  10.885  21.405  0.00  0.00    +0.000 A 
ATOM     25  H   UNL     1      -1.411  11.170  23.763  0.00  0.00    +0.000 HD
BRANCH  24  26
ATOM     26  C   UNL     1       1.217  11.387  20.155  0.00  0.00    +0.000 A 
ATOM     27  N   UNL     1       1.392  10.620  19.094  0.00  0.00    +0.000 NA
ATOM     28  C   UNL     1       2.018  11.348  18.099  0.00  0.00    +0.000 A 
ATOM     29  C   UNL     1       2.343  12.646  18.419  0.00  0.00    +0.000 A 
ATOM     30  S   UNL     1       1.819  12.996  20.009  0.00  0.00    +0.000 S 
ENDBRANCH  24  26
ENDBRANCH   4  20
TORSDOF 4
ENDMDL
MODEL 5
REMARK VINA RESULT:      -7.4      1.099      1.143
REMARK  Name = 
REMARK  6 active torsions:
REMARK  status: ('A' for Active; 'I' for Inactive)
REMARK    1  A    between atoms: C_1  and  C_2
REMARK    2  A    between atoms: C_4  and  C_5
REMARK    3  A    between atoms: N_6  and  C_7
REMARK    4  A    between atoms: C_12  and  N_13
REMARK    5  A    between atoms: N_16  and  C_17
REMARK    6  A    between atoms: C_21  and  C_22
REMARK                            x       y       z     vdW  Elec       q    Type
REMARK                         _______ _______ _______ _____ _____    ______ ____
ROOT
ATOM      1  N   UNL     1       2.453   6.713  18.759  0.00  0.00    +0.000 N 
ATOM      2  C   UNL     1       1.942   7.117  19.985  0.00  0.00    +0.000 C 
ATOM      3  O   UNL     1       1.716   6.351  20.914  0.00  0.00    +0.000 OA
ATOM      4  N   UNL     1       1.681   8.477  20.040  0.00  0.00    +0.000 N 
ATOM      5  H   UNL     1       3.064   7.370  18.279  0.00  0.00    +0.000 HD
ATOM      6  H   UNL     1       1.896   9.067  19.243  0.00  0.00    +0.000 HD
ENDROOT
BRANCH   1  12
ATOM      7  C   UNL     1       3.779   4.831  17.823  0.00  0.00    +0.000 A 
ATOM      8  C   UNL     1       3.817   3.491  17.381  0.00  0.00    +0.000 A 
ATOM      9  C   UNL     1       2.685   2.678  17.421  0.00  0.00    +0.000 A 
ATOM     10  C   UNL     1       1.494   3.191  17.900  0.00  0.00    +0.000 A 
ATOM     11  C   UNL     1       1.435   4.517  18.330  0.00  0.00    +0.000 A 
ATOM     12  C   UNL     1       2.565   5.357  18.327  0.00  0.00    +0.000 A 
BRANCH   7  18
ATOM     13  C   UNL     1       8.132   5.782  19.532  0.00  0.00    +0.000 C 
ATOM     14  C   UNL     1       6.977   5.909  18.613  0.00  0.00    +0.000 A 
ATOM     15  C   UNL     1       6.991   6.350  17.277  0.00  0.00    +0.000 A 
ATOM     16  C   UNL     1       5.694   6.205  16.831  0.00  0.00    +0.000 A 
ATOM     17  C   UNL     1       5.114   6.662  15.541  0.00  0.00    +0.000 C 
ATOM     18  N   UNL     1       5.006   5.563  17.860  0.00  0.00    +0.000 N 
ATOM     19  N   UNL     1       5.740   5.597  19.013  0.00  0.00    +0.000 NA
ENDBRANCH   7  18
ENDBRANCH   1  12
BRANCH   4  20
ATOM     20  C   UNL     1       1.091   9.113  21.134  0.00  0.00    +0.000 A 
ATOM     21  C   UNL     1       0.996   8.649  22.427  0.00  0.00    +0.000 A 
ATOM     22  N   UNL     1       0.354   9.608  23.145  0.00  0.00    +0.000 N 
ATOM     23  N   UNL     1       0.012  10.682  22.421  0.00  0.00    +0.000 NA
ATOM     24  C   UNL     1       0.444  10.386  21.182  0.00  0.00    +0.000 A 
ATOM     25  H   UNL     1       0.119   9.592  24.133  0.00  0.00    +0.000 HD
BRANCH  24  26
ATOM     26  C   UNL     1       0.255  11.321  20.014  0.00  0.00    +0.000 A 
ATOM     27  N   UNL     1      -0.873  11.372  19.330  0.00  0.00    +0.000 NA
ATOM     28  C   UNL     1      -0.767  12.329  18.337  0.00  0.00    +0.000 A 
ATOM     29  C   UNL     1       0.447  12.972  18.252  0.00  0.00    +0.000 A 
ATOM     30  S   UNL     1       1.492  12.396  19.477  0.00  0.00    +0.000 S 
ENDBRANCH  24  26
ENDBRANCH   4  20
TORSDOF 4
ENDMDL
MODEL 6
REMARK VINA RESULT:      -7.3      6.399      8.545
REMARK  Name = 
REMARK  6 active torsions:
REMARK  status: ('A' for Active; 'I' for Inactive)
REMARK    1  A    between atoms: C_1  and  C_2
REMARK    2  A    between atoms: C_4  and  C_5
REMARK    3  A    between atoms: N_6  and  C_7
REMARK    4  A    between atoms: C_12  and  N_13
REMARK    5  A    between atoms: N_16  and  C_17
REMARK    6  A    between atoms: C_21  and  C_22
REMARK                            x       y       z     vdW  Elec       q    Type
REMARK                         _______ _______ _______ _____ _____    ______ ____
ROOT
ATOM      1  N   UNL     1      -1.496  14.493  19.582  0.00  0.00    +0.000 N 
ATOM      2  C   UNL     1      -2.133  13.992  20.709  0.00  0.00    +0.000 C 
ATOM      3  O   UNL     1      -1.556  13.385  21.604  0.00  0.00    +0.000 OA
ATOM      4  N   UNL     1      -3.499  14.221  20.705  0.00  0.00    +0.000 N 
ATOM      5  H   UNL     1      -1.868  15.356  19.192  0.00  0.00    +0.000 HD
ATOM      6  H   UNL     1      -3.924  14.738  19.942  0.00  0.00    +0.000 HD
ENDROOT
BRANCH   1  12
ATOM      7  C   UNL     1       0.198  12.897  18.710  0.00  0.00    +0.000 A 
ATOM      8  C   UNL     1       1.544  12.640  18.371  0.00  0.00    +0.000 A 
ATOM      9  C   UNL     1       2.530  13.616  18.508  0.00  0.00    +0.000 A 
ATOM     10  C   UNL     1       2.189  14.866  18.992  0.00  0.00    +0.000 A 
ATOM     11  C   UNL     1       0.865  15.134  19.343  0.00  0.00    +0.000 A 
ATOM     12  C   UNL     1      -0.159  14.180  19.192  0.00  0.00    +0.000 A 
BRANCH   7  18
ATOM     13  C   UNL     1      -2.826  10.556  15.855  0.00  0.00    +0.000 C 
ATOM     14  C   UNL     1      -2.064  10.825  17.097  0.00  0.00    +0.000 A 
ATOM     15  C   UNL     1      -1.682   9.897  18.084  0.00  0.00    +0.000 A 
ATOM     16  C   UNL     1      -0.923  10.616  18.985  0.00  0.00    +0.000 A 
ATOM     17  C   UNL     1      -0.394  10.165  20.299  0.00  0.00    +0.000 C 
ATOM     18  N   UNL     1      -0.772  11.886  18.430  0.00  0.00    +0.000 N 
ATOM     19  N   UNL     1      -1.657  12.061  17.402  0.00  0.00    +0.000 NA
ENDBRANCH   7  18
ENDBRANCH   1  12
BRANCH   4  20
ATOM     20  C   UNL     1      -4.372  13.747  21.686  0.00  0.00    +0.000 A 
ATOM     21  C   UNL     1      -4.426  14.114  23.012  0.00  0.00    +0.000 A 
ATOM     22  N   UNL     1      -5.436  13.402  23.579  0.00  0.00    +0.000 N 
ATOM     23  N   UNL     1      -6.062  12.584  22.722  0.00  0.00    +0.000 NA
ATOM     24  C   UNL     1      -5.410  12.773  21.561  0.00  0.00    +0.000 A 
ATOM     25  H   UNL     1      -5.751  13.429  24.544  0.00  0.00    +0.000 HD
BRANCH  24  26
ATOM     26  C   UNL     1      -5.772  12.031  20.299  0.00  0.00    +0.000 A 
ATOM     27  N   UNL     1      -4.984  12.021  19.239  0.00  0.00    +0.000 NA
ATOM     28  C   UNL     1      -5.558  11.248  18.247  0.00  0.00    +0.000 A 
ATOM     29  C   UNL     1      -6.787  10.705  18.544  0.00  0.00    +0.000 A 
ATOM     30  S   UNL     1      -7.239  11.139  20.136  0.00  0.00    +0.000 S 
ENDBRANCH  24  26
ENDBRANCH   4  20
TORSDOF 4
ENDMDL
MODEL 7
REMARK VINA RESULT:      -7.2      2.559      7.856
REMARK  Name = 
REMARK  6 active torsions:
REMARK  status: ('A' for Active; 'I' for Inactive)
REMARK    1  A    between atoms: C_1  and  C_2
REMARK    2  A    between atoms: C_4  and  C_5
REMARK    3  A    between atoms: N_6  and  C_7
REMARK    4  A    between atoms: C_12  and  N_13
REMARK    5  A    between atoms: N_16  and  C_17
REMARK    6  A    between atoms: C_21  and  C_22
REMARK                            x       y       z     vdW  Elec       q    Type
REMARK                         _______ _______ _______ _____ _____    ______ ____
ROOT
ATOM      1  N   UNL     1       1.391   8.598  19.061  0.00  0.00    +0.000 N 
ATOM      2  C   UNL     1       2.377   7.621  19.062  0.00  0.00    +0.000 C 
ATOM      3  O   UNL     1       2.711   6.992  20.061  0.00  0.00    +0.000 OA
ATOM      4  N   UNL     1       2.973   7.451  17.823  0.00  0.00    +0.000 N 
ATOM      5  H   UNL     1       0.837   8.687  18.211  0.00  0.00    +0.000 HD
ATOM      6  H   UNL     1       2.650   7.993  17.028  0.00  0.00    +0.000 HD
ENDROOT
BRANCH   1  12
ATOM      7  C   UNL     1      -0.143  10.219  20.155  0.00  0.00    +0.000 A 
ATOM      8  C   UNL     1      -0.665  10.762  21.348  0.00  0.00    +0.000 A 
ATOM      9  C   UNL     1      -0.265  10.291  22.599  0.00  0.00    +0.000 A 
ATOM     10  C   UNL     1       0.667   9.273  22.678  0.00  0.00    +0.000 A 
ATOM     11  C   UNL     1       1.203   8.733  21.508  0.00  0.00    +0.000 A 
ATOM     12  C   UNL     1       0.802   9.167  20.230  0.00  0.00    +0.000 A 
BRANCH   7  18
ATOM     13  C   UNL     1      -2.959   9.802  16.324  0.00  0.00    +0.000 C 
ATOM     14  C   UNL     1      -2.015  10.473  17.249  0.00  0.00    +0.000 A 
ATOM     15  C   UNL     1      -1.849  11.856  17.447  0.00  0.00    +0.000 A 
ATOM     16  C   UNL     1      -0.924  11.970  18.463  0.00  0.00    +0.000 A 
ATOM     17  C   UNL     1      -0.268  13.206  18.968  0.00  0.00    +0.000 C 
ATOM     18  N   UNL     1      -0.689  10.672  18.914  0.00  0.00    +0.000 N 
ATOM     19  N   UNL     1      -1.183   9.764  18.020  0.00  0.00    +0.000 NA
ENDBRANCH   7  18
ENDBRANCH   1  12
BRANCH   4  20
ATOM     20  C   UNL     1       4.042   6.587  17.585  0.00  0.00    +0.000 A 
ATOM     21  C   UNL     1       5.295   6.908  17.112  0.00  0.00    +0.000 A 
ATOM     22  N   UNL     1       6.004   5.749  17.051  0.00  0.00    +0.000 N 
ATOM     23  N   UNL     1       5.311   4.674  17.449  0.00  0.00    +0.000 NA
ATOM     24  C   UNL     1       4.101   5.170  17.765  0.00  0.00    +0.000 A 
ATOM     25  H   UNL     1       6.965   5.624  16.747  0.00  0.00    +0.000 HD
BRANCH  24  26
ATOM     26  C   UNL     1       2.972   4.299  18.257  0.00  0.00    +0.000 A 
ATOM     27  N   UNL     1       1.766   4.343  17.722  0.00  0.00    +0.000 NA
ATOM     28  C   UNL     1       0.947   3.426  18.355  0.00  0.00    +0.000 A 
ATOM     29  C   UNL     1       1.524   2.717  19.384  0.00  0.00    +0.000 A 
ATOM     30  S   UNL     1       3.163   3.179  19.554  0.00  0.00    +0.000 S 
ENDBRANCH  24  26
ENDBRANCH   4  20
TORSDOF 4
ENDMDL
MODEL 8
REMARK VINA RESULT:      -7.2      3.122      7.756
REMARK  Name = 
REMARK  6 active torsions:
REMARK  status: ('A' for Active; 'I' for Inactive)
REMARK    1  A    between atoms: C_1  and  C_2
REMARK    2  A    between atoms: C_4  and  C_5
REMARK    3  A    between atoms: N_6  and  C_7
REMARK    4  A    between atoms: C_12  and  N_13
REMARK    5  A    between atoms: N_16  and  C_17
REMARK    6  A    between atoms: C_21  and  C_22
REMARK                            x       y       z     vdW  Elec       q    Type
REMARK                         _______ _______ _______ _____ _____    ______ ____
ROOT
ATOM      1  N   UNL     1       0.861   9.342  18.971  0.00  0.00    +0.000 N 
ATOM      2  C   UNL     1       1.799   8.683  18.189  0.00  0.00    +0.000 C 
ATOM      3  O   UNL     1       1.978   8.917  16.998  0.00  0.00    +0.000 OA
ATOM      4  N   UNL     1       2.494   7.708  18.884  0.00  0.00    +0.000 N 
ATOM      5  H   UNL     1       1.101   9.486  19.950  0.00  0.00    +0.000 HD
ATOM      6  H   UNL     1       2.312   7.563  19.872  0.00  0.00    +0.000 HD
ENDROOT
BRANCH   1  12
ATOM      7  C   UNL     1      -0.252  11.561  18.835  0.00  0.00    +0.000 A 
ATOM      8  C   UNL     1      -1.311  12.345  18.331  0.00  0.00    +0.000 A 
ATOM      9  C   UNL     1      -2.282  11.803  17.490  0.00  0.00    +0.000 A 
ATOM     10  C   UNL     1      -2.213  10.466  17.140  0.00  0.00    +0.000 A 
ATOM     11  C   UNL     1      -1.178   9.674  17.639  0.00  0.00    +0.000 A 
ATOM     12  C   UNL     1      -0.168  10.195  18.469  0.00  0.00    +0.000 A 
BRANCH   7  18
ATOM     13  C   UNL     1       3.643  14.280  19.302  0.00  0.00    +0.000 C 
ATOM     14  C   UNL     1       2.474  13.493  19.759  0.00  0.00    +0.000 A 
ATOM     15  C   UNL     1       1.768  13.634  20.969  0.00  0.00    +0.000 A 
ATOM     16  C   UNL     1       0.721  12.739  20.886  0.00  0.00    +0.000 A 
ATOM     17  C   UNL     1      -0.248  12.365  21.949  0.00  0.00    +0.000 C 
ATOM     18  N   UNL     1       0.767  12.215  19.594  0.00  0.00    +0.000 N 
ATOM     19  N   UNL     1       1.966  12.512  19.006  0.00  0.00    +0.000 NA
ENDBRANCH   7  18
ENDBRANCH   1  12
BRANCH   4  20
ATOM     20  C   UNL     1       3.434   6.855  18.302  0.00  0.00    +0.000 A 
ATOM     21  C   UNL     1       4.544   7.203  17.566  0.00  0.00    +0.000 A 
ATOM     22  N   UNL     1       5.165   6.046  17.214  0.00  0.00    +0.000 N 
ATOM     23  N   UNL     1       4.545   4.947  17.665  0.00  0.00    +0.000 NA
ATOM     24  C   UNL     1       3.473   5.427  18.320  0.00  0.00    +0.000 A 
ATOM     25  H   UNL     1       6.015   5.937  16.670  0.00  0.00    +0.000 HD
BRANCH  24  26
ATOM     26  C   UNL     1       2.464   4.527  18.989  0.00  0.00    +0.000 A 
ATOM     27  N   UNL     1       1.993   4.777  20.197  0.00  0.00    +0.000 NA
ATOM     28  C   UNL     1       1.074   3.803  20.543  0.00  0.00    +0.000 A 
ATOM     29  C   UNL     1       0.878   2.807  19.614  0.00  0.00    +0.000 A 
ATOM     30  S   UNL     1       1.845   3.105  18.236  0.00  0.00    +0.000 S 
ENDBRANCH  24  26
ENDBRANCH   4  20
TORSDOF 4
ENDMDL
MODEL 9
REMARK VINA RESULT:      -7.1      2.605      8.009
REMARK  Name = 
REMARK  6 active torsions:
REMARK  status: ('A' for Active; 'I' for Inactive)
REMARK    1  A    between atoms: C_1  and  C_2
REMARK    2  A    between atoms: C_4  and  C_5
REMARK    3  A    between atoms: N_6  and  C_7
REMARK    4  A    between atoms: C_12  and  N_13
REMARK    5  A    between atoms: N_16  and  C_17
REMARK    6  A    between atoms: C_21  and  C_22
REMARK                            x       y       z     vdW  Elec       q    Type
REMARK                         _______ _______ _______ _____ _____    ______ ____
ROOT
ATOM      1  N   UNL     1       1.755   8.552  19.419  0.00  0.00    +0.000 N 
ATOM      2  C   UNL     1       2.011   7.201  19.231  0.00  0.00    +0.000 C 
ATOM      3  O   UNL     1       1.508   6.312  19.909  0.00  0.00    +0.000 OA
ATOM      4  N   UNL     1       2.922   6.959  18.216  0.00  0.00    +0.000 N 
ATOM      5  H   UNL     1       1.760   9.139  18.588  0.00  0.00    +0.000 HD
ATOM      6  H   UNL     1       3.300   7.733  17.680  0.00  0.00    +0.000 HD
ENDROOT
BRANCH   1  12
ATOM      7  C   UNL     1       0.104  10.126  20.407  0.00  0.00    +0.000 A 
ATOM      8  C   UNL     1      -0.509  10.656  21.562  0.00  0.00    +0.000 A 
ATOM      9  C   UNL     1      -0.171  10.205  22.838  0.00  0.00    +0.000 A 
ATOM     10  C   UNL     1       0.788   9.219  22.981  0.00  0.00    +0.000 A 
ATOM     11  C   UNL     1       1.411   8.692  21.850  0.00  0.00    +0.000 A 
ATOM     12  C   UNL     1       1.076   9.106  20.546  0.00  0.00    +0.000 A 
BRANCH   7  18
ATOM     13  C   UNL     1      -2.749   9.805  16.594  0.00  0.00    +0.000 C 
ATOM     14  C   UNL     1      -1.724  10.411  17.475  0.00  0.00    +0.000 A 
ATOM     15  C   UNL     1      -1.375  11.771  17.572  0.00  0.00    +0.000 A 
ATOM     16  C   UNL     1      -0.441  11.836  18.585  0.00  0.00    +0.000 A 
ATOM     17  C   UNL     1       0.374  13.007  19.004  0.00  0.00    +0.000 C 
ATOM     18  N   UNL     1      -0.379  10.555  19.132  0.00  0.00    +0.000 N 
ATOM     19  N   UNL     1      -0.992   9.657  18.302  0.00  0.00    +0.000 NA
ENDBRANCH   7  18
ENDBRANCH   1  12
BRANCH   4  20
ATOM     20  C   UNL     1       3.402   5.691  17.885  0.00  0.00    +0.000 A 
ATOM     21  C   UNL     1       2.672   4.542  17.675  0.00  0.00    +0.000 A 
ATOM     22  N   UNL     1       3.559   3.559  17.368  0.00  0.00    +0.000 N 
ATOM     23  N   UNL     1       4.834   3.971  17.359  0.00  0.00    +0.000 NA
ATOM     24  C   UNL     1       4.754   5.272  17.690  0.00  0.00    +0.000 A 
ATOM     25  H   UNL     1       3.360   2.587  17.153  0.00  0.00    +0.000 HD
BRANCH  24  26
ATOM     26  C   UNL     1       5.974   6.152  17.818  0.00  0.00    +0.000 A 
ATOM     27  N   UNL     1       6.124   7.252  17.103  0.00  0.00    +0.000 NA
ATOM     28  C   UNL     1       7.318   7.862  17.444  0.00  0.00    +0.000 A 
ATOM     29  C   UNL     1       8.078   7.207  18.386  0.00  0.00    +0.000 A 
ATOM     30  S   UNL     1       7.266   5.793  18.902  0.00  0.00    +0.000 S 
ENDBRANCH  24  26
ENDBRANCH   4  20
TORSDOF 4
ENDMDL
