MODEL 1
REMARK VINA RESULT:      -9.5      0.000      0.000
REMARK  Name = 
REMARK  4 active torsions:
REMARK  status: ('A' for Active; 'I' for Inactive)
REMARK    1  A    between atoms: C_2  and  C_22
REMARK    2  A    between atoms: N_3  and  C_4
REMARK    3  A    between atoms: C_8  and  C_9
REMARK    4  A    between atoms: C_12  and  C_13
REMARK                            x       y       z     vdW  Elec       q    Type
REMARK                         _______ _______ _______ _____ _____    ______ ____
ROOT
ATOM      1  C   UNL     1       2.823   5.202  20.249  0.00  0.00    +0.000 A 
ATOM      2  C   UNL     1       2.601   3.952  20.830  0.00  0.00    +0.000 A 
ATOM      3  C   UNL     1       3.379   2.852  20.471  0.00  0.00    +0.000 A 
ATOM      4  C   UNL     1       4.388   2.986  19.520  0.00  0.00    +0.000 A 
ATOM      5  C   UNL     1       4.621   4.226  18.912  0.00  0.00    +0.000 A 
ATOM      6  C   UNL     1       3.832   5.330  19.286  0.00  0.00    +0.000 A 
ENDROOT
BRANCH   5   7
ATOM      7  C   UNL     1       5.660   4.383  17.903  0.00  0.00    +0.000 A 
ATOM      8  N   UNL     1       6.964   4.549  18.175  0.00  0.00    +0.000 NA
ATOM      9  O   UNL     1       7.554   4.648  16.913  0.00  0.00    +0.000 OA
ATOM     10  C   UNL     1       6.543   4.536  15.999  0.00  0.00    +0.000 A 
ATOM     11  N   UNL     1       5.368   4.364  16.561  0.00  0.00    +0.000 NA
BRANCH  10  12
ATOM     12  C   UNL     1       6.906   4.629  14.595  0.00  0.00    +0.000 A 
ATOM     13  N   UNL     1       7.888   5.517  14.269  0.00  0.00    +0.000 NA
ATOM     14  C   UNL     1       8.212   5.624  12.960  0.00  0.00    +0.000 A 
ATOM     15  C   UNL     1       7.608   4.888  11.953  0.00  0.00    +0.000 A 
ATOM     16  C   UNL     1       6.612   3.983  12.304  0.00  0.00    +0.000 A 
ATOM     17  C   UNL     1       6.257   3.852  13.640  0.00  0.00    +0.000 A 
ATOM     18  F   UNL     1       5.295   2.978  13.968  0.00  0.00    +0.000 F 
ENDBRANCH  10  12
ENDBRANCH   5   7
BRANCH   1  21
ATOM     19  O   UNL     1       2.594   7.741  18.771  0.00  0.00    +0.000 OA
ATOM     20  C   UNL     1       2.032   7.538  19.845  0.00  0.00    +0.000 C 
ATOM     21  N   UNL     1       2.067   6.355  20.558  0.00  0.00    +0.000 N 
ATOM     22  H   UNL     1       1.468   6.284  21.376  0.00  0.00    +0.000 HD
BRANCH  20  23
ATOM     23  C   UNL     1       1.218   8.650  20.418  0.00  0.00    +0.000 A 
ATOM     24  C   UNL     1       1.134   8.759  21.816  0.00  0.00    +0.000 A 
ATOM     25  C   UNL     1       0.372   9.769  22.409  0.00  0.00    +0.000 A 
ATOM     26  C   UNL     1      -0.320  10.678  21.612  0.00  0.00    +0.000 A 
ATOM     27  C   UNL     1      -0.246  10.581  20.224  0.00  0.00    +0.000 A 
ATOM     28  C   UNL     1       0.521   9.573  19.638  0.00  0.00    +0.000 A 
ATOM     29  F   UNL     1       0.568   9.521  18.297  0.00  0.00    +0.000 F 
ENDBRANCH  20  23
ENDBRANCH   1  21
TORSDOF 4
ENDMDL
MODEL 2
REMARK VINA RESULT:      -9.4      4.063     10.772
REMARK  Name = 
REMARK  4 active torsions:
REMARK  status: ('A' for Active; 'I' for Inactive)
REMARK    1  A    between atoms: C_2  and  C_22
REMARK    2  A    between atoms: N_3  and  C_4
REMARK    3  A    between atoms: C_8  and  C_9
REMARK    4  A    between atoms: C_12  and  C_13
REMARK                            x       y       z     vdW  Elec       q    Type
REMARK                         _______ _______ _______ _____ _____    ______ ____
ROOT
ATOM      1  C   UNL     1       1.942   7.981  18.970  0.00  0.00    +0.000 A 
ATOM      2  C   UNL     1       2.173   8.850  17.901  0.00  0.00    +0.000 A 
ATOM      3  C   UNL     1       1.807  10.192  17.983  0.00  0.00    +0.000 A 
ATOM      4  C   UNL     1       1.197  10.685  19.134  0.00  0.00    +0.000 A 
ATOM      5  C   UNL     1       0.941   9.831  20.214  0.00  0.00    +0.000 A 
ATOM      6  C   UNL     1       1.320   8.479  20.122  0.00  0.00    +0.000 A 
ENDROOT
BRANCH   5   7
ATOM      7  C   UNL     1       0.290  10.323  21.421  0.00  0.00    +0.000 A 
ATOM      8  N   UNL     1       0.524   9.853  22.657  0.00  0.00    +0.000 NA
ATOM      9  O   UNL     1      -0.314  10.622  23.467  0.00  0.00    +0.000 OA
ATOM     10  C   UNL     1      -0.977  11.484  22.637  0.00  0.00    +0.000 A 
ATOM     11  N   UNL     1      -0.633  11.341  21.377  0.00  0.00    +0.000 NA
BRANCH  10  12
ATOM     12  C   UNL     1      -1.936  12.388  23.250  0.00  0.00    +0.000 A 
ATOM     13  N   UNL     1      -3.162  11.875  23.552  0.00  0.00    +0.000 NA
ATOM     14  C   UNL     1      -4.065  12.719  24.101  0.00  0.00    +0.000 A 
ATOM     15  C   UNL     1      -3.809  14.055  24.367  0.00  0.00    +0.000 A 
ATOM     16  C   UNL     1      -2.552  14.560  24.057  0.00  0.00    +0.000 A 
ATOM     17  C   UNL     1      -1.604  13.718  23.491  0.00  0.00    +0.000 A 
ATOM     18  F   UNL     1      -0.395  14.215  23.195  0.00  0.00    +0.000 F 
ENDBRANCH  10  12
ENDBRANCH   5   7
BRANCH   1  21
ATOM     19  O   UNL     1       4.049   6.593  17.449  0.00  0.00    +0.000 OA
ATOM     20  C   UNL     1       3.255   6.007  18.181  0.00  0.00    +0.000 C 
ATOM     21  N   UNL     1       2.278   6.609  18.951  0.00  0.00    +0.000 N 
ATOM     22  H   UNL     1       1.761   6.019  19.595  0.00  0.00    +0.000 HD
BRANCH  20  23
ATOM     23  C   UNL     1       3.368   4.521  18.271  0.00  0.00    +0.000 A 
ATOM     24  C   UNL     1       2.410   3.741  17.604  0.00  0.00    +0.000 A 
ATOM     25  C   UNL     1       2.455   2.346  17.669  0.00  0.00    +0.000 A 
ATOM     26  C   UNL     1       3.454   1.715  18.406  0.00  0.00    +0.000 A 
ATOM     27  C   UNL     1       4.411   2.478  19.073  0.00  0.00    +0.000 A 
ATOM     28  C   UNL     1       4.364   3.870  19.001  0.00  0.00    +0.000 A 
ATOM     29  F   UNL     1       5.308   4.564  19.655  0.00  0.00    +0.000 F 
ENDBRANCH  20  23
ENDBRANCH   1  21
TORSDOF 4
ENDMDL
MODEL 3
REMARK VINA RESULT:      -9.2      3.947     10.649
REMARK  Name = 
REMARK  4 active torsions:
REMARK  status: ('A' for Active; 'I' for Inactive)
REMARK    1  A    between atoms: C_2  and  C_22
REMARK    2  A    between atoms: N_3  and  C_4
REMARK    3  A    between atoms: C_8  and  C_9
REMARK    4  A    between atoms: C_12  and  C_13
REMARK                            x       y       z     vdW  Elec       q    Type
REMARK                         _______ _______ _______ _____ _____    ______ ____
ROOT
ATOM      1  C   UNL     1       1.996   7.717  19.091  0.00  0.00    +0.000 A 
ATOM      2  C   UNL     1       2.219   8.541  17.986  0.00  0.00    +0.000 A 
ATOM      3  C   UNL     1       1.851   9.885  18.015  0.00  0.00    +0.000 A 
ATOM      4  C   UNL     1       1.248  10.424  19.150  0.00  0.00    +0.000 A 
ATOM      5  C   UNL     1       1.001   9.616  20.266  0.00  0.00    +0.000 A 
ATOM      6  C   UNL     1       1.381   8.261  20.226  0.00  0.00    +0.000 A 
ENDROOT
BRANCH   5   7
ATOM      7  C   UNL     1       0.359  10.156  21.456  0.00  0.00    +0.000 A 
ATOM      8  N   UNL     1       0.597   9.733  22.708  0.00  0.00    +0.000 NA
ATOM      9  O   UNL     1      -0.233  10.536  23.491  0.00  0.00    +0.000 OA
ATOM     10  C   UNL     1      -0.899  11.367  22.632  0.00  0.00    +0.000 A 
ATOM     11  N   UNL     1      -0.561  11.174  21.377  0.00  0.00    +0.000 NA
BRANCH  10  12
ATOM     12  C   UNL     1      -1.851  12.297  23.214  0.00  0.00    +0.000 A 
ATOM     13  N   UNL     1      -3.070  11.796  23.563  0.00  0.00    +0.000 NA
ATOM     14  C   UNL     1      -3.968  12.664  24.083  0.00  0.00    +0.000 A 
ATOM     15  C   UNL     1      -3.713  14.012  24.277  0.00  0.00    +0.000 A 
ATOM     16  C   UNL     1      -2.463  14.506  23.921  0.00  0.00    +0.000 A 
ATOM     17  C   UNL     1      -1.521  13.639  23.383  0.00  0.00    +0.000 A 
ATOM     18  F   UNL     1      -0.319  14.125  23.042  0.00  0.00    +0.000 F 
ENDBRANCH  10  12
ENDBRANCH   5   7
BRANCH   1  21
ATOM     19  O   UNL     1       4.210   6.302  17.760  0.00  0.00    +0.000 OA
ATOM     20  C   UNL     1       3.365   5.729  18.443  0.00  0.00    +0.000 C 
ATOM     21  N   UNL     1       2.333   6.345  19.126  0.00  0.00    +0.000 N 
ATOM     22  H   UNL     1       1.770   5.768  19.743  0.00  0.00    +0.000 HD
BRANCH  20  23
ATOM     23  C   UNL     1       3.472   4.246  18.573  0.00  0.00    +0.000 A 
ATOM     24  C   UNL     1       4.324   3.727  19.562  0.00  0.00    +0.000 A 
ATOM     25  C   UNL     1       4.479   2.347  19.717  0.00  0.00    +0.000 A 
ATOM     26  C   UNL     1       3.787   1.470  18.884  0.00  0.00    +0.000 A 
ATOM     27  C   UNL     1       2.939   1.973  17.900  0.00  0.00    +0.000 A 
ATOM     28  C   UNL     1       2.785   3.352  17.752  0.00  0.00    +0.000 A 
ATOM     29  F   UNL     1       1.953   3.790  16.794  0.00  0.00    +0.000 F 
ENDBRANCH  20  23
ENDBRANCH   1  21
TORSDOF 4
ENDMDL
MODEL 4
REMARK VINA RESULT:      -9.0      0.897      1.276
REMARK  Name = 
REMARK  4 active torsions:
REMARK  status: ('A' for Active; 'I' for Inactive)
REMARK    1  A    between atoms: C_2  and  C_22
REMARK    2  A    between atoms: N_3  and  C_4
REMARK    3  A    between atoms: C_8  and  C_9
REMARK    4  A    between atoms: C_12  and  C_13
REMARK                            x       y       z     vdW  Elec       q    Type
REMARK                         _______ _______ _______ _____ _____    ______ ____
ROOT
ATOM      1  C   UNL     1       2.654   5.446  20.133  0.00  0.00    +0.000 A 
ATOM      2  C   UNL     1       2.396   4.228  20.764  0.00  0.00    +0.000 A 
ATOM      3  C   UNL     1       3.163   3.100  20.475  0.00  0.00    +0.000 A 
ATOM      4  C   UNL     1       4.196   3.173  19.544  0.00  0.00    +0.000 A 
ATOM      5  C   UNL     1       4.466   4.380  18.887  0.00  0.00    +0.000 A 
ATOM      6  C   UNL     1       3.687   5.512  19.191  0.00  0.00    +0.000 A 
ENDROOT
BRANCH   5   7
ATOM      7  C   UNL     1       5.532   4.473  17.899  0.00  0.00    +0.000 A 
ATOM      8  N   UNL     1       6.838   4.562  18.195  0.00  0.00    +0.000 NA
ATOM      9  O   UNL     1       7.457   4.624  16.946  0.00  0.00    +0.000 OA
ATOM     10  C   UNL     1       6.459   4.570  16.012  0.00  0.00    +0.000 A 
ATOM     11  N   UNL     1       5.265   4.469  16.551  0.00  0.00    +0.000 NA
BRANCH  10  12
ATOM     12  C   UNL     1       6.854   4.639  14.615  0.00  0.00    +0.000 A 
ATOM     13  N   UNL     1       7.851   5.514  14.298  0.00  0.00    +0.000 NA
ATOM     14  C   UNL     1       8.206   5.598  12.995  0.00  0.00    +0.000 A 
ATOM     15  C   UNL     1       7.617   4.852  11.986  0.00  0.00    +0.000 A 
ATOM     16  C   UNL     1       6.606   3.962  12.328  0.00  0.00    +0.000 A 
ATOM     17  C   UNL     1       6.220   3.854  13.657  0.00  0.00    +0.000 A 
ATOM     18  F   UNL     1       5.243   2.993  13.977  0.00  0.00    +0.000 F 
ENDBRANCH  10  12
ENDBRANCH   5   7
BRANCH   1  21
ATOM     19  O   UNL     1       2.590   7.959  18.596  0.00  0.00    +0.000 OA
ATOM     20  C   UNL     1       1.954   7.793  19.634  0.00  0.00    +0.000 C 
ATOM     21  N   UNL     1       1.910   6.624  20.370  0.00  0.00    +0.000 N 
ATOM     22  H   UNL     1       1.259   6.585  21.148  0.00  0.00    +0.000 HD
BRANCH  20  23
ATOM     23  C   UNL     1       1.135   8.937  20.132  0.00  0.00    +0.000 A 
ATOM     24  C   UNL     1       0.473   9.740  19.189  0.00  0.00    +0.000 A 
ATOM     25  C   UNL     1      -0.292  10.836  19.596  0.00  0.00    +0.000 A 
ATOM     26  C   UNL     1      -0.400  11.145  20.950  0.00  0.00    +0.000 A 
ATOM     27  C   UNL     1       0.252  10.357  21.896  0.00  0.00    +0.000 A 
ATOM     28  C   UNL     1       1.011   9.262  21.484  0.00  0.00    +0.000 A 
ATOM     29  F   UNL     1       1.617   8.528  22.430  0.00  0.00    +0.000 F 
ENDBRANCH  20  23
ENDBRANCH   1  21
TORSDOF 4
ENDMDL
MODEL 5
REMARK VINA RESULT:      -8.9      4.069     10.729
REMARK  Name = 
REMARK  4 active torsions:
REMARK  status: ('A' for Active; 'I' for Inactive)
REMARK    1  A    between atoms: C_2  and  C_22
REMARK    2  A    between atoms: N_3  and  C_4
REMARK    3  A    between atoms: C_8  and  C_9
REMARK    4  A    between atoms: C_12  and  C_13
REMARK                            x       y       z     vdW  Elec       q    Type
REMARK                         _______ _______ _______ _____ _____    ______ ____
ROOT
ATOM      1  C   UNL     1       1.837   8.216  18.995  0.00  0.00    +0.000 A 
ATOM      2  C   UNL     1       2.135   9.049  17.914  0.00  0.00    +0.000 A 
ATOM      3  C   UNL     1       1.847  10.412  17.966  0.00  0.00    +0.000 A 
ATOM      4  C   UNL     1       1.249  10.961  19.098  0.00  0.00    +0.000 A 
ATOM      5  C   UNL     1       0.928  10.145  20.189  0.00  0.00    +0.000 A 
ATOM      6  C   UNL     1       1.228   8.771  20.127  0.00  0.00    +0.000 A 
ENDROOT
BRANCH   5   7
ATOM      7  C   UNL     1       0.289  10.697  21.376  0.00  0.00    +0.000 A 
ATOM      8  N   UNL     1       0.185  10.056  22.552  0.00  0.00    +0.000 NA
ATOM      9  O   UNL     1      -0.487  10.969  23.367  0.00  0.00    +0.000 OA
ATOM     10  C   UNL     1      -0.727  12.076  22.600  0.00  0.00    +0.000 A 
ATOM     11  N   UNL     1      -0.262  11.956  21.377  0.00  0.00    +0.000 NA
BRANCH  10  12
ATOM     12  C   UNL     1      -1.442  13.174  23.228  0.00  0.00    +0.000 A 
ATOM     13  N   UNL     1      -0.720  14.292  23.523  0.00  0.00    +0.000 NA
ATOM     14  C   UNL     1      -1.376  15.308  24.129  0.00  0.00    +0.000 A 
ATOM     15  C   UNL     1      -2.723  15.269  24.456  0.00  0.00    +0.000 A 
ATOM     16  C   UNL     1      -3.445  14.123  24.142  0.00  0.00    +0.000 A 
ATOM     17  C   UNL     1      -2.798  13.064  23.521  0.00  0.00    +0.000 A 
ATOM     18  F   UNL     1      -3.503  11.963  23.224  0.00  0.00    +0.000 F 
ENDBRANCH  10  12
ENDBRANCH   5   7
BRANCH   1  21
ATOM     19  O   UNL     1       4.070   6.715  17.796  0.00  0.00    +0.000 OA
ATOM     20  C   UNL     1       3.139   6.172  18.386  0.00  0.00    +0.000 C 
ATOM     21  N   UNL     1       2.092   6.826  19.006  0.00  0.00    +0.000 N 
ATOM     22  H   UNL     1       1.447   6.264  19.553  0.00  0.00    +0.000 HD
BRANCH  20  23
ATOM     23  C   UNL     1       3.151   4.682  18.470  0.00  0.00    +0.000 A 
ATOM     24  C   UNL     1       4.219   4.063  19.139  0.00  0.00    +0.000 A 
ATOM     25  C   UNL     1       4.292   2.671  19.232  0.00  0.00    +0.000 A 
ATOM     26  C   UNL     1       3.301   1.881  18.653  0.00  0.00    +0.000 A 
ATOM     27  C   UNL     1       2.236   2.483  17.986  0.00  0.00    +0.000 A 
ATOM     28  C   UNL     1       2.166   3.873  17.900  0.00  0.00    +0.000 A 
ATOM     29  F   UNL     1       1.120   4.410  17.253  0.00  0.00    +0.000 F 
ENDBRANCH  20  23
ENDBRANCH   1  21
TORSDOF 4
ENDMDL
MODEL 6
REMARK VINA RESULT:      -8.9      1.191      1.493
REMARK  Name = 
REMARK  4 active torsions:
REMARK  status: ('A' for Active; 'I' for Inactive)
REMARK    1  A    between atoms: C_2  and  C_22
REMARK    2  A    between atoms: N_3  and  C_4
REMARK    3  A    between atoms: C_8  and  C_9
REMARK    4  A    between atoms: C_12  and  C_13
REMARK                            x       y       z     vdW  Elec       q    Type
REMARK                         _______ _______ _______ _____ _____    ______ ____
ROOT
ATOM      1  C   UNL     1       2.482   6.473  19.772  0.00  0.00    +0.000 A 
ATOM      2  C   UNL     1       2.013   5.388  20.515  0.00  0.00    +0.000 A 
ATOM      3  C   UNL     1       2.602   4.130  20.386  0.00  0.00    +0.000 A 
ATOM      4  C   UNL     1       3.664   3.939  19.507  0.00  0.00    +0.000 A 
ATOM      5  C   UNL     1       4.144   5.008  18.740  0.00  0.00    +0.000 A 
ATOM      6  C   UNL     1       3.545   6.273  18.882  0.00  0.00    +0.000 A 
ENDROOT
BRANCH   5   7
ATOM      7  C   UNL     1       5.244   4.825  17.803  0.00  0.00    +0.000 A 
ATOM      8  N   UNL     1       6.510   4.552  18.160  0.00  0.00    +0.000 NA
ATOM      9  O   UNL     1       7.184   4.464  16.941  0.00  0.00    +0.000 OA
ATOM     10  C   UNL     1       6.257   4.697  15.963  0.00  0.00    +0.000 A 
ATOM     11  N   UNL     1       5.055   4.915  16.445  0.00  0.00    +0.000 NA
BRANCH  10  12
ATOM     12  C   UNL     1       6.727   4.679  14.587  0.00  0.00    +0.000 A 
ATOM     13  N   UNL     1       7.768   5.502  14.279  0.00  0.00    +0.000 NA
ATOM     14  C   UNL     1       8.192   5.506  12.995  0.00  0.00    +0.000 A 
ATOM     15  C   UNL     1       7.631   4.726  11.996  0.00  0.00    +0.000 A 
ATOM     16  C   UNL     1       6.574   3.888  12.328  0.00  0.00    +0.000 A 
ATOM     17  C   UNL     1       6.115   3.864  13.639  0.00  0.00    +0.000 A 
ATOM     18  F   UNL     1       5.094   3.053  13.950  0.00  0.00    +0.000 F 
ENDBRANCH  10  12
ENDBRANCH   5   7
BRANCH   1  21
ATOM     19  O   UNL     1       1.658   8.281  17.596  0.00  0.00    +0.000 OA
ATOM     20  C   UNL     1       1.598   8.591  18.783  0.00  0.00    +0.000 C 
ATOM     21  N   UNL     1       1.927   7.770  19.845  0.00  0.00    +0.000 N 
ATOM     22  H   UNL     1       1.727   8.113  20.780  0.00  0.00    +0.000 HD
BRANCH  20  23
ATOM     23  C   UNL     1       1.102   9.960  19.114  0.00  0.00    +0.000 A 
ATOM     24  C   UNL     1      -0.000  10.075  19.977  0.00  0.00    +0.000 A 
ATOM     25  C   UNL     1      -0.520  11.330  20.307  0.00  0.00    +0.000 A 
ATOM     26  C   UNL     1       0.053  12.482  19.774  0.00  0.00    +0.000 A 
ATOM     27  C   UNL     1       1.146  12.381  18.916  0.00  0.00    +0.000 A 
ATOM     28  C   UNL     1       1.664  11.127  18.594  0.00  0.00    +0.000 A 
ATOM     29  F   UNL     1       2.721  11.078  17.769  0.00  0.00    +0.000 F 
ENDBRANCH  20  23
ENDBRANCH   1  21
TORSDOF 4
ENDMDL
MODEL 7
REMARK VINA RESULT:      -8.9      1.326      1.504
REMARK  Name = 
REMARK  4 active torsions:
REMARK  status: ('A' for Active; 'I' for Inactive)
REMARK    1  A    between atoms: C_2  and  C_22
REMARK    2  A    between atoms: N_3  and  C_4
REMARK    3  A    between atoms: C_8  and  C_9
REMARK    4  A    between atoms: C_12  and  C_13
REMARK                            x       y       z     vdW  Elec       q    Type
REMARK                         _______ _______ _______ _____ _____    ______ ____
ROOT
ATOM      1  C   UNL     1       2.177   6.106  20.268  0.00  0.00    +0.000 A 
ATOM      2  C   UNL     1       2.097   4.787  20.720  0.00  0.00    +0.000 A 
ATOM      3  C   UNL     1       2.806   3.771  20.079  0.00  0.00    +0.000 A 
ATOM      4  C   UNL     1       3.600   4.060  18.971  0.00  0.00    +0.000 A 
ATOM      5  C   UNL     1       3.685   5.373  18.491  0.00  0.00    +0.000 A 
ATOM      6  C   UNL     1       2.969   6.389  19.149  0.00  0.00    +0.000 A 
ENDROOT
BRANCH   5   7
ATOM      7  C   UNL     1       4.498   5.693  17.325  0.00  0.00    +0.000 A 
ATOM      8  N   UNL     1       4.941   6.924  17.022  0.00  0.00    +0.000 NA
ATOM      9  O   UNL     1       5.663   6.733  15.843  0.00  0.00    +0.000 OA
ATOM     10  C   UNL     1       5.583   5.401  15.545  0.00  0.00    +0.000 A 
ATOM     11  N   UNL     1       4.886   4.724  16.431  0.00  0.00    +0.000 NA
BRANCH  10  12
ATOM     12  C   UNL     1       6.249   4.950  14.335  0.00  0.00    +0.000 A 
ATOM     13  N   UNL     1       7.477   5.481  14.072  0.00  0.00    +0.000 NA
ATOM     14  C   UNL     1       8.090   5.082  12.934  0.00  0.00    +0.000 A 
ATOM     15  C   UNL     1       7.541   4.176  12.040  0.00  0.00    +0.000 A 
ATOM     16  C   UNL     1       6.291   3.641  12.326  0.00  0.00    +0.000 A 
ATOM     17  C   UNL     1       5.637   4.033  13.487  0.00  0.00    +0.000 A 
ATOM     18  F   UNL     1       4.430   3.512  13.753  0.00  0.00    +0.000 F 
ENDBRANCH  10  12
ENDBRANCH   5   7
BRANCH   1  21
ATOM     19  O   UNL     1       1.590   8.783  19.187  0.00  0.00    +0.000 OA
ATOM     20  C   UNL     1       1.270   8.434  20.321  0.00  0.00    +0.000 C 
ATOM     21  N   UNL     1       1.478   7.180  20.863  0.00  0.00    +0.000 N 
ATOM     22  H   UNL     1       1.066   6.990  21.772  0.00  0.00    +0.000 HD
BRANCH  20  23
ATOM     23  C   UNL     1       0.572   9.436  21.179  0.00  0.00    +0.000 A 
ATOM     24  C   UNL     1      -0.068   8.981  22.344  0.00  0.00    +0.000 A 
ATOM     25  C   UNL     1      -0.753   9.870  23.175  0.00  0.00    +0.000 A 
ATOM     26  C   UNL     1      -0.811  11.223  22.851  0.00  0.00    +0.000 A 
ATOM     27  C   UNL     1      -0.180  11.688  21.698  0.00  0.00    +0.000 A 
ATOM     28  C   UNL     1       0.506  10.796  20.874  0.00  0.00    +0.000 A 
ATOM     29  F   UNL     1       1.103  11.288  19.777  0.00  0.00    +0.000 F 
ENDBRANCH  20  23
ENDBRANCH   1  21
TORSDOF 4
ENDMDL
MODEL 8
REMARK VINA RESULT:      -8.8      4.125     10.804
REMARK  Name = 
REMARK  4 active torsions:
REMARK  status: ('A' for Active; 'I' for Inactive)
REMARK    1  A    between atoms: C_2  and  C_22
REMARK    2  A    between atoms: N_3  and  C_4
REMARK    3  A    between atoms: C_8  and  C_9
REMARK    4  A    between atoms: C_12  and  C_13
REMARK                            x       y       z     vdW  Elec       q    Type
REMARK                         _______ _______ _______ _____ _____    ______ ____
ROOT
ATOM      1  C   UNL     1       1.863   8.190  19.026  0.00  0.00    +0.000 A 
ATOM      2  C   UNL     1       2.149   9.051  17.964  0.00  0.00    +0.000 A 
ATOM      3  C   UNL     1       1.800  10.399  18.027  0.00  0.00    +0.000 A 
ATOM      4  C   UNL     1       1.154  10.905  19.153  0.00  0.00    +0.000 A 
ATOM      5  C   UNL     1       0.844  10.060  20.225  0.00  0.00    +0.000 A 
ATOM      6  C   UNL     1       1.205   8.702  20.151  0.00  0.00    +0.000 A 
ENDROOT
BRANCH   5   7
ATOM      7  C   UNL     1       0.156  10.566  21.405  0.00  0.00    +0.000 A 
ATOM      8  N   UNL     1      -0.121   9.835  22.496  0.00  0.00    +0.000 NA
ATOM      9  O   UNL     1      -0.772  10.737  23.341  0.00  0.00    +0.000 OA
ATOM     10  C   UNL     1      -0.828  11.929  22.673  0.00  0.00    +0.000 A 
ATOM     11  N   UNL     1      -0.265  11.872  21.487  0.00  0.00    +0.000 NA
BRANCH  10  12
ATOM     12  C   UNL     1      -1.486  13.036  23.346  0.00  0.00    +0.000 A 
ATOM     13  N   UNL     1      -0.694  14.067  23.755  0.00  0.00    +0.000 NA
ATOM     14  C   UNL     1      -1.299  15.089  24.404  0.00  0.00    +0.000 A 
ATOM     15  C   UNL     1      -2.659  15.137  24.666  0.00  0.00    +0.000 A 
ATOM     16  C   UNL     1      -3.453  14.079  24.237  0.00  0.00    +0.000 A 
ATOM     17  C   UNL     1      -2.859  13.016  23.570  0.00  0.00    +0.000 A 
ATOM     18  F   UNL     1      -3.632  12.000  23.161  0.00  0.00    +0.000 F 
ENDBRANCH  10  12
ENDBRANCH   5   7
BRANCH   1  21
ATOM     19  O   UNL     1       3.898   6.740  17.466  0.00  0.00    +0.000 OA
ATOM     20  C   UNL     1       3.120   6.180  18.235  0.00  0.00    +0.000 C 
ATOM     21  N   UNL     1       2.178   6.813  19.024  0.00  0.00    +0.000 N 
ATOM     22  H   UNL     1       1.674   6.244  19.697  0.00  0.00    +0.000 HD
BRANCH  20  23
ATOM     23  C   UNL     1       3.214   4.695  18.352  0.00  0.00    +0.000 A 
ATOM     24  C   UNL     1       2.185   3.919  17.795  0.00  0.00    +0.000 A 
ATOM     25  C   UNL     1       2.210   2.525  17.891  0.00  0.00    +0.000 A 
ATOM     26  C   UNL     1       3.262   1.892  18.549  0.00  0.00    +0.000 A 
ATOM     27  C   UNL     1       4.290   2.651  19.106  0.00  0.00    +0.000 A 
ATOM     28  C   UNL     1       4.261   4.041  19.003  0.00  0.00    +0.000 A 
ATOM     29  F   UNL     1       5.275   4.731  19.550  0.00  0.00    +0.000 F 
ENDBRANCH  20  23
ENDBRANCH   1  21
TORSDOF 4
ENDMDL
MODEL 9
REMARK VINA RESULT:      -8.8      4.353     10.998
REMARK  Name = 
REMARK  4 active torsions:
REMARK  status: ('A' for Active; 'I' for Inactive)
REMARK    1  A    between atoms: C_2  and  C_22
REMARK    2  A    between atoms: N_3  and  C_4
REMARK    3  A    between atoms: C_8  and  C_9
REMARK    4  A    between atoms: C_12  and  C_13
REMARK                            x       y       z     vdW  Elec       q    Type
REMARK                         _______ _______ _______ _____ _____    ______ ____
ROOT
ATOM      1  C   UNL     1       1.820   8.128  19.703  0.00  0.00    +0.000 A 
ATOM      2  C   UNL     1       1.938   8.789  18.478  0.00  0.00    +0.000 A 
ATOM      3  C   UNL     1       1.355  10.041  18.286  0.00  0.00    +0.000 A 
ATOM      4  C   UNL     1       0.639  10.647  19.316  0.00  0.00    +0.000 A 
ATOM      5  C   UNL     1       0.495   9.999  20.549  0.00  0.00    +0.000 A 
ATOM      6  C   UNL     1       1.092   8.738  20.732  0.00  0.00    +0.000 A 
ENDROOT
BRANCH   5   7
ATOM      7  C   UNL     1      -0.262  10.610  21.633  0.00  0.00    +0.000 A 
ATOM      8  N   UNL     1      -0.050  10.371  22.937  0.00  0.00    +0.000 NA
ATOM      9  O   UNL     1      -0.998  11.171  23.578  0.00  0.00    +0.000 OA
ATOM     10  C   UNL     1      -1.695  11.815  22.593  0.00  0.00    +0.000 A 
ATOM     11  N   UNL     1      -1.273  11.508  21.388  0.00  0.00    +0.000 NA
BRANCH  10  12
ATOM     12  C   UNL     1      -2.766  12.704  23.013  0.00  0.00    +0.000 A 
ATOM     13  N   UNL     1      -4.029  12.380  22.615  0.00  0.00    +0.000 NA
ATOM     14  C   UNL     1      -5.025  13.217  22.983  0.00  0.00    +0.000 A 
ATOM     15  C   UNL     1      -4.829  14.366  23.733  0.00  0.00    +0.000 A 
ATOM     16  C   UNL     1      -3.536  14.679  24.135  0.00  0.00    +0.000 A 
ATOM     17  C   UNL     1      -2.492  13.839  23.770  0.00  0.00    +0.000 A 
ATOM     18  F   UNL     1      -1.248  14.150  24.162  0.00  0.00    +0.000 F 
ENDBRANCH  10  12
ENDBRANCH   5   7
BRANCH   1  21
ATOM     19  O   UNL     1       1.998   5.771  17.944  0.00  0.00    +0.000 OA
ATOM     20  C   UNL     1       2.393   5.769  19.107  0.00  0.00    +0.000 C 
ATOM     21  N   UNL     1       2.376   6.855  19.962  0.00  0.00    +0.000 N 
ATOM     22  H   UNL     1       2.834   6.749  20.862  0.00  0.00    +0.000 HD
BRANCH  20  23
ATOM     23  C   UNL     1       2.966   4.498  19.639  0.00  0.00    +0.000 A 
ATOM     24  C   UNL     1       4.177   4.038  19.098  0.00  0.00    +0.000 A 
ATOM     25  C   UNL     1       4.750   2.844  19.543  0.00  0.00    +0.000 A 
ATOM     26  C   UNL     1       4.118   2.094  20.532  0.00  0.00    +0.000 A 
ATOM     27  C   UNL     1       2.916   2.540  21.078  0.00  0.00    +0.000 A 
ATOM     28  C   UNL     1       2.350   3.735  20.632  0.00  0.00    +0.000 A 
ATOM     29  F   UNL     1       1.194   4.128  21.190  0.00  0.00    +0.000 F 
ENDBRANCH  20  23
ENDBRANCH   1  21
TORSDOF 4
ENDMDL
