MODEL 1
REMARK VINA RESULT:      -8.7      0.000      0.000
REMARK  Name = 
REMARK  7 active torsions:
REMARK  status: ('A' for Active; 'I' for Inactive)
REMARK    1  A    between atoms: C_1  and  C_2
REMARK    2  A    between atoms: C_2  and  S_3
REMARK    3  A    between atoms: C_2  and  C_10
REMARK    4  A    between atoms: S_3  and  C_4
REMARK    5  A    between atoms: N_8  and  C_9
REMARK    6  A    between atoms: C_14  and  N_15
REMARK    7  A    between atoms: C_16  and  C_18
REMARK                            x       y       z     vdW  Elec       q    Type
REMARK                         _______ _______ _______ _____ _____    ______ ____
ROOT
ATOM      1  C   UNL     1       4.574   5.439  17.277  0.00  0.00    +0.000 A 
ATOM      2  C   UNL     1       3.850   4.233  17.282  0.00  0.00    +0.000 A 
ATOM      3  C   UNL     1       2.543   4.203  17.728  0.00  0.00    +0.000 A 
ATOM      4  C   UNL     1       1.944   5.370  18.202  0.00  0.00    +0.000 A 
ATOM      5  C   UNL     1       2.614   6.604  18.274  0.00  0.00    +0.000 A 
ATOM      6  C   UNL     1       3.941   6.622  17.772  0.00  0.00    +0.000 A 
ENDROOT
BRANCH   5   7
ATOM      7  N   UNL     1       1.977   7.789  18.844  0.00  0.00    +0.000 N 
ATOM      8  C   UNL     1       1.459   7.839  20.148  0.00  0.00    +0.000 C 
ATOM      9  O   UNL     1       1.529   6.893  20.936  0.00  0.00    +0.000 OA
ATOM     10  H   UNL     1       1.973   8.643  18.290  0.00  0.00    +0.000 HD
BRANCH   8  11
ATOM     11  C   UNL     1       0.753   9.055  20.770  0.00  0.00    +0.000 C 
ATOM     12  N   UNL     1       1.064  10.327  20.603  0.00  0.00    +0.000 NA
ATOM     13  C   UNL     1       0.272  11.270  21.367  0.00  0.00    +0.000 A 
ATOM     14  C   UNL     1       0.100  12.596  20.960  0.00  0.00    +0.000 A 
ATOM     15  C   UNL     1      -0.808  13.448  21.623  0.00  0.00    +0.000 A 
ATOM     16  C   UNL     1      -1.551  12.999  22.719  0.00  0.00    +0.000 A 
ATOM     17  C   UNL     1      -1.342  11.715  23.195  0.00  0.00    +0.000 A 
ATOM     18  C   UNL     1      -0.432  10.871  22.531  0.00  0.00    +0.000 A 
ATOM     19  C   UNL     1      -0.261   9.456  22.978  0.00  0.00    +0.000 C 
ATOM     20  C   UNL     1      -0.410   8.664  21.697  0.00  0.00    +0.000 C 
ENDBRANCH   8  11
ENDBRANCH   5   7
BRANCH   1  22
ATOM     21  C   UNL     1       7.133   5.563  17.757  0.00  0.00    +0.000 C 
ATOM     22  C   UNL     1       6.009   5.337  16.751  0.00  0.00    +0.000 C 
BRANCH  22  23
ATOM     23  S   UNL     1       6.272   3.904  15.634  0.00  0.00    +0.000 S 
BRANCH  23  24
ATOM     24  C   UNL     1       7.061   4.599  14.273  0.00  0.00    +0.000 A 
ATOM     25  N   UNL     1       7.966   5.548  14.293  0.00  0.00    +0.000 NA
ATOM     26  N   UNL     1       8.342   5.798  12.994  0.00  0.00    +0.000 NA
ATOM     27  C   UNL     1       7.641   5.003  12.220  0.00  0.00    +0.000 A 
ATOM     28  N   UNL     1       6.792   4.251  12.980  0.00  0.00    +0.000 N 
ATOM     29  C   UNL     1       5.833   3.312  12.466  0.00  0.00    +0.000 C 
ENDBRANCH  23  24
ENDBRANCH  22  23
ENDBRANCH   1  22
TORSDOF 5
ENDMDL
MODEL 2
REMARK VINA RESULT:      -8.3      1.181      1.812
REMARK  Name = 
REMARK  7 active torsions:
REMARK  status: ('A' for Active; 'I' for Inactive)
REMARK    1  A    between atoms: C_1  and  C_2
REMARK    2  A    between atoms: C_2  and  S_3
REMARK    3  A    between atoms: C_2  and  C_10
REMARK    4  A    between atoms: S_3  and  C_4
REMARK    5  A    between atoms: N_8  and  C_9
REMARK    6  A    between atoms: C_14  and  N_15
REMARK    7  A    between atoms: C_16  and  C_18
REMARK                            x       y       z     vdW  Elec       q    Type
REMARK                         _______ _______ _______ _____ _____    ______ ____
ROOT
ATOM      1  C   UNL     1       4.591   5.598  17.194  0.00  0.00    +0.000 A 
ATOM      2  C   UNL     1       3.901   4.377  17.094  0.00  0.00    +0.000 A 
ATOM      3  C   UNL     1       2.640   4.238  17.643  0.00  0.00    +0.000 A 
ATOM      4  C   UNL     1       2.058   5.307  18.324  0.00  0.00    +0.000 A 
ATOM      5  C   UNL     1       2.701   6.544  18.508  0.00  0.00    +0.000 A 
ATOM      6  C   UNL     1       3.976   6.679  17.901  0.00  0.00    +0.000 A 
ENDROOT
BRANCH   5   7
ATOM      7  N   UNL     1       2.088   7.616  19.288  0.00  0.00    +0.000 N 
ATOM      8  C   UNL     1       1.567   8.789  18.718  0.00  0.00    +0.000 C 
ATOM      9  O   UNL     1       1.554   8.998  17.503  0.00  0.00    +0.000 OA
ATOM     10  H   UNL     1       1.968   7.473  20.288  0.00  0.00    +0.000 HD
BRANCH   8  11
ATOM     11  C   UNL     1       0.946   9.952  19.508  0.00  0.00    +0.000 C 
ATOM     12  N   UNL     1       0.142   9.866  20.551  0.00  0.00    +0.000 NA
ATOM     13  C   UNL     1      -0.357  11.127  21.063  0.00  0.00    +0.000 A 
ATOM     14  C   UNL     1      -0.767  11.280  22.391  0.00  0.00    +0.000 A 
ATOM     15  C   UNL     1      -1.087  12.551  22.911  0.00  0.00    +0.000 A 
ATOM     16  C   UNL     1      -1.024  13.696  22.111  0.00  0.00    +0.000 A 
ATOM     17  C   UNL     1      -0.700  13.565  20.770  0.00  0.00    +0.000 A 
ATOM     18  C   UNL     1      -0.384  12.292  20.256  0.00  0.00    +0.000 A 
ATOM     19  C   UNL     1       0.053  12.147  18.836  0.00  0.00    +0.000 C 
ATOM     20  C   UNL     1       1.323  11.332  18.942  0.00  0.00    +0.000 C 
ENDBRANCH   8  11
ENDBRANCH   5   7
BRANCH   1  22
ATOM     21  C   UNL     1       7.128   6.170  17.372  0.00  0.00    +0.000 C 
ATOM     22  C   UNL     1       5.974   5.622  16.537  0.00  0.00    +0.000 C 
BRANCH  22  23
ATOM     23  S   UNL     1       6.370   4.080  15.623  0.00  0.00    +0.000 S 
BRANCH  23  24
ATOM     24  C   UNL     1       7.072   4.652  14.161  0.00  0.00    +0.000 A 
ATOM     25  N   UNL     1       8.029   5.543  14.049  0.00  0.00    +0.000 NA
ATOM     26  N   UNL     1       8.301   5.701  12.710  0.00  0.00    +0.000 NA
ATOM     27  C   UNL     1       7.490   4.911  12.047  0.00  0.00    +0.000 A 
ATOM     28  N   UNL     1       6.670   4.255  12.918  0.00  0.00    +0.000 N 
ATOM     29  C   UNL     1       5.616   3.351  12.544  0.00  0.00    +0.000 C 
ENDBRANCH  23  24
ENDBRANCH  22  23
ENDBRANCH   1  22
TORSDOF 5
ENDMDL
MODEL 3
REMARK VINA RESULT:      -8.3      0.983      1.001
REMARK  Name = 
REMARK  7 active torsions:
REMARK  status: ('A' for Active; 'I' for Inactive)
REMARK    1  A    between atoms: C_1  and  C_2
REMARK    2  A    between atoms: C_2  and  S_3
REMARK    3  A    between atoms: C_2  and  C_10
REMARK    4  A    between atoms: S_3  and  C_4
REMARK    5  A    between atoms: N_8  and  C_9
REMARK    6  A    between atoms: C_14  and  N_15
REMARK    7  A    between atoms: C_16  and  C_18
REMARK                            x       y       z     vdW  Elec       q    Type
REMARK                         _______ _______ _______ _____ _____    ______ ____
ROOT
ATOM      1  C   UNL     1       4.461   5.408  17.418  0.00  0.00    +0.000 A 
ATOM      2  C   UNL     1       3.671   4.264  17.208  0.00  0.00    +0.000 A 
ATOM      3  C   UNL     1       2.378   4.207  17.691  0.00  0.00    +0.000 A 
ATOM      4  C   UNL     1       1.860   5.279  18.416  0.00  0.00    +0.000 A 
ATOM      5  C   UNL     1       2.599   6.438  18.711  0.00  0.00    +0.000 A 
ATOM      6  C   UNL     1       3.909   6.494  18.169  0.00  0.00    +0.000 A 
ENDROOT
BRANCH   5   7
ATOM      7  N   UNL     1       2.046   7.510  19.535  0.00  0.00    +0.000 N 
ATOM      8  C   UNL     1       1.477   8.679  19.004  0.00  0.00    +0.000 C 
ATOM      9  O   UNL     1       1.367   8.885  17.793  0.00  0.00    +0.000 OA
ATOM     10  H   UNL     1       2.007   7.369  20.542  0.00  0.00    +0.000 HD
BRANCH   8  11
ATOM     11  C   UNL     1       0.916   9.843  19.838  0.00  0.00    +0.000 C 
ATOM     12  N   UNL     1       1.395  11.071  19.913  0.00  0.00    +0.000 NA
ATOM     13  C   UNL     1       0.709  11.954  20.835  0.00  0.00    +0.000 A 
ATOM     14  C   UNL     1       0.723  13.344  20.682  0.00  0.00    +0.000 A 
ATOM     15  C   UNL     1      -0.086  14.172  21.487  0.00  0.00    +0.000 A 
ATOM     16  C   UNL     1      -0.914  13.632  22.476  0.00  0.00    +0.000 A 
ATOM     17  C   UNL     1      -0.888  12.266  22.705  0.00  0.00    +0.000 A 
ATOM     18  C   UNL     1      -0.075  11.445  21.900  0.00  0.00    +0.000 A 
ATOM     19  C   UNL     1      -0.103   9.962  22.076  0.00  0.00    +0.000 C 
ATOM     20  C   UNL     1      -0.316   9.447  20.670  0.00  0.00    +0.000 C 
ENDBRANCH   8  11
ENDBRANCH   5   7
BRANCH   1  22
ATOM     21  C   UNL     1       7.034   5.610  17.776  0.00  0.00    +0.000 C 
ATOM     22  C   UNL     1       5.871   5.347  16.825  0.00  0.00    +0.000 C 
BRANCH  22  23
ATOM     23  S   UNL     1       6.124   3.918  15.700  0.00  0.00    +0.000 S 
BRANCH  23  24
ATOM     24  C   UNL     1       6.970   4.603  14.370  0.00  0.00    +0.000 A 
ATOM     25  N   UNL     1       7.892   5.535  14.424  0.00  0.00    +0.000 NA
ATOM     26  N   UNL     1       8.315   5.782  13.139  0.00  0.00    +0.000 NA
ATOM     27  C   UNL     1       7.626   5.004  12.339  0.00  0.00    +0.000 A 
ATOM     28  N   UNL     1       6.738   4.265  13.067  0.00  0.00    +0.000 N 
ATOM     29  C   UNL     1       5.779   3.346  12.517  0.00  0.00    +0.000 C 
ENDBRANCH  23  24
ENDBRANCH  22  23
ENDBRANCH   1  22
TORSDOF 5
ENDMDL
MODEL 4
REMARK VINA RESULT:      -8.3      1.105      1.192
REMARK  Name = 
REMARK  7 active torsions:
REMARK  status: ('A' for Active; 'I' for Inactive)
REMARK    1  A    between atoms: C_1  and  C_2
REMARK    2  A    between atoms: C_2  and  S_3
REMARK    3  A    between atoms: C_2  and  C_10
REMARK    4  A    between atoms: S_3  and  C_4
REMARK    5  A    between atoms: N_8  and  C_9
REMARK    6  A    between atoms: C_14  and  N_15
REMARK    7  A    between atoms: C_16  and  C_18
REMARK                            x       y       z     vdW  Elec       q    Type
REMARK                         _______ _______ _______ _____ _____    ______ ____
ROOT
ATOM      1  C   UNL     1       4.230   5.084  17.684  0.00  0.00    +0.000 A 
ATOM      2  C   UNL     1       4.436   3.832  18.293  0.00  0.00    +0.000 A 
ATOM      3  C   UNL     1       3.844   3.537  19.505  0.00  0.00    +0.000 A 
ATOM      4  C   UNL     1       3.058   4.495  20.145  0.00  0.00    +0.000 A 
ATOM      5  C   UNL     1       2.841   5.784  19.628  0.00  0.00    +0.000 A 
ATOM      6  C   UNL     1       3.423   6.052  18.361  0.00  0.00    +0.000 A 
ENDROOT
BRANCH   5   7
ATOM      7  N   UNL     1       2.069   6.784  20.362  0.00  0.00    +0.000 N 
ATOM      8  C   UNL     1       1.662   8.008  19.807  0.00  0.00    +0.000 C 
ATOM      9  O   UNL     1       1.895   8.328  18.639  0.00  0.00    +0.000 OA
ATOM     10  H   UNL     1       1.750   6.549  21.299  0.00  0.00    +0.000 HD
BRANCH   8  11
ATOM     11  C   UNL     1       0.879   9.098  20.557  0.00  0.00    +0.000 C 
ATOM     12  N   UNL     1       1.155  10.388  20.600  0.00  0.00    +0.000 NA
ATOM     13  C   UNL     1       0.288  11.186  21.444  0.00  0.00    +0.000 A 
ATOM     14  C   UNL     1       0.093  12.553  21.229  0.00  0.00    +0.000 A 
ATOM     15  C   UNL     1      -0.881  13.272  21.952  0.00  0.00    +0.000 A 
ATOM     16  C   UNL     1      -1.669  12.645  22.922  0.00  0.00    +0.000 A 
ATOM     17  C   UNL     1      -1.443  11.310  23.215  0.00  0.00    +0.000 A 
ATOM     18  C   UNL     1      -0.468  10.598  22.491  0.00  0.00    +0.000 A 
ATOM     19  C   UNL     1      -0.274   9.137  22.733  0.00  0.00    +0.000 C 
ATOM     20  C   UNL     1      -0.322   8.543  21.343  0.00  0.00    +0.000 C 
ENDBRANCH   8  11
ENDBRANCH   5   7
BRANCH   1  22
ATOM     21  C   UNL     1       5.180   6.717  15.890  0.00  0.00    +0.000 C 
ATOM     22  C   UNL     1       4.936   5.281  16.340  0.00  0.00    +0.000 C 
BRANCH  22  23
ATOM     23  S   UNL     1       6.370   4.160  16.102  0.00  0.00    +0.000 S 
BRANCH  23  24
ATOM     24  C   UNL     1       7.062   4.705  14.626  0.00  0.00    +0.000 A 
ATOM     25  N   UNL     1       8.044   5.566  14.492  0.00  0.00    +0.000 NA
ATOM     26  N   UNL     1       8.295   5.710  13.148  0.00  0.00    +0.000 NA
ATOM     27  C   UNL     1       7.448   4.944  12.503  0.00  0.00    +0.000 A 
ATOM     28  N   UNL     1       6.624   4.317  13.392  0.00  0.00    +0.000 N 
ATOM     29  C   UNL     1       5.536   3.445  13.041  0.00  0.00    +0.000 C 
ENDBRANCH  23  24
ENDBRANCH  22  23
ENDBRANCH   1  22
TORSDOF 5
ENDMDL
MODEL 5
REMARK VINA RESULT:      -8.3      2.763      4.438
REMARK  Name = 
REMARK  7 active torsions:
REMARK  status: ('A' for Active; 'I' for Inactive)
REMARK    1  A    between atoms: C_1  and  C_2
REMARK    2  A    between atoms: C_2  and  S_3
REMARK    3  A    between atoms: C_2  and  C_10
REMARK    4  A    between atoms: S_3  and  C_4
REMARK    5  A    between atoms: N_8  and  C_9
REMARK    6  A    between atoms: C_14  and  N_15
REMARK    7  A    between atoms: C_16  and  C_18
REMARK                            x       y       z     vdW  Elec       q    Type
REMARK                         _______ _______ _______ _____ _____    ______ ____
ROOT
ATOM      1  C   UNL     1       2.239   7.472  19.356  0.00  0.00    +0.000 A 
ATOM      2  C   UNL     1       2.614   7.903  18.070  0.00  0.00    +0.000 A 
ATOM      3  C   UNL     1       2.196   9.131  17.594  0.00  0.00    +0.000 A 
ATOM      4  C   UNL     1       1.374   9.938  18.380  0.00  0.00    +0.000 A 
ATOM      5  C   UNL     1       0.916   9.560  19.655  0.00  0.00    +0.000 A 
ATOM      6  C   UNL     1       1.391   8.315  20.143  0.00  0.00    +0.000 A 
ENDROOT
BRANCH   5   7
ATOM      7  N   UNL     1      -0.002  10.401  20.419  0.00  0.00    +0.000 N 
ATOM      8  C   UNL     1       0.413  11.498  21.190  0.00  0.00    +0.000 C 
ATOM      9  O   UNL     1       1.589  11.865  21.261  0.00  0.00    +0.000 OA
ATOM     10  H   UNL     1      -1.000  10.225  20.330  0.00  0.00    +0.000 HD
BRANCH   8  11
ATOM     11  C   UNL     1      -0.517  12.385  22.034  0.00  0.00    +0.000 C 
ATOM     12  N   UNL     1      -0.160  13.325  22.889  0.00  0.00    +0.000 NA
ATOM     13  C   UNL     1      -1.246  13.964  23.607  0.00  0.00    +0.000 A 
ATOM     14  C   UNL     1      -1.133  15.255  24.129  0.00  0.00    +0.000 A 
ATOM     15  C   UNL     1      -2.251  15.920  24.672  0.00  0.00    +0.000 A 
ATOM     16  C   UNL     1      -3.505  15.303  24.723  0.00  0.00    +0.000 A 
ATOM     17  C   UNL     1      -3.630  13.994  24.286  0.00  0.00    +0.000 A 
ATOM     18  C   UNL     1      -2.508  13.334  23.748  0.00  0.00    +0.000 A 
ATOM     19  C   UNL     1      -2.647  11.955  23.192  0.00  0.00    +0.000 C 
ATOM     20  C   UNL     1      -2.007  12.062  21.826  0.00  0.00    +0.000 C 
ENDBRANCH   8  11
ENDBRANCH   5   7
BRANCH   1  22
ATOM     21  C   UNL     1       1.923   5.284  20.735  0.00  0.00    +0.000 C 
ATOM     22  C   UNL     1       2.774   6.098  19.766  0.00  0.00    +0.000 C 
BRANCH  22  23
ATOM     23  S   UNL     1       3.447   5.132  18.358  0.00  0.00    +0.000 S 
BRANCH  23  24
ATOM     24  C   UNL     1       5.149   5.252  18.568  0.00  0.00    +0.000 A 
ATOM     25  N   UNL     1       5.808   5.153  19.699  0.00  0.00    +0.000 NA
ATOM     26  N   UNL     1       7.146   5.297  19.420  0.00  0.00    +0.000 NA
ATOM     27  C   UNL     1       7.261   5.496  18.128  0.00  0.00    +0.000 A 
ATOM     28  N   UNL     1       6.024   5.512  17.552  0.00  0.00    +0.000 N 
ATOM     29  C   UNL     1       5.762   5.762  16.161  0.00  0.00    +0.000 C 
ENDBRANCH  23  24
ENDBRANCH  22  23
ENDBRANCH   1  22
TORSDOF 5
ENDMDL
MODEL 6
REMARK VINA RESULT:      -8.1      1.538      1.867
REMARK  Name = 
REMARK  7 active torsions:
REMARK  status: ('A' for Active; 'I' for Inactive)
REMARK    1  A    between atoms: C_1  and  C_2
REMARK    2  A    between atoms: C_2  and  S_3
REMARK    3  A    between atoms: C_2  and  C_10
REMARK    4  A    between atoms: S_3  and  C_4
REMARK    5  A    between atoms: N_8  and  C_9
REMARK    6  A    between atoms: C_14  and  N_15
REMARK    7  A    between atoms: C_16  and  C_18
REMARK                            x       y       z     vdW  Elec       q    Type
REMARK                         _______ _______ _______ _____ _____    ______ ____
ROOT
ATOM      1  C   UNL     1       4.578   5.424  17.604  0.00  0.00    +0.000 A 
ATOM      2  C   UNL     1       3.972   4.195  17.922  0.00  0.00    +0.000 A 
ATOM      3  C   UNL     1       2.752   4.163  18.570  0.00  0.00    +0.000 A 
ATOM      4  C   UNL     1       2.129   5.355  18.937  0.00  0.00    +0.000 A 
ATOM      5  C   UNL     1       2.690   6.622  18.699  0.00  0.00    +0.000 A 
ATOM      6  C   UNL     1       3.922   6.634  17.994  0.00  0.00    +0.000 A 
ENDROOT
BRANCH   5   7
ATOM      7  N   UNL     1       2.041   7.846  19.161  0.00  0.00    +0.000 N 
ATOM      8  C   UNL     1       1.833   8.969  18.344  0.00  0.00    +0.000 C 
ATOM      9  O   UNL     1       2.154   9.004  17.154  0.00  0.00    +0.000 OA
ATOM     10  H   UNL     1       1.657   7.858  20.103  0.00  0.00    +0.000 HD
BRANCH   8  11
ATOM     11  C   UNL     1       1.185  10.285  18.804  0.00  0.00    +0.000 C 
ATOM     12  N   UNL     1       1.703  11.497  18.724  0.00  0.00    +0.000 NA
ATOM     13  C   UNL     1       0.902  12.559  19.300  0.00  0.00    +0.000 A 
ATOM     14  C   UNL     1       1.016  13.887  18.878  0.00  0.00    +0.000 A 
ATOM     15  C   UNL     1       0.112  14.872  19.328  0.00  0.00    +0.000 A 
ATOM     16  C   UNL     1      -0.913  14.556  20.225  0.00  0.00    +0.000 A 
ATOM     17  C   UNL     1      -1.001  13.267  20.722  0.00  0.00    +0.000 A 
ATOM     18  C   UNL     1      -0.094  12.288  20.272  0.00  0.00    +0.000 A 
ATOM     19  C   UNL     1      -0.230  10.873  20.731  0.00  0.00    +0.000 C 
ATOM     20  C   UNL     1      -0.200  10.083  19.442  0.00  0.00    +0.000 C 
ENDBRANCH   8  11
ENDBRANCH   5   7
BRANCH   1  22
ATOM     21  C   UNL     1       7.181   5.453  17.731  0.00  0.00    +0.000 C 
ATOM     22  C   UNL     1       5.922   5.321  16.879  0.00  0.00    +0.000 C 
BRANCH  22  23
ATOM     23  S   UNL     1       5.982   3.958  15.650  0.00  0.00    +0.000 S 
BRANCH  23  24
ATOM     24  C   UNL     1       6.902   4.624  14.359  0.00  0.00    +0.000 A 
ATOM     25  N   UNL     1       7.842   5.534  14.456  0.00  0.00    +0.000 NA
ATOM     26  N   UNL     1       8.327   5.774  13.192  0.00  0.00    +0.000 NA
ATOM     27  C   UNL     1       7.656   5.013  12.361  0.00  0.00    +0.000 A 
ATOM     28  N   UNL     1       6.719   4.295  13.047  0.00  0.00    +0.000 N 
ATOM     29  C   UNL     1       5.764   3.399  12.453  0.00  0.00    +0.000 C 
ENDBRANCH  23  24
ENDBRANCH  22  23
ENDBRANCH   1  22
TORSDOF 5
ENDMDL
MODEL 7
REMARK VINA RESULT:      -8.1      5.779      8.349
REMARK  Name = 
REMARK  7 active torsions:
REMARK  status: ('A' for Active; 'I' for Inactive)
REMARK    1  A    between atoms: C_1  and  C_2
REMARK    2  A    between atoms: C_2  and  S_3
REMARK    3  A    between atoms: C_2  and  C_10
REMARK    4  A    between atoms: S_3  and  C_4
REMARK    5  A    between atoms: N_8  and  C_9
REMARK    6  A    between atoms: C_14  and  N_15
REMARK    7  A    between atoms: C_16  and  C_18
REMARK                            x       y       z     vdW  Elec       q    Type
REMARK                         _______ _______ _______ _____ _____    ______ ____
ROOT
ATOM      1  C   UNL     1       6.098   5.703  17.294  0.00  0.00    +0.000 A 
ATOM      2  C   UNL     1       6.876   4.945  18.187  0.00  0.00    +0.000 A 
ATOM      3  C   UNL     1       7.903   5.537  18.897  0.00  0.00    +0.000 A 
ATOM      4  C   UNL     1       8.189   6.889  18.707  0.00  0.00    +0.000 A 
ATOM      5  C   UNL     1       7.490   7.704  17.800  0.00  0.00    +0.000 A 
ATOM      6  C   UNL     1       6.412   7.087  17.113  0.00  0.00    +0.000 A 
ENDROOT
BRANCH   5   7
ATOM      7  N   UNL     1       7.864   9.098  17.577  0.00  0.00    +0.000 N 
ATOM      8  C   UNL     1       8.723   9.814  18.425  0.00  0.00    +0.000 C 
ATOM      9  O   UNL     1       9.262   9.314  19.416  0.00  0.00    +0.000 OA
ATOM     10  H   UNL     1       7.542   9.550  16.724  0.00  0.00    +0.000 HD
BRANCH   8  11
ATOM     11  C   UNL     1       9.114  11.290  18.243  0.00  0.00    +0.000 C 
ATOM     12  N   UNL     1       8.328  12.279  17.858  0.00  0.00    +0.000 NA
ATOM     13  C   UNL     1       8.975  13.566  17.700  0.00  0.00    +0.000 A 
ATOM     14  C   UNL     1       8.271  14.769  17.807  0.00  0.00    +0.000 A 
ATOM     15  C   UNL     1       8.945  16.008  17.819  0.00  0.00    +0.000 A 
ATOM     16  C   UNL     1      10.337  16.073  17.704  0.00  0.00    +0.000 A 
ATOM     17  C   UNL     1      11.054  14.903  17.515  0.00  0.00    +0.000 A 
ATOM     18  C   UNL     1      10.375  13.670  17.502  0.00  0.00    +0.000 A 
ATOM     19  C   UNL     1      11.142  12.394  17.388  0.00  0.00    +0.000 C 
ATOM     20  C   UNL     1      10.602  11.558  18.527  0.00  0.00    +0.000 C 
ENDBRANCH   8  11
ENDBRANCH   5   7
BRANCH   1  22
ATOM     21  C   UNL     1       5.200   4.624  15.098  0.00  0.00    +0.000 C 
ATOM     22  C   UNL     1       4.987   4.930  16.577  0.00  0.00    +0.000 C 
BRANCH  22  23
ATOM     23  S   UNL     1       4.339   3.518  17.554  0.00  0.00    +0.000 S 
BRANCH  23  24
ATOM     24  C   UNL     1       3.269   4.265  18.674  0.00  0.00    +0.000 A 
ATOM     25  N   UNL     1       3.506   5.343  19.383  0.00  0.00    +0.000 NA
ATOM     26  N   UNL     1       2.387   5.605  20.137  0.00  0.00    +0.000 NA
ATOM     27  C   UNL     1       1.507   4.667  19.876  0.00  0.00    +0.000 A 
ATOM     28  N   UNL     1       2.032   3.777  18.985  0.00  0.00    +0.000 N 
ATOM     29  C   UNL     1       1.373   2.589  18.514  0.00  0.00    +0.000 C 
ENDBRANCH  23  24
ENDBRANCH  22  23
ENDBRANCH   1  22
TORSDOF 5
ENDMDL
MODEL 8
REMARK VINA RESULT:      -8.1      3.897     11.338
REMARK  Name = 
REMARK  7 active torsions:
REMARK  status: ('A' for Active; 'I' for Inactive)
REMARK    1  A    between atoms: C_1  and  C_2
REMARK    2  A    between atoms: C_2  and  S_3
REMARK    3  A    between atoms: C_2  and  C_10
REMARK    4  A    between atoms: S_3  and  C_4
REMARK    5  A    between atoms: N_8  and  C_9
REMARK    6  A    between atoms: C_14  and  N_15
REMARK    7  A    between atoms: C_16  and  C_18
REMARK                            x       y       z     vdW  Elec       q    Type
REMARK                         _______ _______ _______ _____ _____    ______ ____
ROOT
ATOM      1  C   UNL     1      -0.747  11.293  21.718  0.00  0.00    +0.000 A 
ATOM      2  C   UNL     1      -0.881  10.699  22.985  0.00  0.00    +0.000 A 
ATOM      3  C   UNL     1      -0.184   9.547  23.296  0.00  0.00    +0.000 A 
ATOM      4  C   UNL     1       0.637   8.953  22.339  0.00  0.00    +0.000 A 
ATOM      5  C   UNL     1       0.789   9.457  21.035  0.00  0.00    +0.000 A 
ATOM      6  C   UNL     1       0.098  10.663  20.750  0.00  0.00    +0.000 A 
ENDROOT
BRANCH   5   7
ATOM      7  N   UNL     1       1.603   8.767  20.037  0.00  0.00    +0.000 N 
ATOM      8  C   UNL     1       1.898   7.395  20.092  0.00  0.00    +0.000 C 
ATOM      9  O   UNL     1       1.465   6.649  20.973  0.00  0.00    +0.000 OA
ATOM     10  H   UNL     1       1.912   9.294  19.224  0.00  0.00    +0.000 HD
BRANCH   8  11
ATOM     11  C   UNL     1       2.777   6.642  19.081  0.00  0.00    +0.000 C 
ATOM     12  N   UNL     1       3.307   7.125  17.972  0.00  0.00    +0.000 NA
ATOM     13  C   UNL     1       4.039   6.172  17.162  0.00  0.00    +0.000 A 
ATOM     14  C   UNL     1       5.052   6.567  16.283  0.00  0.00    +0.000 A 
ATOM     15  C   UNL     1       5.864   5.614  15.633  0.00  0.00    +0.000 A 
ATOM     16  C   UNL     1       5.669   4.244  15.832  0.00  0.00    +0.000 A 
ATOM     17  C   UNL     1       4.621   3.821  16.633  0.00  0.00    +0.000 A 
ATOM     18  C   UNL     1       3.812   4.777  17.277  0.00  0.00    +0.000 A 
ATOM     19  C   UNL     1       2.735   4.338  18.213  0.00  0.00    +0.000 C 
ATOM     20  C   UNL     1       2.991   5.165  19.454  0.00  0.00    +0.000 C 
ENDBRANCH   8  11
ENDBRANCH   5   7
BRANCH   1  22
ATOM     21  C   UNL     1      -2.806  12.456  20.622  0.00  0.00    +0.000 C 
ATOM     22  C   UNL     1      -1.567  12.568  21.504  0.00  0.00    +0.000 C 
BRANCH  22  23
ATOM     23  S   UNL     1      -1.822  13.534  23.044  0.00  0.00    +0.000 S 
BRANCH  23  24
ATOM     24  C   UNL     1      -3.447  13.177  23.475  0.00  0.00    +0.000 A 
ATOM     25  N   UNL     1      -3.882  12.083  24.056  0.00  0.00    +0.000 NA
ATOM     26  N   UNL     1      -5.239  12.211  24.231  0.00  0.00    +0.000 NA
ATOM     27  C   UNL     1      -5.594  13.373  23.736  0.00  0.00    +0.000 A 
ATOM     28  N   UNL     1      -4.502  14.005  23.215  0.00  0.00    +0.000 N 
ATOM     29  C   UNL     1      -4.523  15.274  22.539  0.00  0.00    +0.000 C 
ENDBRANCH  23  24
ENDBRANCH  22  23
ENDBRANCH   1  22
TORSDOF 5
ENDMDL
MODEL 9
REMARK VINA RESULT:      -8.1      3.002      4.577
REMARK  Name = 
REMARK  7 active torsions:
REMARK  status: ('A' for Active; 'I' for Inactive)
REMARK    1  A    between atoms: C_1  and  C_2
REMARK    2  A    between atoms: C_2  and  S_3
REMARK    3  A    between atoms: C_2  and  C_10
REMARK    4  A    between atoms: S_3  and  C_4
REMARK    5  A    between atoms: N_8  and  C_9
REMARK    6  A    between atoms: C_14  and  N_15
REMARK    7  A    between atoms: C_16  and  C_18
REMARK                            x       y       z     vdW  Elec       q    Type
REMARK                         _______ _______ _______ _____ _____    ______ ____
ROOT
ATOM      1  C   UNL     1       2.452   7.181  19.414  0.00  0.00    +0.000 A 
ATOM      2  C   UNL     1       2.788   7.597  18.113  0.00  0.00    +0.000 A 
ATOM      3  C   UNL     1       2.291   8.782  17.606  0.00  0.00    +0.000 A 
ATOM      4  C   UNL     1       1.427   9.558  18.376  0.00  0.00    +0.000 A 
ATOM      5  C   UNL     1       1.004   9.190  19.666  0.00  0.00    +0.000 A 
ATOM      6  C   UNL     1       1.560   7.992  20.185  0.00  0.00    +0.000 A 
ENDROOT
BRANCH   5   7
ATOM      7  N   UNL     1       0.042   9.995  20.416  0.00  0.00    +0.000 N 
ATOM      8  C   UNL     1       0.372  11.202  21.052  0.00  0.00    +0.000 C 
ATOM      9  O   UNL     1       1.498  11.702  21.005  0.00  0.00    +0.000 OA
ATOM     10  H   UNL     1      -0.932   9.701  20.414  0.00  0.00    +0.000 HD
BRANCH   8  11
ATOM     11  C   UNL     1      -0.603  12.058  21.877  0.00  0.00    +0.000 C 
ATOM     12  N   UNL     1      -1.788  11.697  22.333  0.00  0.00    +0.000 NA
ATOM     13  C   UNL     1      -2.533  12.731  23.025  0.00  0.00    +0.000 A 
ATOM     14  C   UNL     1      -3.510  12.430  23.979  0.00  0.00    +0.000 A 
ATOM     15  C   UNL     1      -4.100  13.445  24.760  0.00  0.00    +0.000 A 
ATOM     16  C   UNL     1      -3.742  14.786  24.592  0.00  0.00    +0.000 A 
ATOM     17  C   UNL     1      -2.837  15.123  23.599  0.00  0.00    +0.000 A 
ATOM     18  C   UNL     1      -2.253  14.105  22.821  0.00  0.00    +0.000 A 
ATOM     19  C   UNL     1      -1.210  14.444  21.807  0.00  0.00    +0.000 C 
ATOM     20  C   UNL     1      -0.085  13.485  22.128  0.00  0.00    +0.000 C 
ENDBRANCH   8  11
ENDBRANCH   5   7
BRANCH   1  22
ATOM     21  C   UNL     1       2.209   4.933  20.709  0.00  0.00    +0.000 C 
ATOM     22  C   UNL     1       3.076   5.855  19.858  0.00  0.00    +0.000 C 
BRANCH  22  23
ATOM     23  S   UNL     1       3.996   5.002  18.518  0.00  0.00    +0.000 S 
BRANCH  23  24
ATOM     24  C   UNL     1       5.642   5.326  18.896  0.00  0.00    +0.000 A 
ATOM     25  N   UNL     1       6.297   4.917  19.957  0.00  0.00    +0.000 NA
ATOM     26  N   UNL     1       7.586   5.386  19.861  0.00  0.00    +0.000 NA
ATOM     27  C   UNL     1       7.672   6.081  18.752  0.00  0.00    +0.000 A 
ATOM     28  N   UNL     1       6.460   6.101  18.125  0.00  0.00    +0.000 N 
ATOM     29  C   UNL     1       6.167   6.816  16.912  0.00  0.00    +0.000 C 
ENDBRANCH  23  24
ENDBRANCH  22  23
ENDBRANCH   1  22
TORSDOF 5
ENDMDL
