MODEL 1
REMARK VINA RESULT:      -8.8      0.000      0.000
REMARK  Name = 
REMARK  6 active torsions:
REMARK  status: ('A' for Active; 'I' for Inactive)
REMARK    1  A    between atoms: C_1  and  O_2
REMARK    2  A    between atoms: O_2  and  C_3
REMARK    3  A    between atoms: N_5  and  C_6
REMARK    4  A    between atoms: C_9  and  N_10
REMARK    5  A    between atoms: N_10  and  C_11
REMARK    6  A    between atoms: C_13  and  C_14
REMARK                            x       y       z     vdW  Elec       q    Type
REMARK                         _______ _______ _______ _____ _____    ______ ____
ROOT
ATOM      1  C   UNL     1       4.900   4.485  17.629  0.00  0.00    +0.000 A 
ATOM      2  C   UNL     1       5.074   4.353  16.302  0.00  0.00    +0.000 A 
ATOM      3  C   UNL     1       6.453   4.586  15.765  0.00  0.00    +0.000 A 
ATOM      4  N   UNL     1       7.478   4.937  16.489  0.00  0.00    +0.000 NA
ATOM      5  C   UNL     1       7.269   5.073  17.830  0.00  0.00    +0.000 A 
ATOM      6  N   UNL     1       8.125   5.387  18.779  0.00  0.00    +0.000 NA
ATOM      7  C   UNL     1       7.371   5.361  19.910  0.00  0.00    +0.000 A 
ATOM      8  N   UNL     1       6.083   5.053  19.751  0.00  0.00    +0.000 NA
ATOM      9  N   UNL     1       6.012   4.862  18.405  0.00  0.00    +0.000 N 
ENDROOT
BRANCH   3  10
ATOM     10  C   UNL     1       6.629   4.411  14.291  0.00  0.00    +0.000 A 
ATOM     11  C   UNL     1       5.792   3.508  13.619  0.00  0.00    +0.000 A 
ATOM     12  C   UNL     1       5.926   3.317  12.242  0.00  0.00    +0.000 A 
ATOM     13  C   UNL     1       6.888   4.027  11.528  0.00  0.00    +0.000 A 
ATOM     14  C   UNL     1       7.714   4.937  12.187  0.00  0.00    +0.000 A 
ATOM     15  C   UNL     1       7.581   5.135  13.563  0.00  0.00    +0.000 A 
ENDBRANCH   3  10
BRANCH   1  16
ATOM     16  N   UNL     1       3.675   4.270  18.279  0.00  0.00    +0.000 N 
ATOM     17  H   UNL     1       3.039   3.781  17.635  0.00  0.00    +0.000 HD
BRANCH  16  21
ATOM     18  C   UNL     1       1.785   7.615  20.083  0.00  0.00    +0.000 A 
ATOM     19  C   UNL     1       1.843   6.392  20.748  0.00  0.00    +0.000 A 
ATOM     20  C   UNL     1       2.434   5.278  20.149  0.00  0.00    +0.000 A 
ATOM     21  C   UNL     1       2.958   5.353  18.856  0.00  0.00    +0.000 A 
ATOM     22  C   UNL     1       2.903   6.581  18.187  0.00  0.00    +0.000 A 
ATOM     23  C   UNL     1       2.294   7.698  18.782  0.00  0.00    +0.000 A 
BRANCH  18  26
ATOM     24  C   UNL     1       0.063   8.867  21.350  0.00  0.00    +0.000 C 
ATOM     25  O   UNL     1      -0.741   7.967  21.560  0.00  0.00    +0.000 OA
ATOM     26  N   UNL     1       1.255   8.776  20.677  0.00  0.00    +0.000 N 
ATOM     27  H   UNL     1       1.831   9.606  20.734  0.00  0.00    +0.000 HD
BRANCH  24  29
ATOM     28  C   UNL     1      -0.638  10.171  23.144  0.00  0.00    +0.000 C 
ATOM     29  O   UNL     1      -0.101  10.135  21.817  0.00  0.00    +0.000 OA
ENDBRANCH  24  29
ENDBRANCH  18  26
ENDBRANCH  16  21
ENDBRANCH   1  16
TORSDOF 5
ENDMDL
MODEL 2
REMARK VINA RESULT:      -8.7      1.363      1.937
REMARK  Name = 
REMARK  6 active torsions:
REMARK  status: ('A' for Active; 'I' for Inactive)
REMARK    1  A    between atoms: C_1  and  O_2
REMARK    2  A    between atoms: O_2  and  C_3
REMARK    3  A    between atoms: N_5  and  C_6
REMARK    4  A    between atoms: C_9  and  N_10
REMARK    5  A    between atoms: N_10  and  C_11
REMARK    6  A    between atoms: C_13  and  C_14
REMARK                            x       y       z     vdW  Elec       q    Type
REMARK                         _______ _______ _______ _____ _____    ______ ____
ROOT
ATOM      1  C   UNL     1       4.886   4.979  17.608  0.00  0.00    +0.000 A 
ATOM      2  C   UNL     1       5.022   4.768  16.286  0.00  0.00    +0.000 A 
ATOM      3  C   UNL     1       6.416   4.658  15.750  0.00  0.00    +0.000 A 
ATOM      4  N   UNL     1       7.496   4.785  16.469  0.00  0.00    +0.000 NA
ATOM      5  C   UNL     1       7.326   5.008  17.804  0.00  0.00    +0.000 A 
ATOM      6  N   UNL     1       8.234   5.145  18.747  0.00  0.00    +0.000 NA
ATOM      7  C   UNL     1       7.496   5.331  19.874  0.00  0.00    +0.000 A 
ATOM      8  N   UNL     1       6.172   5.323  19.718  0.00  0.00    +0.000 NA
ATOM      9  N   UNL     1       6.056   5.112  18.378  0.00  0.00    +0.000 N 
ENDROOT
BRANCH   3  10
ATOM     10  C   UNL     1       6.544   4.401  14.284  0.00  0.00    +0.000 A 
ATOM     11  C   UNL     1       7.550   5.070  13.571  0.00  0.00    +0.000 A 
ATOM     12  C   UNL     1       7.700   4.855  12.199  0.00  0.00    +0.000 A 
ATOM     13  C   UNL     1       6.854   3.972  11.533  0.00  0.00    +0.000 A 
ATOM     14  C   UNL     1       5.862   3.293  12.237  0.00  0.00    +0.000 A 
ATOM     15  C   UNL     1       5.710   3.500  13.610  0.00  0.00    +0.000 A 
ENDBRANCH   3  10
BRANCH   1  16
ATOM     16  N   UNL     1       3.645   5.073  18.257  0.00  0.00    +0.000 N 
ATOM     17  H   UNL     1       2.944   4.554  17.712  0.00  0.00    +0.000 HD
BRANCH  16  21
ATOM     18  C   UNL     1       1.725   8.751  19.155  0.00  0.00    +0.000 A 
ATOM     19  C   UNL     1       2.381   8.574  17.939  0.00  0.00    +0.000 A 
ATOM     20  C   UNL     1       3.042   7.379  17.648  0.00  0.00    +0.000 A 
ATOM     21  C   UNL     1       3.088   6.341  18.581  0.00  0.00    +0.000 A 
ATOM     22  C   UNL     1       2.429   6.515  19.802  0.00  0.00    +0.000 A 
ATOM     23  C   UNL     1       1.777   7.722  20.102  0.00  0.00    +0.000 A 
BRANCH  18  26
ATOM     24  C   UNL     1      -0.099  10.383  18.776  0.00  0.00    +0.000 C 
ATOM     25  O   UNL     1      -0.634   9.879  17.797  0.00  0.00    +0.000 OA
ATOM     26  N   UNL     1       0.994   9.914  19.460  0.00  0.00    +0.000 N 
ATOM     27  H   UNL     1       1.191  10.407  20.321  0.00  0.00    +0.000 HD
BRANCH  24  29
ATOM     28  C   UNL     1      -0.694  11.364  20.799  0.00  0.00    +0.000 C 
ATOM     29  O   UNL     1      -0.566  11.510  19.381  0.00  0.00    +0.000 OA
ENDBRANCH  24  29
ENDBRANCH  18  26
ENDBRANCH  16  21
ENDBRANCH   1  16
TORSDOF 5
ENDMDL
MODEL 3
REMARK VINA RESULT:      -8.7      2.544      3.981
REMARK  Name = 
REMARK  6 active torsions:
REMARK  status: ('A' for Active; 'I' for Inactive)
REMARK    1  A    between atoms: C_1  and  O_2
REMARK    2  A    between atoms: O_2  and  C_3
REMARK    3  A    between atoms: N_5  and  C_6
REMARK    4  A    between atoms: C_9  and  N_10
REMARK    5  A    between atoms: N_10  and  C_11
REMARK    6  A    between atoms: C_13  and  C_14
REMARK                            x       y       z     vdW  Elec       q    Type
REMARK                         _______ _______ _______ _____ _____    ______ ____
ROOT
ATOM      1  C   UNL     1       2.975   5.290  19.180  0.00  0.00    +0.000 A 
ATOM      2  C   UNL     1       3.979   5.384  18.291  0.00  0.00    +0.000 A 
ATOM      3  C   UNL     1       4.077   4.310  17.251  0.00  0.00    +0.000 A 
ATOM      4  N   UNL     1       3.278   3.283  17.174  0.00  0.00    +0.000 NA
ATOM      5  C   UNL     1       2.276   3.209  18.095  0.00  0.00    +0.000 A 
ATOM      6  N   UNL     1       1.328   2.305  18.225  0.00  0.00    +0.000 NA
ATOM      7  C   UNL     1       0.613   2.744  19.295  0.00  0.00    +0.000 A 
ATOM      8  N   UNL     1       1.039   3.872  19.864  0.00  0.00    +0.000 NA
ATOM      9  N   UNL     1       2.115   4.179  19.089  0.00  0.00    +0.000 N 
ENDROOT
BRANCH   3  10
ATOM     10  C   UNL     1       5.186   4.447  16.259  0.00  0.00    +0.000 A 
ATOM     11  C   UNL     1       4.966   4.013  14.944  0.00  0.00    +0.000 A 
ATOM     12  C   UNL     1       5.978   4.125  13.988  0.00  0.00    +0.000 A 
ATOM     13  C   UNL     1       7.210   4.672  14.336  0.00  0.00    +0.000 A 
ATOM     14  C   UNL     1       7.432   5.118  15.638  0.00  0.00    +0.000 A 
ATOM     15  C   UNL     1       6.421   5.013  16.597  0.00  0.00    +0.000 A 
ENDBRANCH   3  10
BRANCH   1  16
ATOM     16  N   UNL     1       2.739   6.235  20.191  0.00  0.00    +0.000 N 
ATOM     17  H   UNL     1       2.170   5.798  20.929  0.00  0.00    +0.000 HD
BRANCH  16  21
ATOM     18  C   UNL     1       0.749   9.861  19.237  0.00  0.00    +0.000 A 
ATOM     19  C   UNL     1       1.542   9.220  18.289  0.00  0.00    +0.000 A 
ATOM     20  C   UNL     1       2.226   8.043  18.603  0.00  0.00    +0.000 A 
ATOM     21  C   UNL     1       2.155   7.495  19.886  0.00  0.00    +0.000 A 
ATOM     22  C   UNL     1       1.358   8.137  20.840  0.00  0.00    +0.000 A 
ATOM     23  C   UNL     1       0.682   9.328  20.529  0.00  0.00    +0.000 A 
BRANCH  18  26
ATOM     24  C   UNL     1      -1.225  11.037  18.310  0.00  0.00    +0.000 C 
ATOM     25  O   UNL     1      -1.871  10.079  17.904  0.00  0.00    +0.000 OA
ATOM     26  N   UNL     1      -0.006  11.012  18.941  0.00  0.00    +0.000 N 
ATOM     27  H   UNL     1       0.289  11.903  19.315  0.00  0.00    +0.000 HD
BRANCH  24  29
ATOM     28  C   UNL     1      -0.620  13.281  18.395  0.00  0.00    +0.000 C 
ATOM     29  O   UNL     1      -1.669  12.321  18.230  0.00  0.00    +0.000 OA
ENDBRANCH  24  29
ENDBRANCH  18  26
ENDBRANCH  16  21
ENDBRANCH   1  16
TORSDOF 5
ENDMDL
MODEL 4
REMARK VINA RESULT:      -8.7      0.466      1.063
REMARK  Name = 
REMARK  6 active torsions:
REMARK  status: ('A' for Active; 'I' for Inactive)
REMARK    1  A    between atoms: C_1  and  O_2
REMARK    2  A    between atoms: O_2  and  C_3
REMARK    3  A    between atoms: N_5  and  C_6
REMARK    4  A    between atoms: C_9  and  N_10
REMARK    5  A    between atoms: N_10  and  C_11
REMARK    6  A    between atoms: C_13  and  C_14
REMARK                            x       y       z     vdW  Elec       q    Type
REMARK                         _______ _______ _______ _____ _____    ______ ____
ROOT
ATOM      1  C   UNL     1       4.846   4.507  17.625  0.00  0.00    +0.000 A 
ATOM      2  C   UNL     1       5.017   4.365  16.298  0.00  0.00    +0.000 A 
ATOM      3  C   UNL     1       6.398   4.579  15.759  0.00  0.00    +0.000 A 
ATOM      4  N   UNL     1       7.427   4.922  16.481  0.00  0.00    +0.000 NA
ATOM      5  C   UNL     1       7.221   5.068  17.821  0.00  0.00    +0.000 A 
ATOM      6  N   UNL     1       8.082   5.378  18.767  0.00  0.00    +0.000 NA
ATOM      7  C   UNL     1       7.328   5.367  19.899  0.00  0.00    +0.000 A 
ATOM      8  N   UNL     1       6.037   5.073  19.743  0.00  0.00    +0.000 NA
ATOM      9  N   UNL     1       5.962   4.875  18.398  0.00  0.00    +0.000 N 
ENDROOT
BRANCH   3  10
ATOM     10  C   UNL     1       6.570   4.394  14.286  0.00  0.00    +0.000 A 
ATOM     11  C   UNL     1       7.537   5.163  13.622  0.00  0.00    +0.000 A 
ATOM     12  C   UNL     1       7.727   5.018  12.247  0.00  0.00    +0.000 A 
ATOM     13  C   UNL     1       6.961   4.105  11.527  0.00  0.00    +0.000 A 
ATOM     14  C   UNL     1       6.008   3.326  12.182  0.00  0.00    +0.000 A 
ATOM     15  C   UNL     1       5.817   3.464  13.559  0.00  0.00    +0.000 A 
ENDBRANCH   3  10
BRANCH   1  16
ATOM     16  N   UNL     1       3.619   4.309  18.277  0.00  0.00    +0.000 N 
ATOM     17  H   UNL     1       2.974   3.830  17.634  0.00  0.00    +0.000 HD
BRANCH  16  21
ATOM     18  C   UNL     1       1.780   7.679  20.088  0.00  0.00    +0.000 A 
ATOM     19  C   UNL     1       1.806   6.450  20.744  0.00  0.00    +0.000 A 
ATOM     20  C   UNL     1       2.380   5.328  20.142  0.00  0.00    +0.000 A 
ATOM     21  C   UNL     1       2.918   5.403  18.855  0.00  0.00    +0.000 A 
ATOM     22  C   UNL     1       2.895   6.636  18.195  0.00  0.00    +0.000 A 
ATOM     23  C   UNL     1       2.304   7.761  18.793  0.00  0.00    +0.000 A 
BRANCH  18  26
ATOM     24  C   UNL     1       0.099   8.944  21.396  0.00  0.00    +0.000 C 
ATOM     25  O   UNL     1      -0.697   8.046  21.642  0.00  0.00    +0.000 OA
ATOM     26  N   UNL     1       1.269   8.847  20.686  0.00  0.00    +0.000 N 
ATOM     27  H   UNL     1       1.845   9.677  20.714  0.00  0.00    +0.000 HD
BRANCH  24  29
ATOM     28  C   UNL     1       0.185  11.201  20.841  0.00  0.00    +0.000 C 
ATOM     29  O   UNL     1      -0.051  10.217  21.854  0.00  0.00    +0.000 OA
ENDBRANCH  24  29
ENDBRANCH  18  26
ENDBRANCH  16  21
ENDBRANCH   1  16
TORSDOF 5
ENDMDL
MODEL 5
REMARK VINA RESULT:      -8.6      2.713      4.348
REMARK  Name = 
REMARK  6 active torsions:
REMARK  status: ('A' for Active; 'I' for Inactive)
REMARK    1  A    between atoms: C_1  and  O_2
REMARK    2  A    between atoms: O_2  and  C_3
REMARK    3  A    between atoms: N_5  and  C_6
REMARK    4  A    between atoms: C_9  and  N_10
REMARK    5  A    between atoms: N_10  and  C_11
REMARK    6  A    between atoms: C_13  and  C_14
REMARK                            x       y       z     vdW  Elec       q    Type
REMARK                         _______ _______ _______ _____ _____    ______ ____
ROOT
ATOM      1  C   UNL     1       2.993   5.851  19.566  0.00  0.00    +0.000 A 
ATOM      2  C   UNL     1       3.911   5.834  18.583  0.00  0.00    +0.000 A 
ATOM      3  C   UNL     1       4.113   4.539  17.856  0.00  0.00    +0.000 A 
ATOM      4  N   UNL     1       3.485   3.431  18.135  0.00  0.00    +0.000 NA
ATOM      5  C   UNL     1       2.568   3.477  19.142  0.00  0.00    +0.000 A 
ATOM      6  N   UNL     1       1.787   2.522  19.602  0.00  0.00    +0.000 NA
ATOM      7  C   UNL     1       1.080   3.136  20.588  0.00  0.00    +0.000 A 
ATOM      8  N   UNL     1       1.356   4.424  20.795  0.00  0.00    +0.000 NA
ATOM      9  N   UNL     1       2.318   4.651  19.858  0.00  0.00    +0.000 N 
ENDROOT
BRANCH   3  10
ATOM     10  C   UNL     1       5.121   4.548  16.754  0.00  0.00    +0.000 A 
ATOM     11  C   UNL     1       6.468   4.760  17.079  0.00  0.00    +0.000 A 
ATOM     12  C   UNL     1       7.439   4.775  16.075  0.00  0.00    +0.000 A 
ATOM     13  C   UNL     1       7.074   4.576  14.746  0.00  0.00    +0.000 A 
ATOM     14  C   UNL     1       5.739   4.352  14.417  0.00  0.00    +0.000 A 
ATOM     15  C   UNL     1       4.764   4.331  15.417  0.00  0.00    +0.000 A 
ENDBRANCH   3  10
BRANCH   1  16
ATOM     16  N   UNL     1       2.673   6.995  20.312  0.00  0.00    +0.000 N 
ATOM     17  H   UNL     1       2.210   6.705  21.184  0.00  0.00    +0.000 HD
BRANCH  16  21
ATOM     18  C   UNL     1       0.149   9.940  18.586  0.00  0.00    +0.000 A 
ATOM     19  C   UNL     1       1.100   9.281  17.811  0.00  0.00    +0.000 A 
ATOM     20  C   UNL     1       1.956   8.334  18.376  0.00  0.00    +0.000 A 
ATOM     21  C   UNL     1       1.901   8.044  19.742  0.00  0.00    +0.000 A 
ATOM     22  C   UNL     1       0.945   8.703  20.523  0.00  0.00    +0.000 A 
ATOM     23  C   UNL     1       0.094   9.666  19.958  0.00  0.00    +0.000 A 
BRANCH  18  26
ATOM     24  C   UNL     1      -2.080  10.584  17.719  0.00  0.00    +0.000 C 
ATOM     25  O   UNL     1      -2.674   9.521  17.852  0.00  0.00    +0.000 OA
ATOM     26  N   UNL     1      -0.774  10.852  18.042  0.00  0.00    +0.000 N 
ATOM     27  H   UNL     1      -0.521  11.829  17.979  0.00  0.00    +0.000 HD
BRANCH  24  29
ATOM     28  C   UNL     1      -3.864  11.446  16.501  0.00  0.00    +0.000 C 
ATOM     29  O   UNL     1      -2.676  11.716  17.253  0.00  0.00    +0.000 OA
ENDBRANCH  24  29
ENDBRANCH  18  26
ENDBRANCH  16  21
ENDBRANCH   1  16
TORSDOF 5
ENDMDL
MODEL 6
REMARK VINA RESULT:      -8.6      2.518      3.913
REMARK  Name = 
REMARK  6 active torsions:
REMARK  status: ('A' for Active; 'I' for Inactive)
REMARK    1  A    between atoms: C_1  and  O_2
REMARK    2  A    between atoms: O_2  and  C_3
REMARK    3  A    between atoms: N_5  and  C_6
REMARK    4  A    between atoms: C_9  and  N_10
REMARK    5  A    between atoms: N_10  and  C_11
REMARK    6  A    between atoms: C_13  and  C_14
REMARK                            x       y       z     vdW  Elec       q    Type
REMARK                         _______ _______ _______ _____ _____    ______ ____
ROOT
ATOM      1  C   UNL     1       3.086   5.385  19.033  0.00  0.00    +0.000 A 
ATOM      2  C   UNL     1       4.058   5.448  18.106  0.00  0.00    +0.000 A 
ATOM      3  C   UNL     1       4.114   4.344  17.095  0.00  0.00    +0.000 A 
ATOM      4  N   UNL     1       3.310   3.318  17.078  0.00  0.00    +0.000 NA
ATOM      5  C   UNL     1       2.341   3.276  18.037  0.00  0.00    +0.000 A 
ATOM      6  N   UNL     1       1.396   2.380  18.227  0.00  0.00    +0.000 NA
ATOM      7  C   UNL     1       0.721   2.853  19.308  0.00  0.00    +0.000 A 
ATOM      8  N   UNL     1       1.172   3.996  19.829  0.00  0.00    +0.000 NA
ATOM      9  N   UNL     1       2.220   4.276  19.006  0.00  0.00    +0.000 N 
ENDROOT
BRANCH   3  10
ATOM     10  C   UNL     1       5.186   4.446  16.060  0.00  0.00    +0.000 A 
ATOM     11  C   UNL     1       6.406   5.041  16.416  0.00  0.00    +0.000 A 
ATOM     12  C   UNL     1       7.432   5.155  15.476  0.00  0.00    +0.000 A 
ATOM     13  C   UNL     1       7.251   4.674  14.181  0.00  0.00    +0.000 A 
ATOM     14  C   UNL     1       6.047   4.070  13.824  0.00  0.00    +0.000 A 
ATOM     15  C   UNL     1       5.019   3.949  14.762  0.00  0.00    +0.000 A 
ENDBRANCH   3  10
BRANCH   1  16
ATOM     16  N   UNL     1       2.890   6.360  20.023  0.00  0.00    +0.000 N 
ATOM     17  H   UNL     1       2.524   5.905  20.871  0.00  0.00    +0.000 HD
BRANCH  16  21
ATOM     18  C   UNL     1       0.728   9.939  19.290  0.00  0.00    +0.000 A 
ATOM     19  C   UNL     1       0.689   9.334  20.544  0.00  0.00    +0.000 A 
ATOM     20  C   UNL     1       1.371   8.139  20.786  0.00  0.00    +0.000 A 
ATOM     21  C   UNL     1       2.086   7.505  19.767  0.00  0.00    +0.000 A 
ATOM     22  C   UNL     1       2.129   8.112  18.508  0.00  0.00    +0.000 A 
ATOM     23  C   UNL     1       1.430   9.305  18.260  0.00  0.00    +0.000 A 
BRANCH  18  26
ATOM     24  C   UNL     1      -1.139  11.351  18.478  0.00  0.00    +0.000 C 
ATOM     25  O   UNL     1      -1.929  10.480  18.135  0.00  0.00    +0.000 OA
ATOM     26  N   UNL     1       0.107  11.174  19.025  0.00  0.00    +0.000 N 
ATOM     27  H   UNL     1       0.540  12.024  19.362  0.00  0.00    +0.000 HD
BRANCH  24  29
ATOM     28  C   UNL     1      -0.247  13.499  18.477  0.00  0.00    +0.000 C 
ATOM     29  O   UNL     1      -1.419  12.681  18.405  0.00  0.00    +0.000 OA
ENDBRANCH  24  29
ENDBRANCH  18  26
ENDBRANCH  16  21
ENDBRANCH   1  16
TORSDOF 5
ENDMDL
MODEL 7
REMARK VINA RESULT:      -8.6      0.430      1.379
REMARK  Name = 
REMARK  6 active torsions:
REMARK  status: ('A' for Active; 'I' for Inactive)
REMARK    1  A    between atoms: C_1  and  O_2
REMARK    2  A    between atoms: O_2  and  C_3
REMARK    3  A    between atoms: N_5  and  C_6
REMARK    4  A    between atoms: C_9  and  N_10
REMARK    5  A    between atoms: N_10  and  C_11
REMARK    6  A    between atoms: C_13  and  C_14
REMARK                            x       y       z     vdW  Elec       q    Type
REMARK                         _______ _______ _______ _____ _____    ______ ____
ROOT
ATOM      1  C   UNL     1       4.850   4.792  17.626  0.00  0.00    +0.000 A 
ATOM      2  C   UNL     1       4.997   4.603  16.302  0.00  0.00    +0.000 A 
ATOM      3  C   UNL     1       6.393   4.620  15.759  0.00  0.00    +0.000 A 
ATOM      4  N   UNL     1       7.461   4.836  16.474  0.00  0.00    +0.000 NA
ATOM      5  C   UNL     1       7.280   5.034  17.811  0.00  0.00    +0.000 A 
ATOM      6  N   UNL     1       8.176   5.243  18.751  0.00  0.00    +0.000 NA
ATOM      7  C   UNL     1       7.431   5.355  19.883  0.00  0.00    +0.000 A 
ATOM      8  N   UNL     1       6.112   5.233  19.733  0.00  0.00    +0.000 NA
ATOM      9  N   UNL     1       6.008   5.021  18.392  0.00  0.00    +0.000 N 
ENDROOT
BRANCH   3  10
ATOM     10  C   UNL     1       6.536   4.385  14.290  0.00  0.00    +0.000 A 
ATOM     11  C   UNL     1       7.537   5.078  13.595  0.00  0.00    +0.000 A 
ATOM     12  C   UNL     1       7.701   4.885  12.221  0.00  0.00    +0.000 A 
ATOM     13  C   UNL     1       6.873   4.000  11.536  0.00  0.00    +0.000 A 
ATOM     14  C   UNL     1       5.884   3.297  12.223  0.00  0.00    +0.000 A 
ATOM     15  C   UNL     1       5.719   3.483  13.597  0.00  0.00    +0.000 A 
ENDBRANCH   3  10
BRANCH   1  16
ATOM     16  N   UNL     1       3.610   4.772  18.281  0.00  0.00    +0.000 N 
ATOM     17  H   UNL     1       2.911   4.343  17.659  0.00  0.00    +0.000 HD
BRANCH  16  21
ATOM     18  C   UNL     1       1.665   8.239  19.772  0.00  0.00    +0.000 A 
ATOM     19  C   UNL     1       2.271   8.252  18.518  0.00  0.00    +0.000 A 
ATOM     20  C   UNL     1       2.941   7.127  18.033  0.00  0.00    +0.000 A 
ATOM     21  C   UNL     1       3.045   5.968  18.805  0.00  0.00    +0.000 A 
ATOM     22  C   UNL     1       2.435   5.951  20.064  0.00  0.00    +0.000 A 
ATOM     23  C   UNL     1       1.775   7.087  20.559  0.00  0.00    +0.000 A 
BRANCH  18  26
ATOM     24  C   UNL     1      -0.109   9.261  21.167  0.00  0.00    +0.000 C 
ATOM     25  O   UNL     1      -0.566   8.257  21.696  0.00  0.00    +0.000 OA
ATOM     26  N   UNL     1       0.927   9.329  20.269  0.00  0.00    +0.000 N 
ATOM     27  H   UNL     1       1.235  10.269  20.058  0.00  0.00    +0.000 HD
BRANCH  24  29
ATOM     28  C   UNL     1      -0.868  10.701  22.828  0.00  0.00    +0.000 C 
ATOM     29  O   UNL     1      -0.555  10.517  21.443  0.00  0.00    +0.000 OA
ENDBRANCH  24  29
ENDBRANCH  18  26
ENDBRANCH  16  21
ENDBRANCH   1  16
TORSDOF 5
ENDMDL
MODEL 8
REMARK VINA RESULT:      -8.6      1.182      1.530
REMARK  Name = 
REMARK  6 active torsions:
REMARK  status: ('A' for Active; 'I' for Inactive)
REMARK    1  A    between atoms: C_1  and  O_2
REMARK    2  A    between atoms: O_2  and  C_3
REMARK    3  A    between atoms: N_5  and  C_6
REMARK    4  A    between atoms: C_9  and  N_10
REMARK    5  A    between atoms: N_10  and  C_11
REMARK    6  A    between atoms: C_13  and  C_14
REMARK                            x       y       z     vdW  Elec       q    Type
REMARK                         _______ _______ _______ _____ _____    ______ ____
ROOT
ATOM      1  C   UNL     1       4.875   4.723  17.650  0.00  0.00    +0.000 A 
ATOM      2  C   UNL     1       5.024   4.547  16.325  0.00  0.00    +0.000 A 
ATOM      3  C   UNL     1       6.416   4.619  15.776  0.00  0.00    +0.000 A 
ATOM      4  N   UNL     1       7.478   4.872  16.488  0.00  0.00    +0.000 NA
ATOM      5  C   UNL     1       7.295   5.056  17.827  0.00  0.00    +0.000 A 
ATOM      6  N   UNL     1       8.187   5.295  18.765  0.00  0.00    +0.000 NA
ATOM      7  C   UNL     1       7.442   5.373  19.900  0.00  0.00    +0.000 A 
ATOM      8  N   UNL     1       6.128   5.201  19.754  0.00  0.00    +0.000 NA
ATOM      9  N   UNL     1       6.027   4.993  18.412  0.00  0.00    +0.000 N 
ENDROOT
BRANCH   3  10
ATOM     10  C   UNL     1       6.561   4.397  14.306  0.00  0.00    +0.000 A 
ATOM     11  C   UNL     1       7.548   5.115  13.614  0.00  0.00    +0.000 A 
ATOM     12  C   UNL     1       7.714   4.934  12.239  0.00  0.00    +0.000 A 
ATOM     13  C   UNL     1       6.902   4.038  11.549  0.00  0.00    +0.000 A 
ATOM     14  C   UNL     1       5.929   3.311  12.232  0.00  0.00    +0.000 A 
ATOM     15  C   UNL     1       5.762   3.484  13.608  0.00  0.00    +0.000 A 
ENDBRANCH   3  10
BRANCH   1  16
ATOM     16  N   UNL     1       3.639   4.653  18.310  0.00  0.00    +0.000 N 
ATOM     17  H   UNL     1       3.002   4.059  17.762  0.00  0.00    +0.000 HD
BRANCH  16  21
ATOM     18  C   UNL     1       1.781   8.300  19.435  0.00  0.00    +0.000 A 
ATOM     19  C   UNL     1       1.733   7.193  20.279  0.00  0.00    +0.000 A 
ATOM     20  C   UNL     1       2.314   5.980  19.903  0.00  0.00    +0.000 A 
ATOM     21  C   UNL     1       2.933   5.837  18.659  0.00  0.00    +0.000 A 
ATOM     22  C   UNL     1       2.984   6.948  17.811  0.00  0.00    +0.000 A 
ATOM     23  C   UNL     1       2.387   8.164  18.181  0.00  0.00    +0.000 A 
BRANCH  18  26
ATOM     24  C   UNL     1       0.307  10.267  19.125  0.00  0.00    +0.000 C 
ATOM     25  O   UNL     1      -0.270   9.937  18.096  0.00  0.00    +0.000 OA
ATOM     26  N   UNL     1       1.265   9.557  19.804  0.00  0.00    +0.000 N 
ATOM     27  H   UNL     1       1.514   9.947  20.703  0.00  0.00    +0.000 HD
BRANCH  24  29
ATOM     28  C   UNL     1       0.261  11.305  21.205  0.00  0.00    +0.000 C 
ATOM     29  O   UNL     1       0.032  11.418  19.796  0.00  0.00    +0.000 OA
ENDBRANCH  24  29
ENDBRANCH  18  26
ENDBRANCH  16  21
ENDBRANCH   1  16
TORSDOF 5
ENDMDL
MODEL 9
REMARK VINA RESULT:      -8.6      2.464      3.707
REMARK  Name = 
REMARK  6 active torsions:
REMARK  status: ('A' for Active; 'I' for Inactive)
REMARK    1  A    between atoms: C_1  and  O_2
REMARK    2  A    between atoms: O_2  and  C_3
REMARK    3  A    between atoms: N_5  and  C_6
REMARK    4  A    between atoms: C_9  and  N_10
REMARK    5  A    between atoms: N_10  and  C_11
REMARK    6  A    between atoms: C_13  and  C_14
REMARK                            x       y       z     vdW  Elec       q    Type
REMARK                         _______ _______ _______ _____ _____    ______ ____
ROOT
ATOM      1  C   UNL     1       3.299   5.340  19.161  0.00  0.00    +0.000 A 
ATOM      2  C   UNL     1       4.204   5.444  18.172  0.00  0.00    +0.000 A 
ATOM      3  C   UNL     1       4.365   4.264  17.264  0.00  0.00    +0.000 A 
ATOM      4  N   UNL     1       3.715   3.141  17.390  0.00  0.00    +0.000 NA
ATOM      5  C   UNL     1       2.812   3.061  18.409  0.00  0.00    +0.000 A 
ATOM      6  N   UNL     1       2.015   2.068  18.740  0.00  0.00    +0.000 NA
ATOM      7  C   UNL     1       1.336   2.548  19.815  0.00  0.00    +0.000 A 
ATOM      8  N   UNL     1       1.645   3.788  20.200  0.00  0.00    +0.000 NA
ATOM      9  N   UNL     1       2.599   4.126  19.290  0.00  0.00    +0.000 N 
ENDROOT
BRANCH   3  10
ATOM     10  C   UNL     1       5.358   4.410  16.157  0.00  0.00    +0.000 A 
ATOM     11  C   UNL     1       5.019   3.928  14.884  0.00  0.00    +0.000 A 
ATOM     12  C   UNL     1       5.921   4.047  13.825  0.00  0.00    +0.000 A 
ATOM     13  C   UNL     1       7.161   4.648  14.026  0.00  0.00    +0.000 A 
ATOM     14  C   UNL     1       7.500   5.142  15.285  0.00  0.00    +0.000 A 
ATOM     15  C   UNL     1       6.599   5.030  16.347  0.00  0.00    +0.000 A 
ENDBRANCH   3  10
BRANCH   1  16
ATOM     16  N   UNL     1       3.017   6.372  20.070  0.00  0.00    +0.000 N 
ATOM     17  H   UNL     1       2.619   5.962  20.926  0.00  0.00    +0.000 HD
BRANCH  16  21
ATOM     18  C   UNL     1       0.788   9.810  18.957  0.00  0.00    +0.000 A 
ATOM     19  C   UNL     1       0.763   9.346  20.270  0.00  0.00    +0.000 A 
ATOM     20  C   UNL     1       1.468   8.197  20.638  0.00  0.00    +0.000 A 
ATOM     21  C   UNL     1       2.192   7.468  19.693  0.00  0.00    +0.000 A 
ATOM     22  C   UNL     1       2.221   7.932  18.374  0.00  0.00    +0.000 A 
ATOM     23  C   UNL     1       1.500   9.078  17.999  0.00  0.00    +0.000 A 
BRANCH  18  26
ATOM     24  C   UNL     1      -1.163  11.113  18.163  0.00  0.00    +0.000 C 
ATOM     25  O   UNL     1      -1.999  10.220  18.092  0.00  0.00    +0.000 OA
ATOM     26  N   UNL     1       0.145  10.997  18.560  0.00  0.00    +0.000 N 
ATOM     27  H   UNL     1       0.625  11.879  18.676  0.00  0.00    +0.000 HD
BRANCH  24  29
ATOM     28  C   UNL     1      -0.394  13.304  18.293  0.00  0.00    +0.000 C 
ATOM     29  O   UNL     1      -1.443  12.416  17.890  0.00  0.00    +0.000 OA
ENDBRANCH  24  29
ENDBRANCH  18  26
ENDBRANCH  16  21
ENDBRANCH   1  16
TORSDOF 5
ENDMDL
