MODEL 1
REMARK VINA RESULT:      -8.9      0.000      0.000
REMARK  Name = 
REMARK  4 active torsions:
REMARK  status: ('A' for Active; 'I' for Inactive)
REMARK    1  A    between atoms: C_1  and  N_2
REMARK    2  A    between atoms: N_5  and  C_6
REMARK    3  A    between atoms: C_9  and  N_10
REMARK    4  A    between atoms: C_19  and  C_20
REMARK                            x       y       z     vdW  Elec       q    Type
REMARK                         _______ _______ _______ _____ _____    ______ ____
ROOT
ATOM      1  N   UNL     1       2.638   8.264  18.089  0.00  0.00    +0.000 N 
ATOM      2  C   UNL     1       2.903   6.936  18.357  0.00  0.00    +0.000 C 
ATOM      3  O   UNL     1       2.344   6.252  19.208  0.00  0.00    +0.000 OA
ATOM      4  N   UNL     1       3.902   6.423  17.574  0.00  0.00    +0.000 N 
ATOM      5  C   UNL     1       4.823   7.024  16.619  0.00  0.00    +0.000 C 
ATOM      6  C   UNL     1       5.420   5.637  16.545  0.00  0.00    +0.000 C 
ATOM      7  C   UNL     1       5.119   4.822  15.303  0.00  0.00    +0.000 C 
ATOM      8  C   UNL     1       6.529   5.233  14.811  0.00  0.00    +0.000 C 
ATOM      9  C   UNL     1       6.902   5.519  16.292  0.00  0.00    +0.000 C 
ATOM     10  C   UNL     1       4.818   5.304  17.889  0.00  0.00    +0.000 C 
ATOM     11  H   UNL     1       3.280   8.719  17.462  0.00  0.00    +0.000 HD
ENDROOT
BRANCH   1  15
ATOM     12  C   UNL     1      -0.220  10.665  20.078  0.00  0.00    +0.000 A 
ATOM     13  C   UNL     1       0.056  10.878  18.726  0.00  0.00    +0.000 A 
ATOM     14  C   UNL     1       1.000  10.101  18.052  0.00  0.00    +0.000 A 
ATOM     15  C   UNL     1       1.682   9.085  18.711  0.00  0.00    +0.000 A 
ATOM     16  C   UNL     1       1.417   8.864  20.068  0.00  0.00    +0.000 A 
ATOM     17  C   UNL     1       0.474   9.651  20.745  0.00  0.00    +0.000 A 
BRANCH  12  22
ATOM     18  C   UNL     1      -2.848  13.118  23.464  0.00  0.00    +0.000 C 
ATOM     19  N   UNL     1      -2.396  12.528  22.234  0.00  0.00    +0.000 N 
ATOM     20  C   UNL     1      -2.867  12.683  20.986  0.00  0.00    +0.000 A 
ATOM     21  N   UNL     1      -2.201  12.079  20.059  0.00  0.00    +0.000 NA
ATOM     22  N   UNL     1      -1.176  11.453  20.750  0.00  0.00    +0.000 N 
ATOM     23  C   UNL     1      -1.277  11.738  22.124  0.00  0.00    +0.000 A 
ATOM     24  O   UNL     1      -0.560  11.411  23.054  0.00  0.00    +0.000 OA
ENDBRANCH  12  22
ENDBRANCH   1  15
BRANCH  10  25
ATOM     25  C   UNL     1       4.218   3.880  18.228  0.00  0.00    +0.000 A 
ATOM     26  C   UNL     1       4.665   3.164  19.360  0.00  0.00    +0.000 A 
ATOM     27  C   UNL     1       4.140   1.917  19.712  0.00  0.00    +0.000 A 
ATOM     28  C   UNL     1       3.151   1.337  18.930  0.00  0.00    +0.000 A 
ATOM     29  C   UNL     1       2.686   2.007  17.804  0.00  0.00    +0.000 A 
ATOM     30  C   UNL     1       3.206   3.261  17.468  0.00  0.00    +0.000 A 
ENDBRANCH  10  25
TORSDOF 3
ENDMDL
MODEL 2
REMARK VINA RESULT:      -8.9      1.956      3.864
REMARK  Name = 
REMARK  4 active torsions:
REMARK  status: ('A' for Active; 'I' for Inactive)
REMARK    1  A    between atoms: C_1  and  N_2
REMARK    2  A    between atoms: N_5  and  C_6
REMARK    3  A    between atoms: C_9  and  N_10
REMARK    4  A    between atoms: C_19  and  C_20
REMARK                            x       y       z     vdW  Elec       q    Type
REMARK                         _______ _______ _______ _____ _____    ______ ____
ROOT
ATOM      1  N   UNL     1       0.690   7.402  20.873  0.00  0.00    +0.000 N 
ATOM      2  C   UNL     1       1.795   7.165  20.081  0.00  0.00    +0.000 C 
ATOM      3  O   UNL     1       2.555   8.019  19.639  0.00  0.00    +0.000 OA
ATOM      4  N   UNL     1       1.973   5.837  19.796  0.00  0.00    +0.000 N 
ATOM      5  C   UNL     1       1.164   4.652  20.046  0.00  0.00    +0.000 C 
ATOM      6  C   UNL     1       2.234   3.936  19.252  0.00  0.00    +0.000 C 
ATOM      7  C   UNL     1       3.213   3.080  20.030  0.00  0.00    +0.000 C 
ATOM      8  C   UNL     1       2.357   1.868  19.582  0.00  0.00    +0.000 C 
ATOM      9  C   UNL     1       1.819   2.749  18.420  0.00  0.00    +0.000 C 
ATOM     10  C   UNL     1       2.640   5.244  18.616  0.00  0.00    +0.000 C 
ATOM     11  H   UNL     1       0.089   6.611  21.031  0.00  0.00    +0.000 HD
ENDROOT
BRANCH   1  15
ATOM     12  C   UNL     1      -0.712  11.088  22.402  0.00  0.00    +0.000 A 
ATOM     13  C   UNL     1      -0.462  10.945  21.036  0.00  0.00    +0.000 A 
ATOM     14  C   UNL     1       0.007   9.739  20.511  0.00  0.00    +0.000 A 
ATOM     15  C   UNL     1       0.226   8.644  21.339  0.00  0.00    +0.000 A 
ATOM     16  C   UNL     1      -0.018   8.776  22.711  0.00  0.00    +0.000 A 
ATOM     17  C   UNL     1      -0.482   9.991  23.237  0.00  0.00    +0.000 A 
BRANCH  12  22
ATOM     18  C   UNL     1      -3.479  14.690  24.339  0.00  0.00    +0.000 C 
ATOM     19  N   UNL     1      -2.397  13.952  23.749  0.00  0.00    +0.000 N 
ATOM     20  C   UNL     1      -1.123  14.318  23.542  0.00  0.00    +0.000 A 
ATOM     21  N   UNL     1      -0.350  13.404  23.056  0.00  0.00    +0.000 NA
ATOM     22  N   UNL     1      -1.187  12.309  22.922  0.00  0.00    +0.000 N 
ATOM     23  C   UNL     1      -2.481  12.634  23.369  0.00  0.00    +0.000 A 
ATOM     24  O   UNL     1      -3.485  11.948  23.448  0.00  0.00    +0.000 OA
ENDBRANCH  12  22
ENDBRANCH   1  15
BRANCH  10  25
ATOM     25  C   UNL     1       4.147   5.612  18.309  0.00  0.00    +0.000 A 
ATOM     26  C   UNL     1       4.492   6.297  17.122  0.00  0.00    +0.000 A 
ATOM     27  C   UNL     1       5.806   6.668  16.826  0.00  0.00    +0.000 A 
ATOM     28  C   UNL     1       6.829   6.354  17.710  0.00  0.00    +0.000 A 
ATOM     29  C   UNL     1       6.535   5.677  18.888  0.00  0.00    +0.000 A 
ATOM     30  C   UNL     1       5.214   5.324  19.183  0.00  0.00    +0.000 A 
ENDBRANCH  10  25
TORSDOF 3
ENDMDL
MODEL 3
REMARK VINA RESULT:      -8.8      1.456      3.461
REMARK  Name = 
REMARK  4 active torsions:
REMARK  status: ('A' for Active; 'I' for Inactive)
REMARK    1  A    between atoms: C_1  and  N_2
REMARK    2  A    between atoms: N_5  and  C_6
REMARK    3  A    between atoms: C_9  and  N_10
REMARK    4  A    between atoms: C_19  and  C_20
REMARK                            x       y       z     vdW  Elec       q    Type
REMARK                         _______ _______ _______ _____ _____    ______ ____
ROOT
ATOM      1  N   UNL     1       1.698   7.012  19.981  0.00  0.00    +0.000 N 
ATOM      2  C   UNL     1       2.663   6.727  19.036  0.00  0.00    +0.000 C 
ATOM      3  O   UNL     1       3.309   7.553  18.401  0.00  0.00    +0.000 OA
ATOM      4  N   UNL     1       2.836   5.383  18.839  0.00  0.00    +0.000 N 
ATOM      5  C   UNL     1       2.122   4.208  19.322  0.00  0.00    +0.000 C 
ATOM      6  C   UNL     1       3.068   3.445  18.422  0.00  0.00    +0.000 C 
ATOM      7  C   UNL     1       4.192   2.681  19.093  0.00  0.00    +0.000 C 
ATOM      8  C   UNL     1       3.316   1.418  18.901  0.00  0.00    +0.000 C 
ATOM      9  C   UNL     1       2.560   2.181  17.776  0.00  0.00    +0.000 C 
ATOM     10  C   UNL     1       3.317   4.699  17.618  0.00  0.00    +0.000 C 
ATOM     11  H   UNL     1       1.160   6.226  20.306  0.00  0.00    +0.000 HD
ENDROOT
BRANCH   1  15
ATOM     12  C   UNL     1       0.435  10.788  21.407  0.00  0.00    +0.000 A 
ATOM     13  C   UNL     1       0.566  10.565  20.035  0.00  0.00    +0.000 A 
ATOM     14  C   UNL     1       0.987   9.327  19.543  0.00  0.00    +0.000 A 
ATOM     15  C   UNL     1       1.277   8.281  20.412  0.00  0.00    +0.000 A 
ATOM     16  C   UNL     1       1.152   8.495  21.790  0.00  0.00    +0.000 A 
ATOM     17  C   UNL     1       0.736   9.740  22.282  0.00  0.00    +0.000 A 
BRANCH  12  22
ATOM     18  C   UNL     1      -1.969  14.445  23.696  0.00  0.00    +0.000 C 
ATOM     19  N   UNL     1      -1.060  13.702  22.867  0.00  0.00    +0.000 N 
ATOM     20  C   UNL     1       0.012  14.124  22.179  0.00  0.00    +0.000 A 
ATOM     21  N   UNL     1       0.689  13.203  21.579  0.00  0.00    +0.000 NA
ATOM     22  N   UNL     1       0.006  12.040  21.894  0.00  0.00    +0.000 N 
ATOM     23  C   UNL     1      -1.094  12.336  22.719  0.00  0.00    +0.000 A 
ATOM     24  O   UNL     1      -1.915  11.599  23.237  0.00  0.00    +0.000 OA
ENDBRANCH  12  22
ENDBRANCH   1  15
BRANCH  10  25
ATOM     25  C   UNL     1       4.738   5.068  17.029  0.00  0.00    +0.000 A 
ATOM     26  C   UNL     1       5.032   4.840  15.667  0.00  0.00    +0.000 A 
ATOM     27  C   UNL     1       6.263   5.178  15.099  0.00  0.00    +0.000 A 
ATOM     28  C   UNL     1       7.253   5.751  15.886  0.00  0.00    +0.000 A 
ATOM     29  C   UNL     1       7.007   5.989  17.234  0.00  0.00    +0.000 A 
ATOM     30  C   UNL     1       5.766   5.661  17.789  0.00  0.00    +0.000 A 
ENDBRANCH  10  25
TORSDOF 3
ENDMDL
MODEL 4
REMARK VINA RESULT:      -8.8      1.233      1.716
REMARK  Name = 
REMARK  4 active torsions:
REMARK  status: ('A' for Active; 'I' for Inactive)
REMARK    1  A    between atoms: C_1  and  N_2
REMARK    2  A    between atoms: N_5  and  C_6
REMARK    3  A    between atoms: C_9  and  N_10
REMARK    4  A    between atoms: C_19  and  C_20
REMARK                            x       y       z     vdW  Elec       q    Type
REMARK                         _______ _______ _______ _____ _____    ______ ____
ROOT
ATOM      1  N   UNL     1       2.525   8.350  18.095  0.00  0.00    +0.000 N 
ATOM      2  C   UNL     1       2.789   7.022  18.360  0.00  0.00    +0.000 C 
ATOM      3  O   UNL     1       2.166   6.310  19.140  0.00  0.00    +0.000 OA
ATOM      4  N   UNL     1       3.868   6.543  17.666  0.00  0.00    +0.000 N 
ATOM      5  C   UNL     1       4.863   7.181  16.814  0.00  0.00    +0.000 C 
ATOM      6  C   UNL     1       5.491   5.806  16.769  0.00  0.00    +0.000 C 
ATOM      7  C   UNL     1       5.324   5.014  15.488  0.00  0.00    +0.000 C 
ATOM      8  C   UNL     1       6.766   5.460  15.140  0.00  0.00    +0.000 C 
ATOM      9  C   UNL     1       6.992   5.720  16.656  0.00  0.00    +0.000 C 
ATOM     10  C   UNL     1       4.772   5.434  18.044  0.00  0.00    +0.000 C 
ATOM     11  H   UNL     1       3.215   8.830  17.542  0.00  0.00    +0.000 HD
ENDROOT
BRANCH   1  15
ATOM     12  C   UNL     1      -0.608  10.752  19.612  0.00  0.00    +0.000 A 
ATOM     13  C   UNL     1       0.320  10.178  20.483  0.00  0.00    +0.000 A 
ATOM     14  C   UNL     1       1.359   9.377  20.004  0.00  0.00    +0.000 A 
ATOM     15  C   UNL     1       1.499   9.140  18.641  0.00  0.00    +0.000 A 
ATOM     16  C   UNL     1       0.573   9.708  17.759  0.00  0.00    +0.000 A 
ATOM     17  C   UNL     1      -0.474  10.506  18.243  0.00  0.00    +0.000 A 
BRANCH  12  22
ATOM     18  C   UNL     1      -4.781  13.331  20.179  0.00  0.00    +0.000 C 
ATOM     19  N   UNL     1      -3.481  12.754  20.383  0.00  0.00    +0.000 N 
ATOM     20  C   UNL     1      -2.699  12.769  21.474  0.00  0.00    +0.000 A 
ATOM     21  N   UNL     1      -1.604  12.090  21.385  0.00  0.00    +0.000 NA
ATOM     22  N   UNL     1      -1.652  11.562  20.106  0.00  0.00    +0.000 N 
ATOM     23  C   UNL     1      -2.838  11.960  19.464  0.00  0.00    +0.000 A 
ATOM     24  O   UNL     1      -3.270  11.684  18.358  0.00  0.00    +0.000 OA
ENDBRANCH  12  22
ENDBRANCH   1  15
BRANCH  10  25
ATOM     25  C   UNL     1       4.170   3.993  18.295  0.00  0.00    +0.000 A 
ATOM     26  C   UNL     1       4.611   3.210  19.385  0.00  0.00    +0.000 A 
ATOM     27  C   UNL     1       4.085   1.946  19.661  0.00  0.00    +0.000 A 
ATOM     28  C   UNL     1       3.100   1.413  18.840  0.00  0.00    +0.000 A 
ATOM     29  C   UNL     1       2.640   2.148  17.754  0.00  0.00    +0.000 A 
ATOM     30  C   UNL     1       3.162   3.419  17.495  0.00  0.00    +0.000 A 
ENDBRANCH  10  25
TORSDOF 3
ENDMDL
MODEL 5
REMARK VINA RESULT:      -8.7      2.112      3.692
REMARK  Name = 
REMARK  4 active torsions:
REMARK  status: ('A' for Active; 'I' for Inactive)
REMARK    1  A    between atoms: C_1  and  N_2
REMARK    2  A    between atoms: N_5  and  C_6
REMARK    3  A    between atoms: C_9  and  N_10
REMARK    4  A    between atoms: C_19  and  C_20
REMARK                            x       y       z     vdW  Elec       q    Type
REMARK                         _______ _______ _______ _____ _____    ______ ____
ROOT
ATOM      1  N   UNL     1       1.833   7.463  19.097  0.00  0.00    +0.000 N 
ATOM      2  C   UNL     1       2.818   6.866  18.336  0.00  0.00    +0.000 C 
ATOM      3  O   UNL     1       3.615   7.451  17.611  0.00  0.00    +0.000 OA
ATOM      4  N   UNL     1       2.823   5.501  18.444  0.00  0.00    +0.000 N 
ATOM      5  C   UNL     1       1.923   4.553  19.088  0.00  0.00    +0.000 C 
ATOM      6  C   UNL     1       2.822   3.506  18.469  0.00  0.00    +0.000 C 
ATOM      7  C   UNL     1       3.780   2.785  19.396  0.00  0.00    +0.000 C 
ATOM      8  C   UNL     1       2.758   1.621  19.386  0.00  0.00    +0.000 C 
ATOM      9  C   UNL     1       2.199   2.197  18.055  0.00  0.00    +0.000 C 
ATOM     10  C   UNL     1       3.297   4.513  17.449  0.00  0.00    +0.000 C 
ATOM     11  H   UNL     1       1.172   6.836  19.523  0.00  0.00    +0.000 HD
ENDROOT
BRANCH   1  15
ATOM     12  C   UNL     1       0.945  11.573  19.550  0.00  0.00    +0.000 A 
ATOM     13  C   UNL     1       1.526  11.107  18.369  0.00  0.00    +0.000 A 
ATOM     14  C   UNL     1       1.832   9.755  18.201  0.00  0.00    +0.000 A 
ATOM     15  C   UNL     1       1.555   8.836  19.206  0.00  0.00    +0.000 A 
ATOM     16  C   UNL     1       0.977   9.292  20.396  0.00  0.00    +0.000 A 
ATOM     17  C   UNL     1       0.676  10.651  20.566  0.00  0.00    +0.000 A 
BRANCH  12  22
ATOM     18  C   UNL     1       0.774  16.281  21.030  0.00  0.00    +0.000 C 
ATOM     19  N   UNL     1       0.503  15.036  20.366  0.00  0.00    +0.000 N 
ATOM     20  C   UNL     1      -0.322  14.775  19.339  0.00  0.00    +0.000 A 
ATOM     21  N   UNL     1      -0.299  13.561  18.899  0.00  0.00    +0.000 NA
ATOM     22  N   UNL     1       0.637  12.939  19.710  0.00  0.00    +0.000 N 
ATOM     23  C   UNL     1       1.163  13.861  20.632  0.00  0.00    +0.000 A 
ATOM     24  O   UNL     1       2.024  13.723  21.485  0.00  0.00    +0.000 OA
ENDBRANCH  12  22
ENDBRANCH   1  15
BRANCH  10  25
ATOM     25  C   UNL     1       4.794   4.577  16.944  0.00  0.00    +0.000 A 
ATOM     26  C   UNL     1       5.097   4.427  15.572  0.00  0.00    +0.000 A 
ATOM     27  C   UNL     1       6.402   4.506  15.080  0.00  0.00    +0.000 A 
ATOM     28  C   UNL     1       7.458   4.728  15.953  0.00  0.00    +0.000 A 
ATOM     29  C   UNL     1       7.205   4.876  17.312  0.00  0.00    +0.000 A 
ATOM     30  C   UNL     1       5.894   4.811  17.793  0.00  0.00    +0.000 A 
ENDBRANCH  10  25
TORSDOF 3
ENDMDL
MODEL 6
REMARK VINA RESULT:      -8.6      0.526      1.338
REMARK  Name = 
REMARK  4 active torsions:
REMARK  status: ('A' for Active; 'I' for Inactive)
REMARK    1  A    between atoms: C_1  and  N_2
REMARK    2  A    between atoms: N_5  and  C_6
REMARK    3  A    between atoms: C_9  and  N_10
REMARK    4  A    between atoms: C_19  and  C_20
REMARK                            x       y       z     vdW  Elec       q    Type
REMARK                         _______ _______ _______ _____ _____    ______ ____
ROOT
ATOM      1  N   UNL     1       2.521   8.338  18.086  0.00  0.00    +0.000 N 
ATOM      2  C   UNL     1       2.797   7.016  18.368  0.00  0.00    +0.000 C 
ATOM      3  O   UNL     1       2.210   6.321  19.190  0.00  0.00    +0.000 OA
ATOM      4  N   UNL     1       3.845   6.522  17.636  0.00  0.00    +0.000 N 
ATOM      5  C   UNL     1       4.801   7.141  16.728  0.00  0.00    +0.000 C 
ATOM      6  C   UNL     1       5.427   5.765  16.685  0.00  0.00    +0.000 C 
ATOM      7  C   UNL     1       5.204   4.945  15.430  0.00  0.00    +0.000 C 
ATOM      8  C   UNL     1       6.628   5.384  15.009  0.00  0.00    +0.000 C 
ATOM      9  C   UNL     1       6.921   5.676  16.507  0.00  0.00    +0.000 C 
ATOM     10  C   UNL     1       4.765   5.421  17.998  0.00  0.00    +0.000 C 
ATOM     11  H   UNL     1       3.185   8.806  17.492  0.00  0.00    +0.000 HD
ENDROOT
BRANCH   1  15
ATOM     12  C   UNL     1      -0.541  10.777  19.688  0.00  0.00    +0.000 A 
ATOM     13  C   UNL     1       0.404  10.192  20.533  0.00  0.00    +0.000 A 
ATOM     14  C   UNL     1       1.420   9.379  20.026  0.00  0.00    +0.000 A 
ATOM     15  C   UNL     1       1.520   9.141  18.659  0.00  0.00    +0.000 A 
ATOM     16  C   UNL     1       0.576   9.719  17.803  0.00  0.00    +0.000 A 
ATOM     17  C   UNL     1      -0.447  10.530  18.315  0.00  0.00    +0.000 A 
BRANCH  12  22
ATOM     18  C   UNL     1      -3.367  13.618  22.574  0.00  0.00    +0.000 C 
ATOM     19  N   UNL     1      -2.867  12.839  21.475  0.00  0.00    +0.000 N 
ATOM     20  C   UNL     1      -3.350  12.706  20.230  0.00  0.00    +0.000 A 
ATOM     21  N   UNL     1      -2.635  11.990  19.427  0.00  0.00    +0.000 NA
ATOM     22  N   UNL     1      -1.561  11.599  20.209  0.00  0.00    +0.000 N 
ATOM     23  C   UNL     1      -1.685  12.139  21.502  0.00  0.00    +0.000 A 
ATOM     24  O   UNL     1      -0.942  12.062  22.466  0.00  0.00    +0.000 OA
ENDBRANCH  12  22
ENDBRANCH   1  15
BRANCH  10  25
ATOM     25  C   UNL     1       4.175   3.986  18.306  0.00  0.00    +0.000 A 
ATOM     26  C   UNL     1       3.164   3.434  17.489  0.00  0.00    +0.000 A 
ATOM     27  C   UNL     1       2.637   2.158  17.708  0.00  0.00    +0.000 A 
ATOM     28  C   UNL     1       3.101   1.391  18.768  0.00  0.00    +0.000 A 
ATOM     29  C   UNL     1       4.093   1.898  19.600  0.00  0.00    +0.000 A 
ATOM     30  C   UNL     1       4.625   3.170  19.363  0.00  0.00    +0.000 A 
ENDBRANCH  10  25
TORSDOF 3
ENDMDL
MODEL 7
REMARK VINA RESULT:      -8.6      1.788      3.601
REMARK  Name = 
REMARK  4 active torsions:
REMARK  status: ('A' for Active; 'I' for Inactive)
REMARK    1  A    between atoms: C_1  and  N_2
REMARK    2  A    between atoms: N_5  and  C_6
REMARK    3  A    between atoms: C_9  and  N_10
REMARK    4  A    between atoms: C_19  and  C_20
REMARK                            x       y       z     vdW  Elec       q    Type
REMARK                         _______ _______ _______ _____ _____    ______ ____
ROOT
ATOM      1  N   UNL     1       1.857   7.228  19.399  0.00  0.00    +0.000 N 
ATOM      2  C   UNL     1       2.817   6.777  18.515  0.00  0.00    +0.000 C 
ATOM      3  O   UNL     1       3.522   7.482  17.802  0.00  0.00    +0.000 OA
ATOM      4  N   UNL     1       2.909   5.411  18.480  0.00  0.00    +0.000 N 
ATOM      5  C   UNL     1       2.117   4.346  19.081  0.00  0.00    +0.000 C 
ATOM      6  C   UNL     1       3.027   3.427  18.297  0.00  0.00    +0.000 C 
ATOM      7  C   UNL     1       4.092   2.683  19.077  0.00  0.00    +0.000 C 
ATOM      8  C   UNL     1       3.142   1.460  19.015  0.00  0.00    +0.000 C 
ATOM      9  C   UNL     1       2.453   2.128  17.793  0.00  0.00    +0.000 C 
ATOM     10  C   UNL     1       3.365   4.561  17.358  0.00  0.00    +0.000 C 
ATOM     11  H   UNL     1       1.267   6.520  19.801  0.00  0.00    +0.000 HD
ENDROOT
BRANCH   1  15
ATOM     12  C   UNL     1       0.789  11.210  20.343  0.00  0.00    +0.000 A 
ATOM     13  C   UNL     1       1.093  10.860  19.027  0.00  0.00    +0.000 A 
ATOM     14  C   UNL     1       1.453   9.552  18.694  0.00  0.00    +0.000 A 
ATOM     15  C   UNL     1       1.508   8.562  19.669  0.00  0.00    +0.000 A 
ATOM     16  C   UNL     1       1.209   8.903  20.993  0.00  0.00    +0.000 A 
ATOM     17  C   UNL     1       0.854  10.218  21.326  0.00  0.00    +0.000 A 
BRANCH  12  22
ATOM     18  C   UNL     1      -1.547  15.538  20.794  0.00  0.00    +0.000 C 
ATOM     19  N   UNL     1      -0.567  14.488  20.862  0.00  0.00    +0.000 N 
ATOM     20  C   UNL     1       0.594  14.443  21.533  0.00  0.00    +0.000 A 
ATOM     21  N   UNL     1       1.235  13.323  21.466  0.00  0.00    +0.000 NA
ATOM     22  N   UNL     1       0.424  12.532  20.669  0.00  0.00    +0.000 N 
ATOM     23  C   UNL     1      -0.726  13.249  20.291  0.00  0.00    +0.000 A 
ATOM     24  O   UNL     1      -1.690  12.904  19.629  0.00  0.00    +0.000 OA
ENDBRANCH  12  22
ENDBRANCH   1  15
BRANCH  10  25
ATOM     25  C   UNL     1       4.815   4.772  16.762  0.00  0.00    +0.000 A 
ATOM     26  C   UNL     1       5.071   4.533  15.394  0.00  0.00    +0.000 A 
ATOM     27  C   UNL     1       6.329   4.736  14.820  0.00  0.00    +0.000 A 
ATOM     28  C   UNL     1       7.384   5.179  15.607  0.00  0.00    +0.000 A 
ATOM     29  C   UNL     1       7.177   5.423  16.959  0.00  0.00    +0.000 A 
ATOM     30  C   UNL     1       5.910   5.231  17.521  0.00  0.00    +0.000 A 
ENDBRANCH  10  25
TORSDOF 3
ENDMDL
MODEL 8
REMARK VINA RESULT:      -8.6      1.193      1.681
REMARK  Name = 
REMARK  4 active torsions:
REMARK  status: ('A' for Active; 'I' for Inactive)
REMARK    1  A    between atoms: C_1  and  N_2
REMARK    2  A    between atoms: N_5  and  C_6
REMARK    3  A    between atoms: C_9  and  N_10
REMARK    4  A    between atoms: C_19  and  C_20
REMARK                            x       y       z     vdW  Elec       q    Type
REMARK                         _______ _______ _______ _____ _____    ______ ____
ROOT
ATOM      1  N   UNL     1       2.496   8.309  17.959  0.00  0.00    +0.000 N 
ATOM      2  C   UNL     1       2.765   6.996  18.286  0.00  0.00    +0.000 C 
ATOM      3  O   UNL     1       2.148   6.320  19.102  0.00  0.00    +0.000 OA
ATOM      4  N   UNL     1       3.842   6.487  17.609  0.00  0.00    +0.000 N 
ATOM      5  C   UNL     1       4.830   7.086  16.723  0.00  0.00    +0.000 C 
ATOM      6  C   UNL     1       5.462   5.713  16.740  0.00  0.00    +0.000 C 
ATOM      7  C   UNL     1       5.290   4.859  15.499  0.00  0.00    +0.000 C 
ATOM      8  C   UNL     1       6.729   5.292  15.122  0.00  0.00    +0.000 C 
ATOM      9  C   UNL     1       6.963   5.625  16.623  0.00  0.00    +0.000 C 
ATOM     10  C   UNL     1       4.750   5.400  18.035  0.00  0.00    +0.000 C 
ATOM     11  H   UNL     1       3.181   8.764  17.380  0.00  0.00    +0.000 HD
ENDROOT
BRANCH   1  15
ATOM     12  C   UNL     1      -0.537  10.740  19.628  0.00  0.00    +0.000 A 
ATOM     13  C   UNL     1      -0.533  10.465  18.259  0.00  0.00    +0.000 A 
ATOM     14  C   UNL     1       0.462   9.669  17.687  0.00  0.00    +0.000 A 
ATOM     15  C   UNL     1       1.471   9.122  18.472  0.00  0.00    +0.000 A 
ATOM     16  C   UNL     1       1.479   9.394  19.845  0.00  0.00    +0.000 A 
ATOM     17  C   UNL     1       0.483  10.199  20.417  0.00  0.00    +0.000 A 
BRANCH  12  22
ATOM     18  C   UNL     1      -4.631  13.372  20.463  0.00  0.00    +0.000 C 
ATOM     19  N   UNL     1      -3.340  12.755  20.596  0.00  0.00    +0.000 N 
ATOM     20  C   UNL     1      -2.528  12.688  21.663  0.00  0.00    +0.000 A 
ATOM     21  N   UNL     1      -1.452  11.991  21.504  0.00  0.00    +0.000 NA
ATOM     22  N   UNL     1      -1.547  11.541  20.197  0.00  0.00    +0.000 N 
ATOM     23  C   UNL     1      -2.741  12.003  19.614  0.00  0.00    +0.000 A 
ATOM     24  O   UNL     1      -3.208  11.803  18.506  0.00  0.00    +0.000 OA
ENDBRANCH  12  22
ENDBRANCH   1  15
BRANCH  10  25
ATOM     25  C   UNL     1       4.154   3.971  18.358  0.00  0.00    +0.000 A 
ATOM     26  C   UNL     1       3.138   3.416  17.547  0.00  0.00    +0.000 A 
ATOM     27  C   UNL     1       2.605   2.146  17.779  0.00  0.00    +0.000 A 
ATOM     28  C   UNL     1       3.067   1.386  18.845  0.00  0.00    +0.000 A 
ATOM     29  C   UNL     1       4.062   1.895  19.670  0.00  0.00    +0.000 A 
ATOM     30  C   UNL     1       4.601   3.162  19.421  0.00  0.00    +0.000 A 
ENDBRANCH  10  25
TORSDOF 3
ENDMDL
MODEL 9
REMARK VINA RESULT:      -8.5      1.973      3.830
REMARK  Name = 
REMARK  4 active torsions:
REMARK  status: ('A' for Active; 'I' for Inactive)
REMARK    1  A    between atoms: C_1  and  N_2
REMARK    2  A    between atoms: N_5  and  C_6
REMARK    3  A    between atoms: C_9  and  N_10
REMARK    4  A    between atoms: C_19  and  C_20
REMARK                            x       y       z     vdW  Elec       q    Type
REMARK                         _______ _______ _______ _____ _____    ______ ____
ROOT
ATOM      1  N   UNL     1       1.866   7.223  19.433  0.00  0.00    +0.000 N 
ATOM      2  C   UNL     1       2.831   6.772  18.555  0.00  0.00    +0.000 C 
ATOM      3  O   UNL     1       3.549   7.478  17.856  0.00  0.00    +0.000 OA
ATOM      4  N   UNL     1       2.913   5.405  18.509  0.00  0.00    +0.000 N 
ATOM      5  C   UNL     1       2.106   4.342  19.092  0.00  0.00    +0.000 C 
ATOM      6  C   UNL     1       3.017   3.423  18.309  0.00  0.00    +0.000 C 
ATOM      7  C   UNL     1       4.067   2.662  19.093  0.00  0.00    +0.000 C 
ATOM      8  C   UNL     1       3.109   1.448  19.010  0.00  0.00    +0.000 C 
ATOM      9  C   UNL     1       2.437   2.133  17.787  0.00  0.00    +0.000 C 
ATOM     10  C   UNL     1       3.373   4.561  17.384  0.00  0.00    +0.000 C 
ATOM     11  H   UNL     1       1.266   6.516  19.823  0.00  0.00    +0.000 HD
ENDROOT
BRANCH   1  15
ATOM     12  C   UNL     1       0.857  11.269  20.142  0.00  0.00    +0.000 A 
ATOM     13  C   UNL     1       0.893  10.359  21.201  0.00  0.00    +0.000 A 
ATOM     14  C   UNL     1       1.218   9.018  20.988  0.00  0.00    +0.000 A 
ATOM     15  C   UNL     1       1.525   8.557  19.712  0.00  0.00    +0.000 A 
ATOM     16  C   UNL     1       1.489   9.459  18.643  0.00  0.00    +0.000 A 
ATOM     17  C   UNL     1       1.155  10.804  18.858  0.00  0.00    +0.000 A 
BRANCH  12  22
ATOM     18  C   UNL     1      -0.820  15.897  19.754  0.00  0.00    +0.000 C 
ATOM     19  N   UNL     1      -0.167  14.704  20.217  0.00  0.00    +0.000 N 
ATOM     20  C   UNL     1       0.425  14.454  21.396  0.00  0.00    +0.000 A 
ATOM     21  N   UNL     1       0.862  13.249  21.557  0.00  0.00    +0.000 NA
ATOM     22  N   UNL     1       0.531  12.621  20.367  0.00  0.00    +0.000 N 
ATOM     23  C   UNL     1      -0.133  13.523  19.516  0.00  0.00    +0.000 A 
ATOM     24  O   UNL     1      -0.612  13.356  18.407  0.00  0.00    +0.000 OA
ENDBRANCH  12  22
ENDBRANCH   1  15
BRANCH  10  25
ATOM     25  C   UNL     1       4.831   4.767  16.804  0.00  0.00    +0.000 A 
ATOM     26  C   UNL     1       5.086   4.597  15.426  0.00  0.00    +0.000 A 
ATOM     27  C   UNL     1       6.351   4.798  14.867  0.00  0.00    +0.000 A 
ATOM     28  C   UNL     1       7.415   5.167  15.680  0.00  0.00    +0.000 A 
ATOM     29  C   UNL     1       7.208   5.341  17.044  0.00  0.00    +0.000 A 
ATOM     30  C   UNL     1       5.934   5.153  17.590  0.00  0.00    +0.000 A 
ENDBRANCH  10  25
TORSDOF 3
ENDMDL
