MODEL 1
REMARK VINA RESULT:      -8.9      0.000      0.000
REMARK  Name = 
REMARK  5 active torsions:
REMARK  status: ('A' for Active; 'I' for Inactive)
REMARK    1  A    between atoms: C_1  and  N_2
REMARK    2  A    between atoms: C_6  and  C_7
REMARK    3  A    between atoms: C_7  and  C_8
REMARK    4  A    between atoms: C_10  and  N_11
REMARK    5  A    between atoms: C_18  and  C_19
REMARK                            x       y       z     vdW  Elec       q    Type
REMARK                         _______ _______ _______ _____ _____    ______ ____
ROOT
ATOM      1  N   UNL     1       2.061   7.301  19.656  0.00  0.00    +0.000 N 
ATOM      2  C   UNL     1       1.387   7.732  20.877  0.00  0.00    +0.000 C 
ATOM      3  C   UNL     1       0.914   9.114  20.570  0.00  0.00    +0.000 A 
ATOM      4  C   UNL     1       1.297   9.448  19.278  0.00  0.00    +0.000 A 
ATOM      5  C   UNL     1       1.007  10.666  18.698  0.00  0.00    +0.000 A 
ATOM      6  C   UNL     1       0.289  11.584  19.460  0.00  0.00    +0.000 A 
ATOM      7  C   UNL     1      -0.110  11.263  20.770  0.00  0.00    +0.000 A 
ATOM      8  C   UNL     1       0.200  10.018  21.353  0.00  0.00    +0.000 A 
ATOM      9  C   UNL     1       2.022   8.319  18.692  0.00  0.00    +0.000 C 
ATOM     10  O   UNL     1       2.469   8.374  17.558  0.00  0.00    +0.000 OA
ENDROOT
BRANCH   1  13
ATOM     11  C   UNL     1       4.449   4.747  18.438  0.00  0.00    +0.000 C 
ATOM     12  C   UNL     1       3.886   5.927  18.757  0.00  0.00    +0.000 C 
ATOM     13  C   UNL     1       2.645   6.047  19.511  0.00  0.00    +0.000 C 
ATOM     14  C   UNL     1       2.125   4.932  20.055  0.00  0.00    +0.000 C 
ATOM     15  C   UNL     1       2.735   3.567  19.945  0.00  0.00    +0.000 C 
ATOM     16  C   UNL     1       3.875   3.438  18.925  0.00  0.00    +0.000 C 
BRANCH  11  17
ATOM     17  C   UNL     1       5.704   4.679  17.594  0.00  0.00    +0.000 C 
BRANCH  17  23
ATOM     18  C   UNL     1       7.891   5.583  19.708  0.00  0.00    +0.000 C 
ATOM     19  N   UNL     1       7.485   6.276  18.514  0.00  0.00    +0.000 N 
ATOM     20  C   UNL     1       7.989   7.470  18.095  0.00  0.00    +0.000 A 
ATOM     21  N   UNL     1       7.453   7.795  16.944  0.00  0.00    +0.000 NA
ATOM     22  N   UNL     1       6.558   6.810  16.612  0.00  0.00    +0.000 NA
ATOM     23  C   UNL     1       6.561   5.902  17.570  0.00  0.00    +0.000 A 
ENDBRANCH  17  23
ENDBRANCH  11  17
ENDBRANCH   1  13
BRANCH   8  24
ATOM     24  C   UNL     1      -0.233   9.714  22.762  0.00  0.00    +0.000 C 
ATOM     25  F   UNL     1       0.805   9.462  23.608  0.00  0.00    +0.000 F 
ATOM     26  F   UNL     1      -0.924  10.743  23.323  0.00  0.00    +0.000 F 
ATOM     27  F   UNL     1      -1.045   8.626  22.836  0.00  0.00    +0.000 F 
ENDBRANCH   8  24
TORSDOF 4
ENDMDL
MODEL 2
REMARK VINA RESULT:      -8.9      2.485      3.865
REMARK  Name = 
REMARK  5 active torsions:
REMARK  status: ('A' for Active; 'I' for Inactive)
REMARK    1  A    between atoms: C_1  and  N_2
REMARK    2  A    between atoms: C_6  and  C_7
REMARK    3  A    between atoms: C_7  and  C_8
REMARK    4  A    between atoms: C_10  and  N_11
REMARK    5  A    between atoms: C_18  and  C_19
REMARK                            x       y       z     vdW  Elec       q    Type
REMARK                         _______ _______ _______ _____ _____    ______ ____
ROOT
ATOM      1  N   UNL     1       1.963   8.525  18.839  0.00  0.00    +0.000 N 
ATOM      2  C   UNL     1       1.344   8.454  20.161  0.00  0.00    +0.000 C 
ATOM      3  C   UNL     1       0.738   9.803  20.358  0.00  0.00    +0.000 A 
ATOM      4  C   UNL     1       0.999  10.586  19.240  0.00  0.00    +0.000 A 
ATOM      5  C   UNL     1       0.568  11.891  19.118  0.00  0.00    +0.000 A 
ATOM      6  C   UNL     1      -0.167  12.425  20.174  0.00  0.00    +0.000 A 
ATOM      7  C   UNL     1      -0.444  11.647  21.313  0.00  0.00    +0.000 A 
ATOM      8  C   UNL     1       0.010  10.318  21.427  0.00  0.00    +0.000 A 
ATOM      9  C   UNL     1       1.770   9.796  18.278  0.00  0.00    +0.000 C 
ATOM     10  O   UNL     1       2.129  10.270  17.214  0.00  0.00    +0.000 OA
ENDROOT
BRANCH   1  13
ATOM     11  C   UNL     1       2.732   5.003  17.995  0.00  0.00    +0.000 C 
ATOM     12  C   UNL     1       2.086   6.114  18.394  0.00  0.00    +0.000 C 
ATOM     13  C   UNL     1       2.636   7.457  18.257  0.00  0.00    +0.000 C 
ATOM     14  C   UNL     1       3.770   7.606  17.550  0.00  0.00    +0.000 C 
ATOM     15  C   UNL     1       4.512   6.486  16.884  0.00  0.00    +0.000 C 
ATOM     16  C   UNL     1       4.060   5.073  17.279  0.00  0.00    +0.000 C 
BRANCH  11  17
ATOM     17  C   UNL     1       2.143   3.628  18.224  0.00  0.00    +0.000 C 
BRANCH  17  23
ATOM     18  C   UNL     1       4.397   2.351  20.056  0.00  0.00    +0.000 C 
ATOM     19  N   UNL     1       3.025   2.607  20.404  0.00  0.00    +0.000 N 
ATOM     20  C   UNL     1       2.459   2.325  21.610  0.00  0.00    +0.000 A 
ATOM     21  N   UNL     1       1.215   2.737  21.621  0.00  0.00    +0.000 NA
ATOM     22  N   UNL     1       0.947   3.273  20.387  0.00  0.00    +0.000 NA
ATOM     23  C   UNL     1       2.033   3.176  19.644  0.00  0.00    +0.000 A 
ENDBRANCH  17  23
ENDBRANCH  11  17
ENDBRANCH   1  13
BRANCH   8  24
ATOM     24  C   UNL     1      -0.295   9.520  22.667  0.00  0.00    +0.000 C 
ATOM     25  F   UNL     1      -1.131  10.158  23.533  0.00  0.00    +0.000 F 
ATOM     26  F   UNL     1      -0.896   8.332  22.383  0.00  0.00    +0.000 F 
ATOM     27  F   UNL     1       0.821   9.218  23.383  0.00  0.00    +0.000 F 
ENDBRANCH   8  24
TORSDOF 4
ENDMDL
MODEL 3
REMARK VINA RESULT:      -8.6      0.817      1.268
REMARK  Name = 
REMARK  5 active torsions:
REMARK  status: ('A' for Active; 'I' for Inactive)
REMARK    1  A    between atoms: C_1  and  N_2
REMARK    2  A    between atoms: C_6  and  C_7
REMARK    3  A    between atoms: C_7  and  C_8
REMARK    4  A    between atoms: C_10  and  N_11
REMARK    5  A    between atoms: C_18  and  C_19
REMARK                            x       y       z     vdW  Elec       q    Type
REMARK                         _______ _______ _______ _____ _____    ______ ____
ROOT
ATOM      1  N   UNL     1       1.940   7.054  20.038  0.00  0.00    +0.000 N 
ATOM      2  C   UNL     1       1.257   7.637  21.190  0.00  0.00    +0.000 C 
ATOM      3  C   UNL     1       0.909   9.021  20.753  0.00  0.00    +0.000 A 
ATOM      4  C   UNL     1       1.367   9.216  19.456  0.00  0.00    +0.000 A 
ATOM      5  C   UNL     1       1.199  10.400  18.768  0.00  0.00    +0.000 A 
ATOM      6  C   UNL     1       0.529  11.432  19.422  0.00  0.00    +0.000 A 
ATOM      7  C   UNL     1       0.056  11.253  20.735  0.00  0.00    +0.000 A 
ATOM      8  C   UNL     1       0.242  10.039  21.428  0.00  0.00    +0.000 A 
ATOM      9  C   UNL     1       2.020   7.989  18.995  0.00  0.00    +0.000 C 
ATOM     10  O   UNL     1       2.512   7.915  17.882  0.00  0.00    +0.000 OA
ENDROOT
BRANCH   1  13
ATOM     11  C   UNL     1       4.185   4.241  19.174  0.00  0.00    +0.000 C 
ATOM     12  C   UNL     1       3.702   5.481  19.372  0.00  0.00    +0.000 C 
ATOM     13  C   UNL     1       2.425   5.751  20.020  0.00  0.00    +0.000 C 
ATOM     14  C   UNL     1       1.776   4.723  20.593  0.00  0.00    +0.000 C 
ATOM     15  C   UNL     1       2.276   3.309  20.619  0.00  0.00    +0.000 C 
ATOM     16  C   UNL     1       3.471   3.018  19.699  0.00  0.00    +0.000 C 
BRANCH  11  17
ATOM     17  C   UNL     1       5.486   4.015  18.434  0.00  0.00    +0.000 C 
BRANCH  17  23
ATOM     18  C   UNL     1       5.536   6.319  16.254  0.00  0.00    +0.000 C 
ATOM     19  N   UNL     1       6.424   6.151  17.374  0.00  0.00    +0.000 N 
ATOM     20  C   UNL     1       7.462   6.979  17.679  0.00  0.00    +0.000 A 
ATOM     21  N   UNL     1       8.031   6.582  18.790  0.00  0.00    +0.000 NA
ATOM     22  N   UNL     1       7.373   5.454  19.210  0.00  0.00    +0.000 NA
ATOM     23  C   UNL     1       6.416   5.180  18.344  0.00  0.00    +0.000 A 
ENDBRANCH  17  23
ENDBRANCH  11  17
ENDBRANCH   1  13
BRANCH   8  24
ATOM     24  C   UNL     1      -0.268   9.888  22.836  0.00  0.00    +0.000 C 
ATOM     25  F   UNL     1       0.711   9.606  23.742  0.00  0.00    +0.000 F 
ATOM     26  F   UNL     1      -0.875  11.018  23.290  0.00  0.00    +0.000 F 
ATOM     27  F   UNL     1      -1.184   8.890  22.957  0.00  0.00    +0.000 F 
ENDBRANCH   8  24
TORSDOF 4
ENDMDL
MODEL 4
REMARK VINA RESULT:      -8.6      0.956      1.239
REMARK  Name = 
REMARK  5 active torsions:
REMARK  status: ('A' for Active; 'I' for Inactive)
REMARK    1  A    between atoms: C_1  and  N_2
REMARK    2  A    between atoms: C_6  and  C_7
REMARK    3  A    between atoms: C_7  and  C_8
REMARK    4  A    between atoms: C_10  and  N_11
REMARK    5  A    between atoms: C_18  and  C_19
REMARK                            x       y       z     vdW  Elec       q    Type
REMARK                         _______ _______ _______ _____ _____    ______ ____
ROOT
ATOM      1  N   UNL     1       1.982   7.929  19.011  0.00  0.00    +0.000 N 
ATOM      2  C   UNL     1       1.391   8.072  20.339  0.00  0.00    +0.000 C 
ATOM      3  C   UNL     1       0.856   9.465  20.358  0.00  0.00    +0.000 A 
ATOM      4  C   UNL     1       1.129  10.073  19.139  0.00  0.00    +0.000 A 
ATOM      5  C   UNL     1       0.760  11.369  18.845  0.00  0.00    +0.000 A 
ATOM      6  C   UNL     1       0.077  12.080  19.828  0.00  0.00    +0.000 A 
ATOM      7  C   UNL     1      -0.211  11.481  21.068  0.00  0.00    +0.000 A 
ATOM      8  C   UNL     1       0.179  10.158  21.358  0.00  0.00    +0.000 A 
ATOM      9  C   UNL     1       1.839   9.119  18.283  0.00  0.00    +0.000 C 
ATOM     10  O   UNL     1       2.195   9.424  17.158  0.00  0.00    +0.000 OA
ENDROOT
BRANCH   1  13
ATOM     11  C   UNL     1       4.505   5.784  17.356  0.00  0.00    +0.000 C 
ATOM     12  C   UNL     1       3.901   6.834  17.943  0.00  0.00    +0.000 C 
ATOM     13  C   UNL     1       2.588   6.757  18.570  0.00  0.00    +0.000 C 
ATOM     14  C   UNL     1       2.025   5.545  18.713  0.00  0.00    +0.000 C 
ATOM     15  C   UNL     1       2.656   4.256  18.276  0.00  0.00    +0.000 C 
ATOM     16  C   UNL     1       3.896   4.403  17.383  0.00  0.00    +0.000 C 
BRANCH  11  17
ATOM     17  C   UNL     1       5.840   5.936  16.659  0.00  0.00    +0.000 C 
BRANCH  17  23
ATOM     18  C   UNL     1       7.730   5.327  19.134  0.00  0.00    +0.000 C 
ATOM     19  N   UNL     1       7.623   6.556  18.394  0.00  0.00    +0.000 N 
ATOM     20  C   UNL     1       8.334   7.688  18.652  0.00  0.00    +0.000 A 
ATOM     21  N   UNL     1       8.047   8.603  17.759  0.00  0.00    +0.000 NA
ATOM     22  N   UNL     1       7.106   8.073  16.913  0.00  0.00    +0.000 NA
ATOM     23  C   UNL     1       6.833   6.844  17.308  0.00  0.00    +0.000 A 
ENDBRANCH  17  23
ENDBRANCH  11  17
ENDBRANCH   1  13
BRANCH   8  24
ATOM     24  C   UNL     1      -0.135   9.555  22.700  0.00  0.00    +0.000 C 
ATOM     25  F   UNL     1      -0.830  10.390  23.524  0.00  0.00    +0.000 F 
ATOM     26  F   UNL     1      -0.892   8.428  22.596  0.00  0.00    +0.000 F 
ATOM     27  F   UNL     1       0.982   9.199  23.389  0.00  0.00    +0.000 F 
ENDBRANCH   8  24
TORSDOF 4
ENDMDL
MODEL 5
REMARK VINA RESULT:      -8.6      1.012      1.729
REMARK  Name = 
REMARK  5 active torsions:
REMARK  status: ('A' for Active; 'I' for Inactive)
REMARK    1  A    between atoms: C_1  and  N_2
REMARK    2  A    between atoms: C_6  and  C_7
REMARK    3  A    between atoms: C_7  and  C_8
REMARK    4  A    between atoms: C_10  and  N_11
REMARK    5  A    between atoms: C_18  and  C_19
REMARK                            x       y       z     vdW  Elec       q    Type
REMARK                         _______ _______ _______ _____ _____    ______ ____
ROOT
ATOM      1  N   UNL     1       2.222   7.042  19.773  0.00  0.00    +0.000 N 
ATOM      2  C   UNL     1       1.485   7.569  20.919  0.00  0.00    +0.000 C 
ATOM      3  C   UNL     1       1.010   8.910  20.468  0.00  0.00    +0.000 A 
ATOM      4  C   UNL     1       1.451   9.135  19.170  0.00  0.00    +0.000 A 
ATOM      5  C   UNL     1       1.174  10.292  18.471  0.00  0.00    +0.000 A 
ATOM      6  C   UNL     1       0.409  11.262  19.114  0.00  0.00    +0.000 A 
ATOM      7  C   UNL     1      -0.049  11.052  20.427  0.00  0.00    +0.000 A 
ATOM      8  C   UNL     1       0.249   9.868  21.133  0.00  0.00    +0.000 A 
ATOM      9  C   UNL     1       2.216   7.970  18.721  0.00  0.00    +0.000 C 
ATOM     10  O   UNL     1       2.716   7.932  17.610  0.00  0.00    +0.000 OA
ENDROOT
BRANCH   1  13
ATOM     11  C   UNL     1       4.872   4.514  19.235  0.00  0.00    +0.000 C 
ATOM     12  C   UNL     1       4.235   5.687  19.409  0.00  0.00    +0.000 C 
ATOM     13  C   UNL     1       2.827   5.790  19.768  0.00  0.00    +0.000 C 
ATOM     14  C   UNL     1       2.174   4.663  20.100  0.00  0.00    +0.000 C 
ATOM     15  C   UNL     1       2.795   3.298  20.132  0.00  0.00    +0.000 C 
ATOM     16  C   UNL     1       4.186   3.194  19.490  0.00  0.00    +0.000 C 
BRANCH  11  17
ATOM     17  C   UNL     1       6.320   4.466  18.796  0.00  0.00    +0.000 C 
BRANCH  17  23
ATOM     18  C   UNL     1       4.907   3.561  16.103  0.00  0.00    +0.000 C 
ATOM     19  N   UNL     1       5.994   4.491  16.254  0.00  0.00    +0.000 N 
ATOM     20  C   UNL     1       6.611   5.144  15.230  0.00  0.00    +0.000 A 
ATOM     21  N   UNL     1       7.516   5.961  15.710  0.00  0.00    +0.000 NA
ATOM     22  N   UNL     1       7.516   5.822  17.075  0.00  0.00    +0.000 NA
ATOM     23  C   UNL     1       6.612   4.919  17.403  0.00  0.00    +0.000 A 
ENDBRANCH  17  23
ENDBRANCH  11  17
ENDBRANCH   1  13
BRANCH   8  24
ATOM     24  C   UNL     1      -0.247   9.683  22.541  0.00  0.00    +0.000 C 
ATOM     25  F   UNL     1      -1.024  10.712  22.984  0.00  0.00    +0.000 F 
ATOM     26  F   UNL     1      -1.007   8.563  22.679  0.00  0.00    +0.000 F 
ATOM     27  F   UNL     1       0.765   9.568  23.442  0.00  0.00    +0.000 F 
ENDBRANCH   8  24
TORSDOF 4
ENDMDL
MODEL 6
REMARK VINA RESULT:      -8.5      1.492      1.890
REMARK  Name = 
REMARK  5 active torsions:
REMARK  status: ('A' for Active; 'I' for Inactive)
REMARK    1  A    between atoms: C_1  and  N_2
REMARK    2  A    between atoms: C_6  and  C_7
REMARK    3  A    between atoms: C_7  and  C_8
REMARK    4  A    between atoms: C_10  and  N_11
REMARK    5  A    between atoms: C_18  and  C_19
REMARK                            x       y       z     vdW  Elec       q    Type
REMARK                         _______ _______ _______ _____ _____    ______ ____
ROOT
ATOM      1  N   UNL     1       1.932   7.172  19.781  0.00  0.00    +0.000 N 
ATOM      2  C   UNL     1       1.268   7.679  20.979  0.00  0.00    +0.000 C 
ATOM      3  C   UNL     1       0.943   9.097  20.650  0.00  0.00    +0.000 A 
ATOM      4  C   UNL     1       1.396   9.381  19.368  0.00  0.00    +0.000 A 
ATOM      5  C   UNL     1       1.245  10.616  18.772  0.00  0.00    +0.000 A 
ATOM      6  C   UNL     1       0.599  11.608  19.507  0.00  0.00    +0.000 A 
ATOM      7  C   UNL     1       0.131  11.339  20.806  0.00  0.00    +0.000 A 
ATOM      8  C   UNL     1       0.299  10.074  21.405  0.00  0.00    +0.000 A 
ATOM      9  C   UNL     1       2.022   8.180  18.811  0.00  0.00    +0.000 C 
ATOM     10  O   UNL     1       2.506   8.181  17.691  0.00  0.00    +0.000 OA
ENDROOT
BRANCH   1  13
ATOM     11  C   UNL     1       3.410   4.189  18.161  0.00  0.00    +0.000 C 
ATOM     12  C   UNL     1       3.060   5.460  18.431  0.00  0.00    +0.000 C 
ATOM     13  C   UNL     1       2.393   5.865  19.662  0.00  0.00    +0.000 C 
ATOM     14  C   UNL     1       2.268   4.955  20.643  0.00  0.00    +0.000 C 
ATOM     15  C   UNL     1       2.773   3.545  20.565  0.00  0.00    +0.000 C 
ATOM     16  C   UNL     1       3.216   3.082  19.170  0.00  0.00    +0.000 C 
BRANCH  11  17
ATOM     17  C   UNL     1       4.040   3.814  16.837  0.00  0.00    +0.000 C 
BRANCH  17  23
ATOM     18  C   UNL     1       5.611   4.223  14.111  0.00  0.00    +0.000 C 
ATOM     19  N   UNL     1       6.127   4.346  15.448  0.00  0.00    +0.000 N 
ATOM     20  C   UNL     1       7.414   4.660  15.763  0.00  0.00    +0.000 A 
ATOM     21  N   UNL     1       7.541   4.751  17.064  0.00  0.00    +0.000 NA
ATOM     22  N   UNL     1       6.320   4.462  17.619  0.00  0.00    +0.000 NA
ATOM     23  C   UNL     1       5.470   4.196  16.645  0.00  0.00    +0.000 A 
ENDBRANCH  17  23
ENDBRANCH  11  17
ENDBRANCH   1  13
BRANCH   8  24
ATOM     24  C   UNL     1      -0.204   9.827  22.802  0.00  0.00    +0.000 C 
ATOM     25  F   UNL     1       0.782   9.514  23.688  0.00  0.00    +0.000 F 
ATOM     26  F   UNL     1      -0.836  10.914  23.324  0.00  0.00    +0.000 F 
ATOM     27  F   UNL     1      -1.097   8.803  22.863  0.00  0.00    +0.000 F 
ENDBRANCH   8  24
TORSDOF 4
ENDMDL
MODEL 7
REMARK VINA RESULT:      -8.5      1.099      1.670
REMARK  Name = 
REMARK  5 active torsions:
REMARK  status: ('A' for Active; 'I' for Inactive)
REMARK    1  A    between atoms: C_1  and  N_2
REMARK    2  A    between atoms: C_6  and  C_7
REMARK    3  A    between atoms: C_7  and  C_8
REMARK    4  A    between atoms: C_10  and  N_11
REMARK    5  A    between atoms: C_18  and  C_19
REMARK                            x       y       z     vdW  Elec       q    Type
REMARK                         _______ _______ _______ _____ _____    ______ ____
ROOT
ATOM      1  N   UNL     1       2.019   7.148  19.769  0.00  0.00    +0.000 N 
ATOM      2  C   UNL     1       1.349   7.656  20.964  0.00  0.00    +0.000 C 
ATOM      3  C   UNL     1       0.969   9.055  20.608  0.00  0.00    +0.000 A 
ATOM      4  C   UNL     1       1.398   9.327  19.314  0.00  0.00    +0.000 A 
ATOM      5  C   UNL     1       1.195  10.542  18.694  0.00  0.00    +0.000 A 
ATOM      6  C   UNL     1       0.521  11.525  19.415  0.00  0.00    +0.000 A 
ATOM      7  C   UNL     1       0.078  11.269  20.724  0.00  0.00    +0.000 A 
ATOM      8  C   UNL     1       0.299  10.024  21.349  0.00  0.00    +0.000 A 
ATOM      9  C   UNL     1       2.062   8.137  18.776  0.00  0.00    +0.000 C 
ATOM     10  O   UNL     1       2.533   8.131  17.652  0.00  0.00    +0.000 OA
ENDROOT
BRANCH   1  13
ATOM     11  C   UNL     1       4.472   4.469  19.056  0.00  0.00    +0.000 C 
ATOM     12  C   UNL     1       3.926   5.671  19.316  0.00  0.00    +0.000 C 
ATOM     13  C   UNL     1       2.525   5.857  19.673  0.00  0.00    +0.000 C 
ATOM     14  C   UNL     1       1.784   4.761  19.914  0.00  0.00    +0.000 C 
ATOM     15  C   UNL     1       2.298   3.354  19.847  0.00  0.00    +0.000 C 
ATOM     16  C   UNL     1       3.683   3.191  19.207  0.00  0.00    +0.000 C 
BRANCH  11  17
ATOM     17  C   UNL     1       5.917   4.341  18.623  0.00  0.00    +0.000 C 
BRANCH  17  23
ATOM     18  C   UNL     1       7.355   6.782  17.194  0.00  0.00    +0.000 C 
ATOM     19  N   UNL     1       6.805   5.605  16.577  0.00  0.00    +0.000 N 
ATOM     20  C   UNL     1       6.809   5.349  15.240  0.00  0.00    +0.000 A 
ATOM     21  N   UNL     1       6.288   4.169  15.014  0.00  0.00    +0.000 NA
ATOM     22  N   UNL     1       5.905   3.649  16.225  0.00  0.00    +0.000 NA
ATOM     23  C   UNL     1       6.198   4.524  17.168  0.00  0.00    +0.000 A 
ENDBRANCH  17  23
ENDBRANCH  11  17
ENDBRANCH   1  13
BRANCH   8  24
ATOM     24  C   UNL     1      -0.180   9.790  22.756  0.00  0.00    +0.000 C 
ATOM     25  F   UNL     1      -1.044   8.741  22.870  0.00  0.00    +0.000 F 
ATOM     26  F   UNL     1       0.842   9.520  23.612  0.00  0.00    +0.000 F 
ATOM     27  F   UNL     1      -0.833  10.866  23.273  0.00  0.00    +0.000 F 
ENDBRANCH   8  24
TORSDOF 4
ENDMDL
MODEL 8
REMARK VINA RESULT:      -8.4      1.065      1.664
REMARK  Name = 
REMARK  5 active torsions:
REMARK  status: ('A' for Active; 'I' for Inactive)
REMARK    1  A    between atoms: C_1  and  N_2
REMARK    2  A    between atoms: C_6  and  C_7
REMARK    3  A    between atoms: C_7  and  C_8
REMARK    4  A    between atoms: C_10  and  N_11
REMARK    5  A    between atoms: C_18  and  C_19
REMARK                            x       y       z     vdW  Elec       q    Type
REMARK                         _______ _______ _______ _____ _____    ______ ____
ROOT
ATOM      1  N   UNL     1       1.876   7.821  18.936  0.00  0.00    +0.000 N 
ATOM      2  C   UNL     1       1.307   7.997  20.270  0.00  0.00    +0.000 C 
ATOM      3  C   UNL     1       0.918   9.437  20.320  0.00  0.00    +0.000 A 
ATOM      4  C   UNL     1       1.249  10.038  19.112  0.00  0.00    +0.000 A 
ATOM      5  C   UNL     1       1.014  11.372  18.846  0.00  0.00    +0.000 A 
ATOM      6  C   UNL     1       0.410  12.128  19.847  0.00  0.00    +0.000 A 
ATOM      7  C   UNL     1       0.066  11.537  21.076  0.00  0.00    +0.000 A 
ATOM      8  C   UNL     1       0.319  10.175  21.337  0.00  0.00    +0.000 A 
ATOM      9  C   UNL     1       1.854   9.035  18.234  0.00  0.00    +0.000 C 
ATOM     10  O   UNL     1       2.237   9.324  17.113  0.00  0.00    +0.000 OA
ENDROOT
BRANCH   1  13
ATOM     11  C   UNL     1       4.268   5.422  17.443  0.00  0.00    +0.000 C 
ATOM     12  C   UNL     1       3.748   6.509  18.043  0.00  0.00    +0.000 C 
ATOM     13  C   UNL     1       2.357   6.603  18.469  0.00  0.00    +0.000 C 
ATOM     14  C   UNL     1       1.601   5.493  18.410  0.00  0.00    +0.000 C 
ATOM     15  C   UNL     1       2.088   4.156  17.937  0.00  0.00    +0.000 C 
ATOM     16  C   UNL     1       3.458   4.163  17.246  0.00  0.00    +0.000 C 
BRANCH  11  17
ATOM     17  C   UNL     1       5.702   5.404  16.959  0.00  0.00    +0.000 C 
BRANCH  17  23
ATOM     18  C   UNL     1       7.542   7.941  17.457  0.00  0.00    +0.000 C 
ATOM     19  N   UNL     1       7.555   6.693  18.173  0.00  0.00    +0.000 N 
ATOM     20  C   UNL     1       8.391   6.394  19.205  0.00  0.00    +0.000 A 
ATOM     21  N   UNL     1       8.105   5.205  19.675  0.00  0.00    +0.000 NA
ATOM     22  N   UNL     1       7.079   4.698  18.918  0.00  0.00    +0.000 NA
ATOM     23  C   UNL     1       6.760   5.588  17.997  0.00  0.00    +0.000 A 
ENDBRANCH  17  23
ENDBRANCH  11  17
ENDBRANCH   1  13
BRANCH   8  24
ATOM     24  C   UNL     1      -0.052   9.580  22.668  0.00  0.00    +0.000 C 
ATOM     25  F   UNL     1      -0.843   8.474  22.569  0.00  0.00    +0.000 F 
ATOM     26  F   UNL     1       1.038   9.189  23.382  0.00  0.00    +0.000 F 
ATOM     27  F   UNL     1      -0.732  10.452  23.460  0.00  0.00    +0.000 F 
ENDBRANCH   8  24
TORSDOF 4
ENDMDL
MODEL 9
REMARK VINA RESULT:      -8.4      4.260      8.166
REMARK  Name = 
REMARK  5 active torsions:
REMARK  status: ('A' for Active; 'I' for Inactive)
REMARK    1  A    between atoms: C_1  and  N_2
REMARK    2  A    between atoms: C_6  and  C_7
REMARK    3  A    between atoms: C_7  and  C_8
REMARK    4  A    between atoms: C_10  and  N_11
REMARK    5  A    between atoms: C_18  and  C_19
REMARK                            x       y       z     vdW  Elec       q    Type
REMARK                         _______ _______ _______ _____ _____    ______ ____
ROOT
ATOM      1  N   UNL     1       2.302   7.041  19.370  0.00  0.00    +0.000 N 
ATOM      2  C   UNL     1       3.286   7.224  18.306  0.00  0.00    +0.000 C 
ATOM      3  C   UNL     1       3.655   5.836  17.902  0.00  0.00    +0.000 A 
ATOM      4  C   UNL     1       2.944   4.931  18.681  0.00  0.00    +0.000 A 
ATOM      5  C   UNL     1       3.067   3.563  18.547  0.00  0.00    +0.000 A 
ATOM      6  C   UNL     1       3.944   3.090  17.575  0.00  0.00    +0.000 A 
ATOM      7  C   UNL     1       4.671   3.990  16.774  0.00  0.00    +0.000 A 
ATOM      8  C   UNL     1       4.542   5.385  16.928  0.00  0.00    +0.000 A 
ATOM      9  C   UNL     1       2.092   5.675  19.611  0.00  0.00    +0.000 C 
ATOM     10  O   UNL     1       1.372   5.098  20.408  0.00  0.00    +0.000 OA
ENDROOT
BRANCH   1  13
ATOM     11  C   UNL     1       0.599  10.304  19.766  0.00  0.00    +0.000 C 
ATOM     12  C   UNL     1       1.089   9.171  19.232  0.00  0.00    +0.000 C 
ATOM     13  C   UNL     1       1.683   8.101  20.024  0.00  0.00    +0.000 C 
ATOM     14  C   UNL     1       1.589   8.178  21.363  0.00  0.00    +0.000 C 
ATOM     15  C   UNL     1       0.909   9.290  22.106  0.00  0.00    +0.000 C 
ATOM     16  C   UNL     1       0.544  10.518  21.260  0.00  0.00    +0.000 C 
BRANCH  11  17
ATOM     17  C   UNL     1       0.054  11.412  18.890  0.00  0.00    +0.000 C 
BRANCH  17  23
ATOM     18  C   UNL     1      -1.986   9.936  16.960  0.00  0.00    +0.000 C 
ATOM     19  N   UNL     1      -2.286  10.913  17.973  0.00  0.00    +0.000 N 
ATOM     20  C   UNL     1      -3.533  11.376  18.265  0.00  0.00    +0.000 A 
ATOM     21  N   UNL     1      -3.469  12.209  19.275  0.00  0.00    +0.000 NA
ATOM     22  N   UNL     1      -2.149  12.319  19.636  0.00  0.00    +0.000 NA
ATOM     23  C   UNL     1      -1.432  11.553  18.836  0.00  0.00    +0.000 A 
ENDBRANCH  17  23
ENDBRANCH  11  17
ENDBRANCH   1  13
BRANCH   8  24
ATOM     24  C   UNL     1       5.345   6.317  16.061  0.00  0.00    +0.000 C 
ATOM     25  F   UNL     1       6.191   7.121  16.764  0.00  0.00    +0.000 F 
ATOM     26  F   UNL     1       6.127   5.650  15.169  0.00  0.00    +0.000 F 
ATOM     27  F   UNL     1       4.563   7.154  15.327  0.00  0.00    +0.000 F 
ENDBRANCH   8  24
TORSDOF 4
ENDMDL
