MODEL 1
REMARK VINA RESULT:      -7.8      0.000      0.000
REMARK  Name = 
REMARK  12 active torsions:
REMARK  status: ('A' for Active; 'I' for Inactive)
REMARK    1  A    between atoms: C_1  and  C_2
REMARK    2  A    between atoms: C_2  and  C_3
REMARK    3  A    between atoms: C_2  and  C_4
REMARK    4  A    between atoms: C_4  and  N_5
REMARK    5  A    between atoms: N_5  and  C_6
REMARK    6  A    between atoms: C_6  and  C_7
REMARK    7  A    between atoms: C_11  and  N_12
REMARK    8  A    between atoms: C_17  and  N_18
REMARK    9  A    between atoms: N_18  and  C_19
REMARK   10  A    between atoms: N_18  and  N_20
REMARK   11  A    between atoms: C_22  and  N_23
REMARK   12  A    between atoms: C_27  and  C_28
REMARK                            x       y       z     vdW  Elec       q    Type
REMARK                         _______ _______ _______ _____ _____    ______ ____
ROOT
ATOM      1  N   UNL     1       4.267   4.525  18.833  0.00  0.00    +0.000 N 
ATOM      2  C   UNL     1       5.578   5.178  19.059  0.00  0.00    +0.000 C 
ATOM      3  C   UNL     1       6.170   5.189  17.682  0.00  0.00    +0.000 A 
ATOM      4  C   UNL     1       5.607   4.120  16.977  0.00  0.00    +0.000 A 
ATOM      5  C   UNL     1       5.812   3.913  15.627  0.00  0.00    +0.000 A 
ATOM      6  C   UNL     1       6.586   4.846  14.918  0.00  0.00    +0.000 A 
ATOM      7  C   UNL     1       7.157   5.928  15.640  0.00  0.00    +0.000 A 
ATOM      8  C   UNL     1       6.955   6.125  17.027  0.00  0.00    +0.000 A 
ATOM      9  C   UNL     1       4.491   3.589  17.791  0.00  0.00    +0.000 C 
ATOM     10  O   UNL     1       3.794   2.642  17.464  0.00  0.00    +0.000 OA
ENDROOT
BRANCH   1  15
ATOM     11  C   UNL     1       2.037   7.244  19.771  0.00  0.00    +0.000 A 
ATOM     12  C   UNL     1       2.463   8.173  18.806  0.00  0.00    +0.000 A 
ATOM     13  C   UNL     1       3.086   7.750  17.638  0.00  0.00    +0.000 A 
ATOM     14  C   UNL     1       3.418   6.410  17.488  0.00  0.00    +0.000 A 
ATOM     15  C   UNL     1       3.248   5.530  18.569  0.00  0.00    +0.000 A 
ATOM     16  C   UNL     1       2.417   5.906  19.632  0.00  0.00    +0.000 A 
BRANCH  11  17
ATOM     17  C   UNL     1       1.241   7.698  20.970  0.00  0.00    +0.000 C 
BRANCH  17  18
ATOM     18  N   UNL     1       1.208   9.155  20.985  0.00  0.00    +0.000 NA
ATOM     19  H   UNL     1       1.728   9.477  21.797  0.00  0.00    +0.000 HD
BRANCH  18  20
ATOM     20  C   UNL     1      -0.137   9.706  21.029  0.00  0.00    +0.000 C 
BRANCH  20  22
ATOM     21  C   UNL     1       1.010  11.573  19.801  0.00  0.00    +0.000 C 
ATOM     22  C   UNL     1      -0.287  10.778  19.929  0.00  0.00    +0.000 C 
ATOM     23  C   UNL     1      -0.665  10.185  18.565  0.00  0.00    +0.000 C 
ENDBRANCH  20  22
ENDBRANCH  18  20
ENDBRANCH  17  18
ENDBRANCH  11  17
ENDBRANCH   1  15
BRANCH   8  24
ATOM     24  C   UNL     1       7.501   7.366  17.681  0.00  0.00    +0.000 C 
ATOM     25  F   UNL     1       8.172   7.139  18.844  0.00  0.00    +0.000 F 
ATOM     26  F   UNL     1       8.377   8.029  16.878  0.00  0.00    +0.000 F 
ATOM     27  F   UNL     1       6.524   8.264  17.989  0.00  0.00    +0.000 F 
ENDBRANCH   8  24
BRANCH   6  28
ATOM     28  N   UNL     1       6.739   4.692  13.521  0.00  0.00    +0.000 N 
ATOM     29  C   UNL     1       7.919   5.305  12.898  0.00  0.00    +0.000 C 
BRANCH  28  30
ATOM     30  N   UNL     1       6.115   3.662  12.838  0.00  0.00    +0.000 N 
ATOM     31  C   UNL     1       6.660   2.475  12.391  0.00  0.00    +0.000 C 
ATOM     32  C   UNL     1       5.864   1.817  11.541  0.00  0.00    +0.000 C 
ATOM     33  C   UNL     1       4.626   2.641  11.296  0.00  0.00    +0.000 C 
ATOM     34  C   UNL     1       4.750   3.805  12.304  0.00  0.00    +0.000 C 
BRANCH  32  35
ATOM     35  N   UNL     1       6.061   0.611  10.924  0.00  0.00    +0.000 N 
ATOM     36  H   UNL     1       5.193   0.113  10.733  0.00  0.00    +0.000 HD
ATOM     37  H   UNL     1       6.664   0.666  10.108  0.00  0.00    +0.000 HD
ENDBRANCH  32  35
ENDBRANCH  28  30
ENDBRANCH   6  28
TORSDOF 9
ENDMDL
MODEL 2
REMARK VINA RESULT:      -7.7      0.595      1.134
REMARK  Name = 
REMARK  12 active torsions:
REMARK  status: ('A' for Active; 'I' for Inactive)
REMARK    1  A    between atoms: C_1  and  C_2
REMARK    2  A    between atoms: C_2  and  C_3
REMARK    3  A    between atoms: C_2  and  C_4
REMARK    4  A    between atoms: C_4  and  N_5
REMARK    5  A    between atoms: N_5  and  C_6
REMARK    6  A    between atoms: C_6  and  C_7
REMARK    7  A    between atoms: C_11  and  N_12
REMARK    8  A    between atoms: C_17  and  N_18
REMARK    9  A    between atoms: N_18  and  C_19
REMARK   10  A    between atoms: N_18  and  N_20
REMARK   11  A    between atoms: C_22  and  N_23
REMARK   12  A    between atoms: C_27  and  C_28
REMARK                            x       y       z     vdW  Elec       q    Type
REMARK                         _______ _______ _______ _____ _____    ______ ____
ROOT
ATOM      1  N   UNL     1       4.254   4.452  18.843  0.00  0.00    +0.000 N 
ATOM      2  C   UNL     1       5.561   5.112  19.069  0.00  0.00    +0.000 C 
ATOM      3  C   UNL     1       6.149   5.134  17.690  0.00  0.00    +0.000 A 
ATOM      4  C   UNL     1       5.590   4.067  16.981  0.00  0.00    +0.000 A 
ATOM      5  C   UNL     1       5.792   3.869  15.628  0.00  0.00    +0.000 A 
ATOM      6  C   UNL     1       6.558   4.810  14.922  0.00  0.00    +0.000 A 
ATOM      7  C   UNL     1       7.125   5.891  15.649  0.00  0.00    +0.000 A 
ATOM      8  C   UNL     1       6.926   6.079  17.039  0.00  0.00    +0.000 A 
ATOM      9  C   UNL     1       4.479   3.524  17.794  0.00  0.00    +0.000 C 
ATOM     10  O   UNL     1       3.788   2.575  17.464  0.00  0.00    +0.000 OA
ENDROOT
BRANCH   1  15
ATOM     11  C   UNL     1       1.937   7.081  19.824  0.00  0.00    +0.000 A 
ATOM     12  C   UNL     1       2.385   8.066  18.927  0.00  0.00    +0.000 A 
ATOM     13  C   UNL     1       3.062   7.715  17.766  0.00  0.00    +0.000 A 
ATOM     14  C   UNL     1       3.426   6.390  17.561  0.00  0.00    +0.000 A 
ATOM     15  C   UNL     1       3.228   5.453  18.588  0.00  0.00    +0.000 A 
ATOM     16  C   UNL     1       2.347   5.759  19.633  0.00  0.00    +0.000 A 
BRANCH  11  17
ATOM     17  C   UNL     1       1.083   7.460  21.010  0.00  0.00    +0.000 C 
BRANCH  17  18
ATOM     18  N   UNL     1       1.844   8.359  21.867  0.00  0.00    +0.000 NA
ATOM     19  H   UNL     1       1.815   7.996  22.816  0.00  0.00    +0.000 HD
BRANCH  18  20
ATOM     20  C   UNL     1       1.349   9.726  21.862  0.00  0.00    +0.000 C 
BRANCH  20  22
ATOM     21  C   UNL     1      -0.825  10.132  23.052  0.00  0.00    +0.000 C 
ATOM     22  C   UNL     1      -0.188   9.714  21.729  0.00  0.00    +0.000 C 
ATOM     23  C   UNL     1      -0.699  10.621  20.602  0.00  0.00    +0.000 C 
ENDBRANCH  20  22
ENDBRANCH  18  20
ENDBRANCH  17  18
ENDBRANCH  11  17
ENDBRANCH   1  15
BRANCH   8  24
ATOM     24  C   UNL     1       7.467   7.319  17.698  0.00  0.00    +0.000 C 
ATOM     25  F   UNL     1       6.516   8.228  18.050  0.00  0.00    +0.000 F 
ATOM     26  F   UNL     1       8.148   7.041  18.842  0.00  0.00    +0.000 F 
ATOM     27  F   UNL     1       8.341   7.993  16.899  0.00  0.00    +0.000 F 
ENDBRANCH   8  24
BRANCH   6  28
ATOM     28  N   UNL     1       6.708   4.666  13.524  0.00  0.00    +0.000 N 
ATOM     29  C   UNL     1       7.881   5.292  12.901  0.00  0.00    +0.000 C 
BRANCH  28  30
ATOM     30  N   UNL     1       6.090   3.635  12.838  0.00  0.00    +0.000 N 
ATOM     31  C   UNL     1       6.631   2.436  12.421  0.00  0.00    +0.000 C 
ATOM     32  C   UNL     1       5.850   1.777  11.557  0.00  0.00    +0.000 C 
ATOM     33  C   UNL     1       4.630   2.613  11.267  0.00  0.00    +0.000 C 
ATOM     34  C   UNL     1       4.741   3.788  12.264  0.00  0.00    +0.000 C 
BRANCH  32  35
ATOM     35  N   UNL     1       6.048   0.560  10.961  0.00  0.00    +0.000 N 
ATOM     36  H   UNL     1       7.029   0.358  10.780  0.00  0.00    +0.000 HD
ATOM     37  H   UNL     1       5.575  -0.205  11.434  0.00  0.00    +0.000 HD
ENDBRANCH  32  35
ENDBRANCH  28  30
ENDBRANCH   6  28
TORSDOF 9
ENDMDL
MODEL 3
REMARK VINA RESULT:      -7.6      3.971      9.646
REMARK  Name = 
REMARK  12 active torsions:
REMARK  status: ('A' for Active; 'I' for Inactive)
REMARK    1  A    between atoms: C_1  and  C_2
REMARK    2  A    between atoms: C_2  and  C_3
REMARK    3  A    between atoms: C_2  and  C_4
REMARK    4  A    between atoms: C_4  and  N_5
REMARK    5  A    between atoms: N_5  and  C_6
REMARK    6  A    between atoms: C_6  and  C_7
REMARK    7  A    between atoms: C_11  and  N_12
REMARK    8  A    between atoms: C_17  and  N_18
REMARK    9  A    between atoms: N_18  and  C_19
REMARK   10  A    between atoms: N_18  and  N_20
REMARK   11  A    between atoms: C_22  and  N_23
REMARK   12  A    between atoms: C_27  and  C_28
REMARK                            x       y       z     vdW  Elec       q    Type
REMARK                         _______ _______ _______ _____ _____    ______ ____
ROOT
ATOM      1  N   UNL     1       2.549   7.844  19.272  0.00  0.00    +0.000 N 
ATOM      2  C   UNL     1       2.176   8.606  20.487  0.00  0.00    +0.000 C 
ATOM      3  C   UNL     1       0.942   9.331  20.042  0.00  0.00    +0.000 A 
ATOM      4  C   UNL     1       1.029   9.490  18.655  0.00  0.00    +0.000 A 
ATOM      5  C   UNL     1      -0.005   9.988  17.885  0.00  0.00    +0.000 A 
ATOM      6  C   UNL     1      -1.217  10.306  18.518  0.00  0.00    +0.000 A 
ATOM      7  C   UNL     1      -1.298  10.143  19.927  0.00  0.00    +0.000 A 
ATOM      8  C   UNL     1      -0.229   9.648  20.712  0.00  0.00    +0.000 A 
ATOM      9  C   UNL     1       2.162   8.665  18.182  0.00  0.00    +0.000 C 
ATOM     10  O   UNL     1       2.516   8.590  17.017  0.00  0.00    +0.000 OA
ENDROOT
BRANCH   1  15
ATOM     11  C   UNL     1       2.391   4.298  18.465  0.00  0.00    +0.000 A 
ATOM     12  C   UNL     1       2.280   3.815  19.780  0.00  0.00    +0.000 A 
ATOM     13  C   UNL     1       1.802   4.629  20.799  0.00  0.00    +0.000 A 
ATOM     14  C   UNL     1       1.566   5.974  20.546  0.00  0.00    +0.000 A 
ATOM     15  C   UNL     1       1.943   6.521  19.308  0.00  0.00    +0.000 A 
ATOM     16  C   UNL     1       2.195   5.663  18.230  0.00  0.00    +0.000 A 
BRANCH  11  17
ATOM     17  C   UNL     1       2.779   3.370  17.339  0.00  0.00    +0.000 C 
BRANCH  17  18
ATOM     18  N   UNL     1       4.157   2.942  17.540  0.00  0.00    +0.000 NA
ATOM     19  H   UNL     1       4.239   2.561  18.478  0.00  0.00    +0.000 HD
BRANCH  18  20
ATOM     20  C   UNL     1       5.129   4.010  17.369  0.00  0.00    +0.000 C 
BRANCH  20  22
ATOM     21  C   UNL     1       5.198   6.076  15.942  0.00  0.00    +0.000 C 
ATOM     22  C   UNL     1       5.042   4.557  15.929  0.00  0.00    +0.000 C 
ATOM     23  C   UNL     1       6.087   3.939  14.991  0.00  0.00    +0.000 C 
ENDBRANCH  20  22
ENDBRANCH  18  20
ENDBRANCH  17  18
ENDBRANCH  11  17
ENDBRANCH   1  15
BRANCH   8  24
ATOM     24  C   UNL     1      -0.449   9.397  22.180  0.00  0.00    +0.000 C 
ATOM     25  F   UNL     1      -0.968   8.172  22.469  0.00  0.00    +0.000 F 
ATOM     26  F   UNL     1       0.703   9.485  22.897  0.00  0.00    +0.000 F 
ATOM     27  F   UNL     1      -1.305  10.299  22.738  0.00  0.00    +0.000 F 
ENDBRANCH   8  24
BRANCH   6  28
ATOM     28  N   UNL     1      -2.309  10.739  17.733  0.00  0.00    +0.000 N 
ATOM     29  C   UNL     1      -2.293  10.401  16.304  0.00  0.00    +0.000 C 
BRANCH  28  30
ATOM     30  N   UNL     1      -3.533  11.039  18.307  0.00  0.00    +0.000 N 
ATOM     31  C   UNL     1      -4.766  10.482  18.039  0.00  0.00    +0.000 C 
ATOM     32  C   UNL     1      -5.783  11.171  18.569  0.00  0.00    +0.000 C 
ATOM     33  C   UNL     1      -5.236  12.399  19.252  0.00  0.00    +0.000 C 
ATOM     34  C   UNL     1      -3.705  12.202  19.196  0.00  0.00    +0.000 C 
BRANCH  32  35
ATOM     35  N   UNL     1      -7.126  10.906  18.531  0.00  0.00    +0.000 N 
ATOM     36  H   UNL     1      -7.688  11.623  18.985  0.00  0.00    +0.000 HD
ATOM     37  H   UNL     1      -7.468  10.674  17.603  0.00  0.00    +0.000 HD
ENDBRANCH  32  35
ENDBRANCH  28  30
ENDBRANCH   6  28
TORSDOF 9
ENDMDL
MODEL 4
REMARK VINA RESULT:      -7.6      8.306     12.264
REMARK  Name = 
REMARK  12 active torsions:
REMARK  status: ('A' for Active; 'I' for Inactive)
REMARK    1  A    between atoms: C_1  and  C_2
REMARK    2  A    between atoms: C_2  and  C_3
REMARK    3  A    between atoms: C_2  and  C_4
REMARK    4  A    between atoms: C_4  and  N_5
REMARK    5  A    between atoms: N_5  and  C_6
REMARK    6  A    between atoms: C_6  and  C_7
REMARK    7  A    between atoms: C_11  and  N_12
REMARK    8  A    between atoms: C_17  and  N_18
REMARK    9  A    between atoms: N_18  and  C_19
REMARK   10  A    between atoms: N_18  and  N_20
REMARK   11  A    between atoms: C_22  and  N_23
REMARK   12  A    between atoms: C_27  and  C_28
REMARK                            x       y       z     vdW  Elec       q    Type
REMARK                         _______ _______ _______ _____ _____    ______ ____
ROOT
ATOM      1  N   UNL     1      -0.274  11.483  18.515  0.00  0.00    +0.000 N 
ATOM      2  C   UNL     1       0.484  10.719  19.534  0.00  0.00    +0.000 C 
ATOM      3  C   UNL     1       0.001  11.331  20.814  0.00  0.00    +0.000 A 
ATOM      4  C   UNL     1      -0.399  12.640  20.526  0.00  0.00    +0.000 A 
ATOM      5  C   UNL     1      -1.036  13.455  21.443  0.00  0.00    +0.000 A 
ATOM      6  C   UNL     1      -1.339  12.928  22.708  0.00  0.00    +0.000 A 
ATOM      7  C   UNL     1      -0.929  11.599  22.995  0.00  0.00    +0.000 A 
ATOM      8  C   UNL     1      -0.262  10.775  22.056  0.00  0.00    +0.000 A 
ATOM      9  C   UNL     1      -0.416  12.786  19.054  0.00  0.00    +0.000 C 
ATOM     10  O   UNL     1      -0.713  13.817  18.472  0.00  0.00    +0.000 OA
ENDROOT
BRANCH   1  15
ATOM     11  C   UNL     1      -3.804  11.346  17.639  0.00  0.00    +0.000 A 
ATOM     12  C   UNL     1      -3.677  10.553  16.485  0.00  0.00    +0.000 A 
ATOM     13  C   UNL     1      -2.571   9.732  16.306  0.00  0.00    +0.000 A 
ATOM     14  C   UNL     1      -1.514   9.801  17.203  0.00  0.00    +0.000 A 
ATOM     15  C   UNL     1      -1.516  10.794  18.197  0.00  0.00    +0.000 A 
ATOM     16  C   UNL     1      -2.717  11.443  18.513  0.00  0.00    +0.000 A 
BRANCH  11  17
ATOM     17  C   UNL     1      -5.069  12.129  17.893  0.00  0.00    +0.000 C 
BRANCH  17  18
ATOM     18  N   UNL     1      -5.688  11.634  19.116  0.00  0.00    +0.000 NA
ATOM     19  H   UNL     1      -4.968  11.557  19.829  0.00  0.00    +0.000 HD
BRANCH  18  20
ATOM     20  C   UNL     1      -6.345  10.347  18.957  0.00  0.00    +0.000 C 
BRANCH  20  22
ATOM     21  C   UNL     1      -7.588   8.859  20.553  0.00  0.00    +0.000 C 
ATOM     22  C   UNL     1      -7.535  10.254  19.935  0.00  0.00    +0.000 C 
ATOM     23  C   UNL     1      -7.477  11.309  21.048  0.00  0.00    +0.000 C 
ENDBRANCH  20  22
ENDBRANCH  18  20
ENDBRANCH  17  18
ENDBRANCH  11  17
ENDBRANCH   1  15
BRANCH   8  24
ATOM     24  C   UNL     1       0.026   9.340  22.411  0.00  0.00    +0.000 C 
ATOM     25  F   UNL     1      -0.726   8.432  21.730  0.00  0.00    +0.000 F 
ATOM     26  F   UNL     1       1.320   8.998  22.169  0.00  0.00    +0.000 F 
ATOM     27  F   UNL     1      -0.188   9.078  23.731  0.00  0.00    +0.000 F 
ENDBRANCH   8  24
BRANCH   6  28
ATOM     28  N   UNL     1      -2.061  13.722  23.628  0.00  0.00    +0.000 N 
ATOM     29  C   UNL     1      -1.323  14.771  24.343  0.00  0.00    +0.000 C 
BRANCH  28  30
ATOM     30  N   UNL     1      -3.437  13.850  23.542  0.00  0.00    +0.000 N 
ATOM     31  C   UNL     1      -4.207  14.978  23.739  0.00  0.00    +0.000 C 
ATOM     32  C   UNL     1      -5.514  14.712  23.843  0.00  0.00    +0.000 C 
ATOM     33  C   UNL     1      -5.716  13.220  23.769  0.00  0.00    +0.000 C 
ATOM     34  C   UNL     1      -4.316  12.675  23.408  0.00  0.00    +0.000 C 
BRANCH  32  35
ATOM     35  N   UNL     1      -6.565  15.573  24.014  0.00  0.00    +0.000 N 
ATOM     36  H   UNL     1      -6.734  16.165  23.203  0.00  0.00    +0.000 HD
ATOM     37  H   UNL     1      -7.412  15.119  24.345  0.00  0.00    +0.000 HD
ENDBRANCH  32  35
ENDBRANCH  28  30
ENDBRANCH   6  28
TORSDOF 9
ENDMDL
MODEL 5
REMARK VINA RESULT:      -7.6      4.096      9.643
REMARK  Name = 
REMARK  12 active torsions:
REMARK  status: ('A' for Active; 'I' for Inactive)
REMARK    1  A    between atoms: C_1  and  C_2
REMARK    2  A    between atoms: C_2  and  C_3
REMARK    3  A    between atoms: C_2  and  C_4
REMARK    4  A    between atoms: C_4  and  N_5
REMARK    5  A    between atoms: N_5  and  C_6
REMARK    6  A    between atoms: C_6  and  C_7
REMARK    7  A    between atoms: C_11  and  N_12
REMARK    8  A    between atoms: C_17  and  N_18
REMARK    9  A    between atoms: N_18  and  C_19
REMARK   10  A    between atoms: N_18  and  N_20
REMARK   11  A    between atoms: C_22  and  N_23
REMARK   12  A    between atoms: C_27  and  C_28
REMARK                            x       y       z     vdW  Elec       q    Type
REMARK                         _______ _______ _______ _____ _____    ______ ____
ROOT
ATOM      1  N   UNL     1       2.539   7.798  19.284  0.00  0.00    +0.000 N 
ATOM      2  C   UNL     1       2.177   8.566  20.499  0.00  0.00    +0.000 C 
ATOM      3  C   UNL     1       0.951   9.305  20.054  0.00  0.00    +0.000 A 
ATOM      4  C   UNL     1       1.039   9.463  18.667  0.00  0.00    +0.000 A 
ATOM      5  C   UNL     1       0.011   9.972  17.897  0.00  0.00    +0.000 A 
ATOM      6  C   UNL     1      -1.197  10.305  18.530  0.00  0.00    +0.000 A 
ATOM      7  C   UNL     1      -1.279  10.145  19.940  0.00  0.00    +0.000 A 
ATOM      8  C   UNL     1      -0.215   9.637  20.724  0.00  0.00    +0.000 A 
ATOM      9  C   UNL     1       2.162   8.623  18.194  0.00  0.00    +0.000 C 
ATOM     10  O   UNL     1       2.514   8.543  17.029  0.00  0.00    +0.000 OA
ENDROOT
BRANCH   1  15
ATOM     11  C   UNL     1       2.337   4.255  18.479  0.00  0.00    +0.000 A 
ATOM     12  C   UNL     1       2.222   3.773  19.795  0.00  0.00    +0.000 A 
ATOM     13  C   UNL     1       1.755   4.594  20.813  0.00  0.00    +0.000 A 
ATOM     14  C   UNL     1       1.536   5.941  20.560  0.00  0.00    +0.000 A 
ATOM     15  C   UNL     1       1.918   6.482  19.322  0.00  0.00    +0.000 A 
ATOM     16  C   UNL     1       2.158   5.621  18.244  0.00  0.00    +0.000 A 
BRANCH  11  17
ATOM     17  C   UNL     1       2.713   3.322  17.354  0.00  0.00    +0.000 C 
BRANCH  17  18
ATOM     18  N   UNL     1       4.127   2.991  17.472  0.00  0.00    +0.000 NA
ATOM     19  H   UNL     1       4.322   2.768  18.444  0.00  0.00    +0.000 HD
BRANCH  18  20
ATOM     20  C   UNL     1       5.012   4.058  17.037  0.00  0.00    +0.000 C 
BRANCH  20  22
ATOM     21  C   UNL     1       7.417   4.670  17.426  0.00  0.00    +0.000 C 
ATOM     22  C   UNL     1       6.104   4.285  18.104  0.00  0.00    +0.000 C 
ATOM     23  C   UNL     1       5.722   5.357  19.133  0.00  0.00    +0.000 C 
ENDBRANCH  20  22
ENDBRANCH  18  20
ENDBRANCH  17  18
ENDBRANCH  11  17
ENDBRANCH   1  15
BRANCH   8  24
ATOM     24  C   UNL     1      -0.438   9.390  22.193  0.00  0.00    +0.000 C 
ATOM     25  F   UNL     1      -0.963   8.168  22.483  0.00  0.00    +0.000 F 
ATOM     26  F   UNL     1       0.714   9.473  22.911  0.00  0.00    +0.000 F 
ATOM     27  F   UNL     1      -1.290  10.297  22.749  0.00  0.00    +0.000 F 
ENDBRANCH   8  24
BRANCH   6  28
ATOM     28  N   UNL     1      -2.284  10.751  17.746  0.00  0.00    +0.000 N 
ATOM     29  C   UNL     1      -2.261  10.432  16.312  0.00  0.00    +0.000 C 
BRANCH  28  30
ATOM     30  N   UNL     1      -3.510  11.047  18.318  0.00  0.00    +0.000 N 
ATOM     31  C   UNL     1      -4.740  10.484  18.047  0.00  0.00    +0.000 C 
ATOM     32  C   UNL     1      -5.761  11.169  18.575  0.00  0.00    +0.000 C 
ATOM     33  C   UNL     1      -5.220  12.399  19.259  0.00  0.00    +0.000 C 
ATOM     34  C   UNL     1      -3.688  12.209  19.206  0.00  0.00    +0.000 C 
BRANCH  32  35
ATOM     35  N   UNL     1      -7.102  10.899  18.535  0.00  0.00    +0.000 N 
ATOM     36  H   UNL     1      -7.681  11.725  18.675  0.00  0.00    +0.000 HD
ATOM     37  H   UNL     1      -7.384  10.361  17.720  0.00  0.00    +0.000 HD
ENDBRANCH  32  35
ENDBRANCH  28  30
ENDBRANCH   6  28
TORSDOF 9
ENDMDL
MODEL 6
REMARK VINA RESULT:      -7.4      3.969      9.685
REMARK  Name = 
REMARK  12 active torsions:
REMARK  status: ('A' for Active; 'I' for Inactive)
REMARK    1  A    between atoms: C_1  and  C_2
REMARK    2  A    between atoms: C_2  and  C_3
REMARK    3  A    between atoms: C_2  and  C_4
REMARK    4  A    between atoms: C_4  and  N_5
REMARK    5  A    between atoms: N_5  and  C_6
REMARK    6  A    between atoms: C_6  and  C_7
REMARK    7  A    between atoms: C_11  and  N_12
REMARK    8  A    between atoms: C_17  and  N_18
REMARK    9  A    between atoms: N_18  and  C_19
REMARK   10  A    between atoms: N_18  and  N_20
REMARK   11  A    between atoms: C_22  and  N_23
REMARK   12  A    between atoms: C_27  and  C_28
REMARK                            x       y       z     vdW  Elec       q    Type
REMARK                         _______ _______ _______ _____ _____    ______ ____
ROOT
ATOM      1  N   UNL     1       2.599   7.625  19.316  0.00  0.00    +0.000 N 
ATOM      2  C   UNL     1       2.245   8.370  20.548  0.00  0.00    +0.000 C 
ATOM      3  C   UNL     1       1.054   9.166  20.107  0.00  0.00    +0.000 A 
ATOM      4  C   UNL     1       1.170   9.360  18.727  0.00  0.00    +0.000 A 
ATOM      5  C   UNL     1       0.173   9.929  17.957  0.00  0.00    +0.000 A 
ATOM      6  C   UNL     1      -1.032  10.287  18.582  0.00  0.00    +0.000 A 
ATOM      7  C   UNL     1      -1.142  10.089  19.985  0.00  0.00    +0.000 A 
ATOM      8  C   UNL     1      -0.110   9.521  20.770  0.00  0.00    +0.000 A 
ATOM      9  C   UNL     1       2.269   8.494  18.246  0.00  0.00    +0.000 C 
ATOM     10  O   UNL     1       2.636   8.434  17.083  0.00  0.00    +0.000 OA
ENDROOT
BRANCH   1  15
ATOM     11  C   UNL     1       2.336   4.086  18.505  0.00  0.00    +0.000 A 
ATOM     12  C   UNL     1       2.097   3.616  19.808  0.00  0.00    +0.000 A 
ATOM     13  C   UNL     1       1.579   4.458  20.784  0.00  0.00    +0.000 A 
ATOM     14  C   UNL     1       1.429   5.811  20.510  0.00  0.00    +0.000 A 
ATOM     15  C   UNL     1       1.930   6.332  19.306  0.00  0.00    +0.000 A 
ATOM     16  C   UNL     1       2.226   5.457  18.253  0.00  0.00    +0.000 A 
BRANCH  11  17
ATOM     17  C   UNL     1       2.769   3.135  17.417  0.00  0.00    +0.000 C 
BRANCH  17  18
ATOM     18  N   UNL     1       4.216   2.979  17.478  0.00  0.00    +0.000 NA
ATOM     19  H   UNL     1       4.532   3.298  18.390  0.00  0.00    +0.000 HD
BRANCH  18  20
ATOM     20  C   UNL     1       4.925   3.711  16.441  0.00  0.00    +0.000 C 
BRANCH  20  22
ATOM     21  C   UNL     1       7.196   4.620  17.010  0.00  0.00    +0.000 C 
ATOM     22  C   UNL     1       5.694   4.887  17.079  0.00  0.00    +0.000 C 
ATOM     23  C   UNL     1       5.379   6.236  16.420  0.00  0.00    +0.000 C 
ENDBRANCH  20  22
ENDBRANCH  18  20
ENDBRANCH  17  18
ENDBRANCH  11  17
ENDBRANCH   1  15
BRANCH   8  24
ATOM     24  C   UNL     1      -0.365   9.240  22.227  0.00  0.00    +0.000 C 
ATOM     25  F   UNL     1      -0.944   8.032  22.473  0.00  0.00    +0.000 F 
ATOM     26  F   UNL     1       0.779   9.253  22.963  0.00  0.00    +0.000 F 
ATOM     27  F   UNL     1      -1.186  10.165  22.798  0.00  0.00    +0.000 F 
ENDBRANCH   8  24
BRANCH   6  28
ATOM     28  N   UNL     1      -2.090  10.795  17.795  0.00  0.00    +0.000 N 
ATOM     29  C   UNL     1      -2.311  10.181  16.479  0.00  0.00    +0.000 C 
BRANCH  28  30
ATOM     30  N   UNL     1      -3.147  11.481  18.369  0.00  0.00    +0.000 N 
ATOM     31  C   UNL     1      -3.128  12.343  19.446  0.00  0.00    +0.000 C 
ATOM     32  C   UNL     1      -4.347  12.631  19.913  0.00  0.00    +0.000 C 
ATOM     33  C   UNL     1      -5.368  11.849  19.126  0.00  0.00    +0.000 C 
ATOM     34  C   UNL     1      -4.544  11.204  17.990  0.00  0.00    +0.000 C 
BRANCH  32  35
ATOM     35  N   UNL     1      -4.711  13.460  20.941  0.00  0.00    +0.000 N 
ATOM     36  H   UNL     1      -3.984  13.566  21.646  0.00  0.00    +0.000 HD
ATOM     37  H   UNL     1      -5.083  14.353  20.630  0.00  0.00    +0.000 HD
ENDBRANCH  32  35
ENDBRANCH  28  30
ENDBRANCH   6  28
TORSDOF 9
ENDMDL
MODEL 7
REMARK VINA RESULT:      -7.3      8.134     12.029
REMARK  Name = 
REMARK  12 active torsions:
REMARK  status: ('A' for Active; 'I' for Inactive)
REMARK    1  A    between atoms: C_1  and  C_2
REMARK    2  A    between atoms: C_2  and  C_3
REMARK    3  A    between atoms: C_2  and  C_4
REMARK    4  A    between atoms: C_4  and  N_5
REMARK    5  A    between atoms: N_5  and  C_6
REMARK    6  A    between atoms: C_6  and  C_7
REMARK    7  A    between atoms: C_11  and  N_12
REMARK    8  A    between atoms: C_17  and  N_18
REMARK    9  A    between atoms: N_18  and  C_19
REMARK   10  A    between atoms: N_18  and  N_20
REMARK   11  A    between atoms: C_22  and  N_23
REMARK   12  A    between atoms: C_27  and  C_28
REMARK                            x       y       z     vdW  Elec       q    Type
REMARK                         _______ _______ _______ _____ _____    ______ ____
ROOT
ATOM      1  N   UNL     1      -0.185  11.241  18.383  0.00  0.00    +0.000 N 
ATOM      2  C   UNL     1       0.537  10.456  19.411  0.00  0.00    +0.000 C 
ATOM      3  C   UNL     1       0.099  11.118  20.683  0.00  0.00    +0.000 A 
ATOM      4  C   UNL     1      -0.230  12.441  20.372  0.00  0.00    +0.000 A 
ATOM      5  C   UNL     1      -0.814  13.308  21.277  0.00  0.00    +0.000 A 
ATOM      6  C   UNL     1      -1.136  12.823  22.555  0.00  0.00    +0.000 A 
ATOM      7  C   UNL     1      -0.797  11.478  22.864  0.00  0.00    +0.000 A 
ATOM      8  C   UNL     1      -0.184  10.601  21.937  0.00  0.00    +0.000 A 
ATOM      9  C   UNL     1      -0.251  12.561  18.898  0.00  0.00    +0.000 C 
ATOM     10  O   UNL     1      -0.495  13.595  18.297  0.00  0.00    +0.000 OA
ENDROOT
BRANCH   1  15
ATOM     11  C   UNL     1      -3.792  11.250  17.898  0.00  0.00    +0.000 A 
ATOM     12  C   UNL     1      -3.807  10.681  16.613  0.00  0.00    +0.000 A 
ATOM     13  C   UNL     1      -2.741   9.911  16.165  0.00  0.00    +0.000 A 
ATOM     14  C   UNL     1      -1.590   9.821  16.936  0.00  0.00    +0.000 A 
ATOM     15  C   UNL     1      -1.466  10.616  18.087  0.00  0.00    +0.000 A 
ATOM     16  C   UNL     1      -2.613  11.192  18.647  0.00  0.00    +0.000 A 
BRANCH  11  17
ATOM     17  C   UNL     1      -5.009  11.968  18.430  0.00  0.00    +0.000 C 
BRANCH  17  18
ATOM     18  N   UNL     1      -6.020  12.015  17.382  0.00  0.00    +0.000 NA
ATOM     19  H   UNL     1      -5.784  12.772  16.746  0.00  0.00    +0.000 HD
BRANCH  18  20
ATOM     20  C   UNL     1      -7.370  12.214  17.885  0.00  0.00    +0.000 C 
BRANCH  20  22
ATOM     21  C   UNL     1      -7.753  14.416  19.030  0.00  0.00    +0.000 C 
ATOM     22  C   UNL     1      -7.778  13.689  17.687  0.00  0.00    +0.000 C 
ATOM     23  C   UNL     1      -6.882  14.429  16.685  0.00  0.00    +0.000 C 
ENDBRANCH  20  22
ENDBRANCH  18  20
ENDBRANCH  17  18
ENDBRANCH  11  17
ENDBRANCH   1  15
BRANCH   8  24
ATOM     24  C   UNL     1       0.027   9.160  22.317  0.00  0.00    +0.000 C 
ATOM     25  F   UNL     1      -0.229   8.882  23.626  0.00  0.00    +0.000 F 
ATOM     26  F   UNL     1      -0.764   8.316  21.603  0.00  0.00    +0.000 F 
ATOM     27  F   UNL     1       1.307   8.746  22.097  0.00  0.00    +0.000 F 
ENDBRANCH   8  24
BRANCH   6  28
ATOM     28  N   UNL     1      -1.806  13.672  23.464  0.00  0.00    +0.000 N 
ATOM     29  C   UNL     1      -1.110  14.893  23.889  0.00  0.00    +0.000 C 
BRANCH  28  30
ATOM     30  N   UNL     1      -3.184  13.640  23.595  0.00  0.00    +0.000 N 
ATOM     31  C   UNL     1      -4.074  12.718  23.084  0.00  0.00    +0.000 C 
ATOM     32  C   UNL     1      -5.349  13.114  23.165  0.00  0.00    +0.000 C 
ATOM     33  C   UNL     1      -5.391  14.504  23.749  0.00  0.00    +0.000 C 
ATOM     34  C   UNL     1      -3.930  14.771  24.175  0.00  0.00    +0.000 C 
BRANCH  32  35
ATOM     35  N   UNL     1      -6.489  12.457  22.788  0.00  0.00    +0.000 N 
ATOM     36  H   UNL     1      -6.304  11.568  22.326  0.00  0.00    +0.000 HD
ATOM     37  H   UNL     1      -7.175  12.371  23.533  0.00  0.00    +0.000 HD
ENDBRANCH  32  35
ENDBRANCH  28  30
ENDBRANCH   6  28
TORSDOF 9
ENDMDL
MODEL 8
REMARK VINA RESULT:      -7.3      4.360      9.804
REMARK  Name = 
REMARK  12 active torsions:
REMARK  status: ('A' for Active; 'I' for Inactive)
REMARK    1  A    between atoms: C_1  and  C_2
REMARK    2  A    between atoms: C_2  and  C_3
REMARK    3  A    between atoms: C_2  and  C_4
REMARK    4  A    between atoms: C_4  and  N_5
REMARK    5  A    between atoms: N_5  and  C_6
REMARK    6  A    between atoms: C_6  and  C_7
REMARK    7  A    between atoms: C_11  and  N_12
REMARK    8  A    between atoms: C_17  and  N_18
REMARK    9  A    between atoms: N_18  and  C_19
REMARK   10  A    between atoms: N_18  and  N_20
REMARK   11  A    between atoms: C_22  and  N_23
REMARK   12  A    between atoms: C_27  and  C_28
REMARK                            x       y       z     vdW  Elec       q    Type
REMARK                         _______ _______ _______ _____ _____    ______ ____
ROOT
ATOM      1  N   UNL     1       0.653   8.379  21.158  0.00  0.00    +0.000 N 
ATOM      2  C   UNL     1      -0.589   8.640  20.394  0.00  0.00    +0.000 C 
ATOM      3  C   UNL     1      -0.527  10.122  20.181  0.00  0.00    +0.000 A 
ATOM      4  C   UNL     1       0.228  10.662  21.227  0.00  0.00    +0.000 A 
ATOM      5  C   UNL     1       0.616  11.988  21.274  0.00  0.00    +0.000 A 
ATOM      6  C   UNL     1       0.276  12.822  20.197  0.00  0.00    +0.000 A 
ATOM      7  C   UNL     1      -0.492  12.268  19.139  0.00  0.00    +0.000 A 
ATOM      8  C   UNL     1      -0.900  10.912  19.105  0.00  0.00    +0.000 A 
ATOM      9  C   UNL     1       0.853   9.535  21.954  0.00  0.00    +0.000 C 
ATOM     10  O   UNL     1       1.570   9.664  22.933  0.00  0.00    +0.000 OA
ENDROOT
BRANCH   1  15
ATOM     11  C   UNL     1       2.697   6.086  19.205  0.00  0.00    +0.000 A 
ATOM     12  C   UNL     1       2.536   6.713  17.957  0.00  0.00    +0.000 A 
ATOM     13  C   UNL     1       2.184   8.054  17.875  0.00  0.00    +0.000 A 
ATOM     14  C   UNL     1       1.851   8.745  19.032  0.00  0.00    +0.000 A 
ATOM     15  C   UNL     1       1.739   8.048  20.246  0.00  0.00    +0.000 A 
ATOM     16  C   UNL     1       2.316   6.776  20.359  0.00  0.00    +0.000 A 
BRANCH  11  17
ATOM     17  C   UNL     1       3.212   4.670  19.288  0.00  0.00    +0.000 C 
BRANCH  17  18
ATOM     18  N   UNL     1       4.389   4.549  18.437  0.00  0.00    +0.000 NA
ATOM     19  H   UNL     1       4.499   3.571  18.183  0.00  0.00    +0.000 HD
BRANCH  18  20
ATOM     20  C   UNL     1       5.612   5.022  19.065  0.00  0.00    +0.000 C 
BRANCH  20  22
ATOM     21  C   UNL     1       5.923   5.764  16.686  0.00  0.00    +0.000 C 
ATOM     22  C   UNL     1       6.645   5.375  17.974  0.00  0.00    +0.000 C 
ATOM     23  C   UNL     1       7.596   6.504  18.393  0.00  0.00    +0.000 C 
ENDBRANCH  20  22
ENDBRANCH  18  20
ENDBRANCH  17  18
ENDBRANCH  11  17
ENDBRANCH   1  15
BRANCH   8  24
ATOM     24  C   UNL     1      -1.608  10.387  17.884  0.00  0.00    +0.000 C 
ATOM     25  F   UNL     1      -2.762   9.716  18.151  0.00  0.00    +0.000 F 
ATOM     26  F   UNL     1      -1.954  11.380  17.022  0.00  0.00    +0.000 F 
ATOM     27  F   UNL     1      -0.836   9.523  17.168  0.00  0.00    +0.000 F 
ENDBRANCH   8  24
BRANCH   6  28
ATOM     28  N   UNL     1       0.733  14.159  20.192  0.00  0.00    +0.000 N 
ATOM     29  C   UNL     1       0.579  14.932  21.432  0.00  0.00    +0.000 C 
BRANCH  28  30
ATOM     30  N   UNL     1       1.681  14.592  19.280  0.00  0.00    +0.000 N 
ATOM     31  C   UNL     1       2.873  13.991  18.931  0.00  0.00    +0.000 C 
ATOM     32  C   UNL     1       3.678  14.790  18.223  0.00  0.00    +0.000 C 
ATOM     33  C   UNL     1       3.027  16.143  18.087  0.00  0.00    +0.000 C 
ATOM     34  C   UNL     1       1.613  15.933  18.674  0.00  0.00    +0.000 C 
BRANCH  32  35
ATOM     35  N   UNL     1       4.912  14.529  17.690  0.00  0.00    +0.000 N 
ATOM     36  H   UNL     1       5.653  15.095  18.099  0.00  0.00    +0.000 HD
ATOM     37  H   UNL     1       5.145  13.539  17.670  0.00  0.00    +0.000 HD
ENDBRANCH  32  35
ENDBRANCH  28  30
ENDBRANCH   6  28
TORSDOF 9
ENDMDL
MODEL 9
REMARK VINA RESULT:      -7.3      8.465     12.644
REMARK  Name = 
REMARK  12 active torsions:
REMARK  status: ('A' for Active; 'I' for Inactive)
REMARK    1  A    between atoms: C_1  and  C_2
REMARK    2  A    between atoms: C_2  and  C_3
REMARK    3  A    between atoms: C_2  and  C_4
REMARK    4  A    between atoms: C_4  and  N_5
REMARK    5  A    between atoms: N_5  and  C_6
REMARK    6  A    between atoms: C_6  and  C_7
REMARK    7  A    between atoms: C_11  and  N_12
REMARK    8  A    between atoms: C_17  and  N_18
REMARK    9  A    between atoms: N_18  and  C_19
REMARK   10  A    between atoms: N_18  and  N_20
REMARK   11  A    between atoms: C_22  and  N_23
REMARK   12  A    between atoms: C_27  and  C_28
REMARK                            x       y       z     vdW  Elec       q    Type
REMARK                         _______ _______ _______ _____ _____    ______ ____
ROOT
ATOM      1  N   UNL     1      -0.351  11.799  18.847  0.00  0.00    +0.000 N 
ATOM      2  C   UNL     1       0.403  11.090  19.908  0.00  0.00    +0.000 C 
ATOM      3  C   UNL     1      -0.287  11.554  21.155  0.00  0.00    +0.000 A 
ATOM      4  C   UNL     1      -0.840  12.810  20.882  0.00  0.00    +0.000 A 
ATOM      5  C   UNL     1      -1.675  13.476  21.760  0.00  0.00    +0.000 A 
ATOM      6  C   UNL     1      -2.024  12.840  22.962  0.00  0.00    +0.000 A 
ATOM      7  C   UNL     1      -1.458  11.566  23.233  0.00  0.00    +0.000 A 
ATOM      8  C   UNL     1      -0.590  10.897  22.336  0.00  0.00    +0.000 A 
ATOM      9  C   UNL     1      -0.732  13.037  19.424  0.00  0.00    +0.000 C 
ATOM     10  O   UNL     1      -1.113  14.049  18.858  0.00  0.00    +0.000 OA
ENDROOT
BRANCH   1  15
ATOM     11  C   UNL     1      -3.571  11.230  17.249  0.00  0.00    +0.000 A 
ATOM     12  C   UNL     1      -3.135  10.308  16.281  0.00  0.00    +0.000 A 
ATOM     13  C   UNL     1      -1.971   9.575  16.471  0.00  0.00    +0.000 A 
ATOM     14  C   UNL     1      -1.155   9.856  17.558  0.00  0.00    +0.000 A 
ATOM     15  C   UNL     1      -1.444  10.965  18.370  0.00  0.00    +0.000 A 
ATOM     16  C   UNL     1      -2.721  11.538  18.315  0.00  0.00    +0.000 A 
BRANCH  11  17
ATOM     17  C   UNL     1      -4.904  11.921  17.100  0.00  0.00    +0.000 C 
BRANCH  17  18
ATOM     18  N   UNL     1      -5.238  12.570  18.361  0.00  0.00    +0.000 NA
ATOM     19  H   UNL     1      -4.548  12.294  19.054  0.00  0.00    +0.000 HD
BRANCH  18  20
ATOM     20  C   UNL     1      -6.567  12.242  18.851  0.00  0.00    +0.000 C 
BRANCH  20  22
ATOM     21  C   UNL     1      -7.500  11.442  21.042  0.00  0.00    +0.000 C 
ATOM     22  C   UNL     1      -6.632  12.504  20.370  0.00  0.00    +0.000 C 
ATOM     23  C   UNL     1      -5.248  12.532  21.032  0.00  0.00    +0.000 C 
ENDBRANCH  20  22
ENDBRANCH  18  20
ENDBRANCH  17  18
ENDBRANCH  11  17
ENDBRANCH   1  15
BRANCH   8  24
ATOM     24  C   UNL     1      -0.136   9.498  22.658  0.00  0.00    +0.000 C 
ATOM     25  F   UNL     1       1.156   9.235  22.318  0.00  0.00    +0.000 F 
ATOM     26  F   UNL     1      -0.230   9.217  23.985  0.00  0.00    +0.000 F 
ATOM     27  F   UNL     1      -0.883   8.551  22.023  0.00  0.00    +0.000 F 
ENDBRANCH   8  24
BRANCH   6  28
ATOM     28  N   UNL     1      -2.940  13.472  23.833  0.00  0.00    +0.000 N 
ATOM     29  C   UNL     1      -3.889  12.615  24.554  0.00  0.00    +0.000 C 
BRANCH  28  30
ATOM     30  N   UNL     1      -2.687  14.729  24.354  0.00  0.00    +0.000 N 
ATOM     31  C   UNL     1      -1.654  15.124  25.180  0.00  0.00    +0.000 C 
ATOM     32  C   UNL     1      -1.842  16.335  25.716  0.00  0.00    +0.000 C 
ATOM     33  C   UNL     1      -3.185  16.860  25.278  0.00  0.00    +0.000 C 
ATOM     34  C   UNL     1      -3.664  15.826  24.234  0.00  0.00    +0.000 C 
BRANCH  32  35
ATOM     35  N   UNL     1      -1.027  17.051  26.551  0.00  0.00    +0.000 N 
ATOM     36  H   UNL     1      -0.394  16.465  27.093  0.00  0.00    +0.000 HD
ATOM     37  H   UNL     1      -0.545  17.818  26.090  0.00  0.00    +0.000 HD
ENDBRANCH  32  35
ENDBRANCH  28  30
ENDBRANCH   6  28
TORSDOF 9
ENDMDL
