MODEL 1
REMARK VINA RESULT:      -8.5      0.000      0.000
REMARK  Name = 
REMARK  5 active torsions:
REMARK  status: ('A' for Active; 'I' for Inactive)
REMARK    1  A    between atoms: C_1  and  C_2
REMARK    2  A    between atoms: C_5  and  C_6
REMARK    3  A    between atoms: N_8  and  C_9
REMARK    4  A    between atoms: C_20  and  N_21
REMARK    5  A    between atoms: C_22  and  C_24
REMARK                            x       y       z     vdW  Elec       q    Type
REMARK                         _______ _______ _______ _____ _____    ______ ____
ROOT
ATOM      1  C   UNL     1       3.747   3.075  18.942  0.00  0.00    +0.000 C 
ATOM      2  C   UNL     1       3.238   4.484  19.082  0.00  0.00    +0.000 A 
ATOM      3  C   UNL     1       2.487   4.791  20.235  0.00  0.00    +0.000 A 
ATOM      4  C   UNL     1       1.987   6.073  20.450  0.00  0.00    +0.000 A 
ATOM      5  C   UNL     1       2.209   7.074  19.506  0.00  0.00    +0.000 A 
ATOM      6  C   UNL     1       2.913   6.764  18.339  0.00  0.00    +0.000 A 
ATOM      7  C   UNL     1       3.471   5.495  18.125  0.00  0.00    +0.000 A 
ENDROOT
BRANCH   5   8
ATOM      8  C   UNL     1       1.641   8.429  19.755  0.00  0.00    +0.000 C 
ATOM      9  O   UNL     1       1.466   8.761  20.922  0.00  0.00    +0.000 OA
ATOM     10  N   UNL     1       1.348   9.193  18.631  0.00  0.00    +0.000 N 
ATOM     11  H   UNL     1       1.535   8.779  17.728  0.00  0.00    +0.000 HD
BRANCH  10  12
ATOM     12  C   UNL     1       0.755  10.484  18.605  0.00  0.00    +0.000 A 
ATOM     13  C   UNL     1       1.507  11.622  18.910  0.00  0.00    +0.000 A 
ATOM     14  C   UNL     1       0.919  12.883  18.914  0.00  0.00    +0.000 A 
ATOM     15  C   UNL     1      -0.433  13.013  18.614  0.00  0.00    +0.000 A 
ATOM     16  C   UNL     1      -1.215  11.918  18.294  0.00  0.00    +0.000 A 
ATOM     17  N   UNL     1      -2.512  12.153  18.028  0.00  0.00    +0.000 NA
ATOM     18  C   UNL     1      -3.305  11.107  17.723  0.00  0.00    +0.000 A 
ATOM     19  C   UNL     1      -2.853   9.808  17.653  0.00  0.00    +0.000 A 
ATOM     20  C   UNL     1      -1.509   9.566  17.926  0.00  0.00    +0.000 A 
ATOM     21  C   UNL     1      -0.631  10.627  18.267  0.00  0.00    +0.000 A 
ENDBRANCH  10  12
ENDBRANCH   5   8
BRANCH   7  22
ATOM     22  N   UNL     1       4.248   5.230  16.965  0.00  0.00    +0.000 N 
ATOM     23  C   UNL     1       5.629   5.369  16.848  0.00  0.00    +0.000 C 
ATOM     24  O   UNL     1       6.377   5.726  17.756  0.00  0.00    +0.000 OA
ATOM     25  H   UNL     1       3.784   4.821  16.161  0.00  0.00    +0.000 HD
BRANCH  23  26
ATOM     26  C   UNL     1       6.166   5.017  15.548  0.00  0.00    +0.000 A 
ATOM     27  C   UNL     1       5.723   4.078  14.633  0.00  0.00    +0.000 A 
ATOM     28  C   UNL     1       6.574   4.168  13.510  0.00  0.00    +0.000 A 
ATOM     29  C   UNL     1       7.496   5.143  13.810  0.00  0.00    +0.000 A 
ATOM     30  O   UNL     1       7.263   5.665  15.045  0.00  0.00    +0.000 OA
ENDBRANCH  23  26
ENDBRANCH   7  22
TORSDOF 4
ENDMDL
MODEL 2
REMARK VINA RESULT:      -8.4      1.278      1.300
REMARK  Name = 
REMARK  5 active torsions:
REMARK  status: ('A' for Active; 'I' for Inactive)
REMARK    1  A    between atoms: C_1  and  C_2
REMARK    2  A    between atoms: C_5  and  C_6
REMARK    3  A    between atoms: N_8  and  C_9
REMARK    4  A    between atoms: C_20  and  N_21
REMARK    5  A    between atoms: C_22  and  C_24
REMARK                            x       y       z     vdW  Elec       q    Type
REMARK                         _______ _______ _______ _____ _____    ______ ____
ROOT
ATOM      1  C   UNL     1       4.030   3.876  19.357  0.00  0.00    +0.000 C 
ATOM      2  C   UNL     1       3.424   5.237  19.148  0.00  0.00    +0.000 A 
ATOM      3  C   UNL     1       2.685   5.789  20.214  0.00  0.00    +0.000 A 
ATOM      4  C   UNL     1       2.099   7.048  20.110  0.00  0.00    +0.000 A 
ATOM      5  C   UNL     1       2.222   7.777  18.928  0.00  0.00    +0.000 A 
ATOM      6  C   UNL     1       2.915   7.216  17.852  0.00  0.00    +0.000 A 
ATOM      7  C   UNL     1       3.557   5.973  17.951  0.00  0.00    +0.000 A 
ENDROOT
BRANCH   5   8
ATOM      8  C   UNL     1       1.564   9.112  18.841  0.00  0.00    +0.000 C 
ATOM      9  O   UNL     1       1.945   9.870  17.957  0.00  0.00    +0.000 OA
ATOM     10  N   UNL     1       0.581   9.380  19.786  0.00  0.00    +0.000 N 
ATOM     11  H   UNL     1       0.383   8.659  20.466  0.00  0.00    +0.000 HD
BRANCH  10  12
ATOM     12  C   UNL     1      -0.147  10.591  19.944  0.00  0.00    +0.000 A 
ATOM     13  C   UNL     1       0.283  11.570  20.843  0.00  0.00    +0.000 A 
ATOM     14  C   UNL     1      -0.448  12.742  21.018  0.00  0.00    +0.000 A 
ATOM     15  C   UNL     1      -1.618  12.940  20.294  0.00  0.00    +0.000 A 
ATOM     16  C   UNL     1      -2.075  12.005  19.382  0.00  0.00    +0.000 A 
ATOM     17  N   UNL     1      -3.221  12.291  18.740  0.00  0.00    +0.000 NA
ATOM     18  C   UNL     1      -3.701  11.396  17.854  0.00  0.00    +0.000 A 
ATOM     19  C   UNL     1      -3.070  10.208  17.558  0.00  0.00    +0.000 A 
ATOM     20  C   UNL     1      -1.882   9.915  18.222  0.00  0.00    +0.000 A 
ATOM     21  C   UNL     1      -1.337  10.813  19.176  0.00  0.00    +0.000 A 
ENDBRANCH  10  12
ENDBRANCH   5   8
BRANCH   7  22
ATOM     22  N   UNL     1       4.319   5.462  16.866  0.00  0.00    +0.000 N 
ATOM     23  C   UNL     1       5.424   6.071  16.276  0.00  0.00    +0.000 C 
ATOM     24  O   UNL     1       5.909   7.141  16.635  0.00  0.00    +0.000 OA
ATOM     25  H   UNL     1       4.107   4.529  16.530  0.00  0.00    +0.000 HD
BRANCH  23  26
ATOM     26  C   UNL     1       6.022   5.319  15.189  0.00  0.00    +0.000 A 
ATOM     27  C   UNL     1       5.500   4.278  14.441  0.00  0.00    +0.000 A 
ATOM     28  C   UNL     1       6.475   3.936  13.480  0.00  0.00    +0.000 A 
ATOM     29  C   UNL     1       7.541   4.775  13.705  0.00  0.00    +0.000 A 
ATOM     30  O   UNL     1       7.281   5.618  14.741  0.00  0.00    +0.000 OA
ENDBRANCH  23  26
ENDBRANCH   7  22
TORSDOF 4
ENDMDL
MODEL 3
REMARK VINA RESULT:      -8.1      3.262      9.001
REMARK  Name = 
REMARK  5 active torsions:
REMARK  status: ('A' for Active; 'I' for Inactive)
REMARK    1  A    between atoms: C_1  and  C_2
REMARK    2  A    between atoms: C_5  and  C_6
REMARK    3  A    between atoms: N_8  and  C_9
REMARK    4  A    between atoms: C_20  and  N_21
REMARK    5  A    between atoms: C_22  and  C_24
REMARK                            x       y       z     vdW  Elec       q    Type
REMARK                         _______ _______ _______ _____ _____    ______ ____
ROOT
ATOM      1  C   UNL     1      -1.196  11.281  22.948  0.00  0.00    +0.000 C 
ATOM      2  C   UNL     1      -0.361  10.434  22.025  0.00  0.00    +0.000 A 
ATOM      3  C   UNL     1      -0.180   9.081  22.374  0.00  0.00    +0.000 A 
ATOM      4  C   UNL     1       0.570   8.223  21.572  0.00  0.00    +0.000 A 
ATOM      5  C   UNL     1       1.173   8.706  20.412  0.00  0.00    +0.000 A 
ATOM      6  C   UNL     1       1.035  10.058  20.085  0.00  0.00    +0.000 A 
ATOM      7  C   UNL     1       0.242  10.928  20.849  0.00  0.00    +0.000 A 
ENDROOT
BRANCH   5   8
ATOM      8  C   UNL     1       1.987   7.769  19.587  0.00  0.00    +0.000 C 
ATOM      9  O   UNL     1       2.164   8.062  18.410  0.00  0.00    +0.000 OA
ATOM     10  N   UNL     1       2.463   6.633  20.231  0.00  0.00    +0.000 N 
ATOM     11  H   UNL     1       2.225   6.519  21.206  0.00  0.00    +0.000 HD
BRANCH  10  12
ATOM     12  C   UNL     1       3.211   5.571  19.652  0.00  0.00    +0.000 A 
ATOM     13  C   UNL     1       4.567   5.732  19.355  0.00  0.00    +0.000 A 
ATOM     14  C   UNL     1       5.291   4.703  18.760  0.00  0.00    +0.000 A 
ATOM     15  C   UNL     1       4.658   3.502  18.456  0.00  0.00    +0.000 A 
ATOM     16  C   UNL     1       3.321   3.292  18.743  0.00  0.00    +0.000 A 
ATOM     17  N   UNL     1       2.805   2.098  18.400  0.00  0.00    +0.000 NA
ATOM     18  C   UNL     1       1.504   1.865  18.656  0.00  0.00    +0.000 A 
ATOM     19  C   UNL     1       0.673   2.779  19.266  0.00  0.00    +0.000 A 
ATOM     20  C   UNL     1       1.210   4.014  19.622  0.00  0.00    +0.000 A 
ATOM     21  C   UNL     1       2.571   4.321  19.365  0.00  0.00    +0.000 A 
ENDBRANCH  10  12
ENDBRANCH   5   8
BRANCH   7  22
ATOM     22  N   UNL     1       0.058  12.279  20.450  0.00  0.00    +0.000 N 
ATOM     23  C   UNL     1       0.928  13.338  20.699  0.00  0.00    +0.000 C 
ATOM     24  O   UNL     1       2.001  13.239  21.290  0.00  0.00    +0.000 OA
ATOM     25  H   UNL     1      -0.733  12.499  19.856  0.00  0.00    +0.000 HD
BRANCH  23  26
ATOM     26  C   UNL     1       0.497  14.615  20.165  0.00  0.00    +0.000 A 
ATOM     27  C   UNL     1       0.435  15.855  20.778  0.00  0.00    +0.000 A 
ATOM     28  C   UNL     1      -0.010  16.772  19.801  0.00  0.00    +0.000 A 
ATOM     29  C   UNL     1      -0.211  16.039  18.655  0.00  0.00    +0.000 A 
ATOM     30  O   UNL     1       0.090  14.728  18.862  0.00  0.00    +0.000 OA
ENDBRANCH  23  26
ENDBRANCH   7  22
TORSDOF 4
ENDMDL
MODEL 4
REMARK VINA RESULT:      -8.1      2.920      8.922
REMARK  Name = 
REMARK  5 active torsions:
REMARK  status: ('A' for Active; 'I' for Inactive)
REMARK    1  A    between atoms: C_1  and  C_2
REMARK    2  A    between atoms: C_5  and  C_6
REMARK    3  A    between atoms: N_8  and  C_9
REMARK    4  A    between atoms: C_20  and  N_21
REMARK    5  A    between atoms: C_22  and  C_24
REMARK                            x       y       z     vdW  Elec       q    Type
REMARK                         _______ _______ _______ _____ _____    ______ ____
ROOT
ATOM      1  C   UNL     1      -0.556  12.020  21.996  0.00  0.00    +0.000 C 
ATOM      2  C   UNL     1       0.140  11.146  20.988  0.00  0.00    +0.000 A 
ATOM      3  C   UNL     1       0.338   9.793  21.330  0.00  0.00    +0.000 A 
ATOM      4  C   UNL     1       0.964   8.911  20.452  0.00  0.00    +0.000 A 
ATOM      5  C   UNL     1       1.426   9.369  19.219  0.00  0.00    +0.000 A 
ATOM      6  C   UNL     1       1.274  10.719  18.894  0.00  0.00    +0.000 A 
ATOM      7  C   UNL     1       0.600  11.614  19.739  0.00  0.00    +0.000 A 
ENDROOT
BRANCH   5   8
ATOM      8  C   UNL     1       2.112   8.405  18.311  0.00  0.00    +0.000 C 
ATOM      9  O   UNL     1       2.274   8.747  17.145  0.00  0.00    +0.000 OA
ATOM     10  N   UNL     1       2.496   7.193  18.872  0.00  0.00    +0.000 N 
ATOM     11  H   UNL     1       2.283   7.047  19.849  0.00  0.00    +0.000 HD
BRANCH  10  12
ATOM     12  C   UNL     1       3.112   6.099  18.205  0.00  0.00    +0.000 A 
ATOM     13  C   UNL     1       4.210   6.301  17.366  0.00  0.00    +0.000 A 
ATOM     14  C   UNL     1       4.794   5.234  16.690  0.00  0.00    +0.000 A 
ATOM     15  C   UNL     1       4.278   3.952  16.850  0.00  0.00    +0.000 A 
ATOM     16  C   UNL     1       3.200   3.701  17.680  0.00  0.00    +0.000 A 
ATOM     17  N   UNL     1       2.774   2.428  17.756  0.00  0.00    +0.000 NA
ATOM     18  C   UNL     1       1.720   2.150  18.548  0.00  0.00    +0.000 A 
ATOM     19  C   UNL     1       1.062   3.100  19.297  0.00  0.00    +0.000 A 
ATOM     20  C   UNL     1       1.506   4.418  19.218  0.00  0.00    +0.000 A 
ATOM     21  C   UNL     1       2.603   4.772  18.391  0.00  0.00    +0.000 A 
ENDBRANCH  10  12
ENDBRANCH   5   8
BRANCH   7  22
ATOM     22  N   UNL     1       0.393  12.964  19.348  0.00  0.00    +0.000 N 
ATOM     23  C   UNL     1       1.255  14.032  19.585  0.00  0.00    +0.000 C 
ATOM     24  O   UNL     1       2.340  13.944  20.156  0.00  0.00    +0.000 OA
ATOM     25  H   UNL     1      -0.411  13.176  18.768  0.00  0.00    +0.000 HD
BRANCH  23  26
ATOM     26  C   UNL     1       0.800  15.306  19.063  0.00  0.00    +0.000 A 
ATOM     27  C   UNL     1      -0.449  15.897  19.138  0.00  0.00    +0.000 A 
ATOM     28  C   UNL     1      -0.343  17.156  18.507  0.00  0.00    +0.000 A 
ATOM     29  C   UNL     1       0.956  17.254  18.070  0.00  0.00    +0.000 A 
ATOM     30  O   UNL     1       1.661  16.137  18.397  0.00  0.00    +0.000 OA
ENDBRANCH  23  26
ENDBRANCH   7  22
TORSDOF 4
ENDMDL
MODEL 5
REMARK VINA RESULT:      -8.0      2.095      2.415
REMARK  Name = 
REMARK  5 active torsions:
REMARK  status: ('A' for Active; 'I' for Inactive)
REMARK    1  A    between atoms: C_1  and  C_2
REMARK    2  A    between atoms: C_5  and  C_6
REMARK    3  A    between atoms: N_8  and  C_9
REMARK    4  A    between atoms: C_20  and  N_21
REMARK    5  A    between atoms: C_22  and  C_24
REMARK                            x       y       z     vdW  Elec       q    Type
REMARK                         _______ _______ _______ _____ _____    ______ ____
ROOT
ATOM      1  C   UNL     1       4.495   3.648  18.580  0.00  0.00    +0.000 C 
ATOM      2  C   UNL     1       3.865   5.010  18.464  0.00  0.00    +0.000 A 
ATOM      3  C   UNL     1       3.141   5.486  19.575  0.00  0.00    +0.000 A 
ATOM      4  C   UNL     1       2.534   6.740  19.558  0.00  0.00    +0.000 A 
ATOM      5  C   UNL     1       2.621   7.538  18.418  0.00  0.00    +0.000 A 
ATOM      6  C   UNL     1       3.298   7.052  17.297  0.00  0.00    +0.000 A 
ATOM      7  C   UNL     1       3.961   5.815  17.310  0.00  0.00    +0.000 A 
ENDROOT
BRANCH   5   8
ATOM      8  C   UNL     1       1.942   8.865  18.423  0.00  0.00    +0.000 C 
ATOM      9  O   UNL     1       2.354   9.712  17.638  0.00  0.00    +0.000 OA
ATOM     10  N   UNL     1       0.904   9.026  19.333  0.00  0.00    +0.000 N 
ATOM     11  H   UNL     1       0.685   8.239  19.928  0.00  0.00    +0.000 HD
BRANCH  10  12
ATOM     12  C   UNL     1       0.144  10.205  19.565  0.00  0.00    +0.000 A 
ATOM     13  C   UNL     1      -0.076  11.126  18.537  0.00  0.00    +0.000 A 
ATOM     14  C   UNL     1      -0.794  12.294  18.773  0.00  0.00    +0.000 A 
ATOM     15  C   UNL     1      -1.297  12.550  20.044  0.00  0.00    +0.000 A 
ATOM     16  C   UNL     1      -1.116  11.661  21.089  0.00  0.00    +0.000 A 
ATOM     17  N   UNL     1      -1.636  12.008  22.280  0.00  0.00    +0.000 NA
ATOM     18  C   UNL     1      -1.469  11.171  23.321  0.00  0.00    +0.000 A 
ATOM     19  C   UNL     1      -0.805   9.967  23.229  0.00  0.00    +0.000 A 
ATOM     20  C   UNL     1      -0.269   9.609  21.995  0.00  0.00    +0.000 A 
ATOM     21  C   UNL     1      -0.402  10.457  20.865  0.00  0.00    +0.000 A 
ENDBRANCH  10  12
ENDBRANCH   5   8
BRANCH   7  22
ATOM     22  N   UNL     1       4.706   5.381  16.181  0.00  0.00    +0.000 N 
ATOM     23  C   UNL     1       6.084   5.492  16.010  0.00  0.00    +0.000 C 
ATOM     24  O   UNL     1       6.857   5.970  16.837  0.00  0.00    +0.000 OA
ATOM     25  H   UNL     1       4.220   4.863  15.457  0.00  0.00    +0.000 HD
BRANCH  23  26
ATOM     26  C   UNL     1       6.586   4.951  14.761  0.00  0.00    +0.000 A 
ATOM     27  C   UNL     1       6.171   3.840  14.048  0.00  0.00    +0.000 A 
ATOM     28  C   UNL     1       6.962   3.785  12.880  0.00  0.00    +0.000 A 
ATOM     29  C   UNL     1       7.824   4.853  12.955  0.00  0.00    +0.000 A 
ATOM     30  O   UNL     1       7.610   5.568  14.093  0.00  0.00    +0.000 OA
ENDBRANCH  23  26
ENDBRANCH   7  22
TORSDOF 4
ENDMDL
MODEL 6
REMARK VINA RESULT:      -7.9      2.794      9.716
REMARK  Name = 
REMARK  5 active torsions:
REMARK  status: ('A' for Active; 'I' for Inactive)
REMARK    1  A    between atoms: C_1  and  C_2
REMARK    2  A    between atoms: C_5  and  C_6
REMARK    3  A    between atoms: N_8  and  C_9
REMARK    4  A    between atoms: C_20  and  N_21
REMARK    5  A    between atoms: C_22  and  C_24
REMARK                            x       y       z     vdW  Elec       q    Type
REMARK                         _______ _______ _______ _____ _____    ______ ____
ROOT
ATOM      1  C   UNL     1       0.344  13.386  18.759  0.00  0.00    +0.000 C 
ATOM      2  C   UNL     1       0.707  11.934  18.920  0.00  0.00    +0.000 A 
ATOM      3  C   UNL     1       1.810  11.456  18.184  0.00  0.00    +0.000 A 
ATOM      4  C   UNL     1       2.221  10.129  18.280  0.00  0.00    +0.000 A 
ATOM      5  C   UNL     1       1.523   9.243  19.100  0.00  0.00    +0.000 A 
ATOM      6  C   UNL     1       0.401   9.700  19.796  0.00  0.00    +0.000 A 
ATOM      7  C   UNL     1       0.000  11.044  19.756  0.00  0.00    +0.000 A 
ENDROOT
BRANCH   5   8
ATOM      8  C   UNL     1       1.974   7.824  19.164  0.00  0.00    +0.000 C 
ATOM      9  O   UNL     1       1.951   7.274  20.260  0.00  0.00    +0.000 OA
ATOM     10  N   UNL     1       2.397   7.254  17.969  0.00  0.00    +0.000 N 
ATOM     11  H   UNL     1       2.372   7.838  17.144  0.00  0.00    +0.000 HD
BRANCH  10  12
ATOM     12  C   UNL     1       2.918   5.945  17.782  0.00  0.00    +0.000 A 
ATOM     13  C   UNL     1       2.091   4.824  17.896  0.00  0.00    +0.000 A 
ATOM     14  C   UNL     1       2.609   3.542  17.743  0.00  0.00    +0.000 A 
ATOM     15  C   UNL     1       3.963   3.372  17.475  0.00  0.00    +0.000 A 
ATOM     16  C   UNL     1       4.818   4.452  17.341  0.00  0.00    +0.000 A 
ATOM     17  N   UNL     1       6.110   4.178  17.091  0.00  0.00    +0.000 NA
ATOM     18  C   UNL     1       6.972   5.206  16.965  0.00  0.00    +0.000 A 
ATOM     19  C   UNL     1       6.596   6.528  17.063  0.00  0.00    +0.000 A 
ATOM     20  C   UNL     1       5.257   6.810  17.320  0.00  0.00    +0.000 A 
ATOM     21  C   UNL     1       4.307   5.767  17.476  0.00  0.00    +0.000 A 
ENDBRANCH  10  12
ENDBRANCH   5   8
BRANCH   7  22
ATOM     22  N   UNL     1      -1.099  11.496  20.534  0.00  0.00    +0.000 N 
ATOM     23  C   UNL     1      -1.113  11.673  21.916  0.00  0.00    +0.000 C 
ATOM     24  O   UNL     1      -0.153  11.477  22.658  0.00  0.00    +0.000 OA
ATOM     25  H   UNL     1      -1.934  11.805  20.049  0.00  0.00    +0.000 HD
BRANCH  23  26
ATOM     26  C   UNL     1      -2.370  12.160  22.452  0.00  0.00    +0.000 A 
ATOM     27  C   UNL     1      -3.370  12.892  21.836  0.00  0.00    +0.000 A 
ATOM     28  C   UNL     1      -4.397  13.064  22.789  0.00  0.00    +0.000 A 
ATOM     29  C   UNL     1      -3.959  12.443  23.935  0.00  0.00    +0.000 A 
ATOM     30  O   UNL     1      -2.729  11.893  23.746  0.00  0.00    +0.000 OA
ENDBRANCH  23  26
ENDBRANCH   7  22
TORSDOF 4
ENDMDL
MODEL 7
REMARK VINA RESULT:      -7.8      2.904      9.074
REMARK  Name = 
REMARK  5 active torsions:
REMARK  status: ('A' for Active; 'I' for Inactive)
REMARK    1  A    between atoms: C_1  and  C_2
REMARK    2  A    between atoms: C_5  and  C_6
REMARK    3  A    between atoms: N_8  and  C_9
REMARK    4  A    between atoms: C_20  and  N_21
REMARK    5  A    between atoms: C_22  and  C_24
REMARK                            x       y       z     vdW  Elec       q    Type
REMARK                         _______ _______ _______ _____ _____    ______ ____
ROOT
ATOM      1  C   UNL     1      -0.945  11.229  22.734  0.00  0.00    +0.000 C 
ATOM      2  C   UNL     1      -0.167  10.577  21.623  0.00  0.00    +0.000 A 
ATOM      3  C   UNL     1       0.061   9.189  21.718  0.00  0.00    +0.000 A 
ATOM      4  C   UNL     1       0.763   8.503  20.729  0.00  0.00    +0.000 A 
ATOM      5  C   UNL     1       1.272   9.195  19.631  0.00  0.00    +0.000 A 
ATOM      6  C   UNL     1       1.089  10.579  19.555  0.00  0.00    +0.000 A 
ATOM      7  C   UNL     1       0.341  11.282  20.511  0.00  0.00    +0.000 A 
ENDROOT
BRANCH   5   8
ATOM      8  C   UNL     1       2.038   8.436  18.602  0.00  0.00    +0.000 C 
ATOM      9  O   UNL     1       2.172   8.959  17.501  0.00  0.00    +0.000 OA
ATOM     10  N   UNL     1       2.520   7.190  18.984  0.00  0.00    +0.000 N 
ATOM     11  H   UNL     1       2.318   6.884  19.925  0.00  0.00    +0.000 HD
BRANCH  10  12
ATOM     12  C   UNL     1       3.227   6.261  18.173  0.00  0.00    +0.000 A 
ATOM     13  C   UNL     1       4.299   6.678  17.378  0.00  0.00    +0.000 A 
ATOM     14  C   UNL     1       4.970   5.774  16.561  0.00  0.00    +0.000 A 
ATOM     15  C   UNL     1       4.571   4.442  16.533  0.00  0.00    +0.000 A 
ATOM     16  C   UNL     1       3.525   3.980  17.312  0.00  0.00    +0.000 A 
ATOM     17  N   UNL     1       3.215   2.676  17.204  0.00  0.00    +0.000 NA
ATOM     18  C   UNL     1       2.194   2.196  17.941  0.00  0.00    +0.000 A 
ATOM     19  C   UNL     1       1.459   2.968  18.813  0.00  0.00    +0.000 A 
ATOM     20  C   UNL     1       1.783   4.318  18.926  0.00  0.00    +0.000 A 
ATOM     21  C   UNL     1       2.839   4.882  18.164  0.00  0.00    +0.000 A 
ENDBRANCH  10  12
ENDBRANCH   5   8
BRANCH   7  22
ATOM     22  N   UNL     1       0.108  12.676  20.366  0.00  0.00    +0.000 N 
ATOM     23  C   UNL     1      -0.545  13.296  19.303  0.00  0.00    +0.000 C 
ATOM     24  O   UNL     1      -1.033  12.708  18.341  0.00  0.00    +0.000 OA
ATOM     25  H   UNL     1       0.357  13.285  21.137  0.00  0.00    +0.000 HD
BRANCH  23  26
ATOM     26  C   UNL     1      -0.656  14.738  19.419  0.00  0.00    +0.000 A 
ATOM     27  C   UNL     1      -1.010  15.513  20.509  0.00  0.00    +0.000 A 
ATOM     28  C   UNL     1      -0.917  16.861  20.100  0.00  0.00    +0.000 A 
ATOM     29  C   UNL     1      -0.529  16.831  18.781  0.00  0.00    +0.000 A 
ATOM     30  O   UNL     1      -0.369  15.549  18.353  0.00  0.00    +0.000 OA
ENDBRANCH  23  26
ENDBRANCH   7  22
TORSDOF 4
ENDMDL
MODEL 8
REMARK VINA RESULT:      -7.8      1.770      1.942
REMARK  Name = 
REMARK  5 active torsions:
REMARK  status: ('A' for Active; 'I' for Inactive)
REMARK    1  A    between atoms: C_1  and  C_2
REMARK    2  A    between atoms: C_5  and  C_6
REMARK    3  A    between atoms: N_8  and  C_9
REMARK    4  A    between atoms: C_20  and  N_21
REMARK    5  A    between atoms: C_22  and  C_24
REMARK                            x       y       z     vdW  Elec       q    Type
REMARK                         _______ _______ _______ _____ _____    ______ ____
ROOT
ATOM      1  C   UNL     1       3.443   2.699  18.931  0.00  0.00    +0.000 C 
ATOM      2  C   UNL     1       3.021   4.127  19.153  0.00  0.00    +0.000 A 
ATOM      3  C   UNL     1       2.263   4.407  20.308  0.00  0.00    +0.000 A 
ATOM      4  C   UNL     1       1.839   5.702  20.596  0.00  0.00    +0.000 A 
ATOM      5  C   UNL     1       2.146   6.745  19.723  0.00  0.00    +0.000 A 
ATOM      6  C   UNL     1       2.858   6.465  18.553  0.00  0.00    +0.000 A 
ATOM      7  C   UNL     1       3.340   5.179  18.268  0.00  0.00    +0.000 A 
ENDROOT
BRANCH   5   8
ATOM      8  C   UNL     1       1.659   8.116  20.048  0.00  0.00    +0.000 C 
ATOM      9  O   UNL     1       2.321   9.061  19.635  0.00  0.00    +0.000 OA
ATOM     10  N   UNL     1       0.498   8.195  20.807  0.00  0.00    +0.000 N 
ATOM     11  H   UNL     1       0.067   7.325  21.087  0.00  0.00    +0.000 HD
BRANCH  10  12
ATOM     12  C   UNL     1      -0.131   9.376  21.287  0.00  0.00    +0.000 A 
ATOM     13  C   UNL     1      -0.128   9.682  22.651  0.00  0.00    +0.000 A 
ATOM     14  C   UNL     1      -0.770  10.823  23.124  0.00  0.00    +0.000 A 
ATOM     15  C   UNL     1      -1.423  11.666  22.232  0.00  0.00    +0.000 A 
ATOM     16  C   UNL     1      -1.442  11.412  20.872  0.00  0.00    +0.000 A 
ATOM     17  N   UNL     1      -2.109  12.286  20.098  0.00  0.00    +0.000 NA
ATOM     18  C   UNL     1      -2.156  12.062  18.771  0.00  0.00    +0.000 A 
ATOM     19  C   UNL     1      -1.543  10.990  18.159  0.00  0.00    +0.000 A 
ATOM     20  C   UNL     1      -0.851  10.087  18.962  0.00  0.00    +0.000 A 
ATOM     21  C   UNL     1      -0.779  10.265  20.368  0.00  0.00    +0.000 A 
ENDBRANCH  10  12
ENDBRANCH   5   8
BRANCH   7  22
ATOM     22  N   UNL     1       4.125   4.939  17.109  0.00  0.00    +0.000 N 
ATOM     23  C   UNL     1       5.470   5.263  16.943  0.00  0.00    +0.000 C 
ATOM     24  O   UNL     1       6.175   5.790  17.801  0.00  0.00    +0.000 OA
ATOM     25  H   UNL     1       3.711   4.409  16.351  0.00  0.00    +0.000 HD
BRANCH  23  26
ATOM     26  C   UNL     1       6.029   4.892  15.657  0.00  0.00    +0.000 A 
ATOM     27  C   UNL     1       5.564   3.988  14.718  0.00  0.00    +0.000 A 
ATOM     28  C   UNL     1       6.456   4.039  13.625  0.00  0.00    +0.000 A 
ATOM     29  C   UNL     1       7.422   4.956  13.965  0.00  0.00    +0.000 A 
ATOM     30  O   UNL     1       7.177   5.480  15.197  0.00  0.00    +0.000 OA
ENDBRANCH  23  26
ENDBRANCH   7  22
TORSDOF 4
ENDMDL
MODEL 9
REMARK VINA RESULT:      -7.8      1.575      1.652
REMARK  Name = 
REMARK  5 active torsions:
REMARK  status: ('A' for Active; 'I' for Inactive)
REMARK    1  A    between atoms: C_1  and  C_2
REMARK    2  A    between atoms: C_5  and  C_6
REMARK    3  A    between atoms: N_8  and  C_9
REMARK    4  A    between atoms: C_20  and  N_21
REMARK    5  A    between atoms: C_22  and  C_24
REMARK                            x       y       z     vdW  Elec       q    Type
REMARK                         _______ _______ _______ _____ _____    ______ ____
ROOT
ATOM      1  C   UNL     1       4.899   4.307  18.895  0.00  0.00    +0.000 C 
ATOM      2  C   UNL     1       4.098   5.564  18.687  0.00  0.00    +0.000 A 
ATOM      3  C   UNL     1       3.264   5.983  19.743  0.00  0.00    +0.000 A 
ATOM      4  C   UNL     1       2.495   7.140  19.640  0.00  0.00    +0.000 A 
ATOM      5  C   UNL     1       2.529   7.895  18.468  0.00  0.00    +0.000 A 
ATOM      6  C   UNL     1       3.319   7.460  17.401  0.00  0.00    +0.000 A 
ATOM      7  C   UNL     1       4.141   6.327  17.501  0.00  0.00    +0.000 A 
ENDROOT
BRANCH   5   8
ATOM      8  C   UNL     1       1.678   9.116  18.381  0.00  0.00    +0.000 C 
ATOM      9  O   UNL     1       2.008   9.976  17.571  0.00  0.00    +0.000 OA
ATOM     10  N   UNL     1       0.589   9.174  19.241  0.00  0.00    +0.000 N 
ATOM     11  H   UNL     1       0.450   8.391  19.866  0.00  0.00    +0.000 HD
BRANCH  10  12
ATOM     12  C   UNL     1      -0.332  10.247  19.385  0.00  0.00    +0.000 A 
ATOM     13  C   UNL     1      -0.257  11.110  20.481  0.00  0.00    +0.000 A 
ATOM     14  C   UNL     1      -1.178  12.142  20.637  0.00  0.00    +0.000 A 
ATOM     15  C   UNL     1      -2.185  12.315  19.694  0.00  0.00    +0.000 A 
ATOM     16  C   UNL     1      -2.291  11.494  18.585  0.00  0.00    +0.000 A 
ATOM     17  N   UNL     1      -3.306  11.742  17.739  0.00  0.00    +0.000 NA
ATOM     18  C   UNL     1      -3.445  10.955  16.655  0.00  0.00    +0.000 A 
ATOM     19  C   UNL     1      -2.592   9.915  16.358  0.00  0.00    +0.000 A 
ATOM     20  C   UNL     1      -1.541   9.660  17.234  0.00  0.00    +0.000 A 
ATOM     21  C   UNL     1      -1.353  10.448  18.399  0.00  0.00    +0.000 A 
ENDBRANCH  10  12
ENDBRANCH   5   8
BRANCH   7  22
ATOM     22  N   UNL     1       4.991   5.951  16.427  0.00  0.00    +0.000 N 
ATOM     23  C   UNL     1       4.916   4.772  15.689  0.00  0.00    +0.000 C 
ATOM     24  O   UNL     1       4.076   3.891  15.859  0.00  0.00    +0.000 OA
ATOM     25  H   UNL     1       5.670   6.628  16.094  0.00  0.00    +0.000 HD
BRANCH  23  26
ATOM     26  C   UNL     1       5.906   4.651  14.636  0.00  0.00    +0.000 A 
ATOM     27  C   UNL     1       5.935   3.803  13.543  0.00  0.00    +0.000 A 
ATOM     28  C   UNL     1       7.095   4.126  12.806  0.00  0.00    +0.000 A 
ATOM     29  C   UNL     1       7.715   5.139  13.498  0.00  0.00    +0.000 A 
ATOM     30  O   UNL     1       7.006   5.466  14.613  0.00  0.00    +0.000 OA
ENDBRANCH  23  26
ENDBRANCH   7  22
TORSDOF 4
ENDMDL
