MODEL 1
REMARK VINA RESULT:     -10.3      0.000      0.000
REMARK  Name = 
REMARK  4 active torsions:
REMARK  status: ('A' for Active; 'I' for Inactive)
REMARK    1  A    between atoms: C_2  and  C_4
REMARK    2  A    between atoms: C_7  and  N_8
REMARK    3  A    between atoms: C_9  and  C_11
REMARK    4  A    between atoms: C_13  and  C_14
REMARK                            x       y       z     vdW  Elec       q    Type
REMARK                         _______ _______ _______ _____ _____    ______ ____
ROOT
ATOM      1  C   UNL     1       2.915   6.202  18.872  0.00  0.00    +0.000 A 
ATOM      2  C   UNL     1       3.765   6.223  17.743  0.00  0.00    +0.000 A 
ATOM      3  C   UNL     1       4.318   5.037  17.260  0.00  0.00    +0.000 A 
ATOM      4  N   UNL     1       3.924   3.852  17.775  0.00  0.00    +0.000 NA
ATOM      5  C   UNL     1       3.005   3.809  18.747  0.00  0.00    +0.000 A 
ATOM      6  C   UNL     1       2.474   2.565  19.049  0.00  0.00    +0.000 A 
ATOM      7  C   UNL     1       1.472   2.409  20.003  0.00  0.00    +0.000 A 
ATOM      8  C   UNL     1       1.050   3.509  20.733  0.00  0.00    +0.000 A 
ATOM      9  C   UNL     1       1.570   4.772  20.448  0.00  0.00    +0.000 A 
ATOM     10  C   UNL     1       2.507   4.958  19.402  0.00  0.00    +0.000 A 
ENDROOT
BRANCH   3  11
ATOM     11  C   UNL     1       5.341   4.930  16.184  0.00  0.00    +0.000 A 
ATOM     12  C   UNL     1       5.179   4.182  15.010  0.00  0.00    +0.000 A 
ATOM     13  C   UNL     1       6.167   4.167  14.017  0.00  0.00    +0.000 A 
ATOM     14  C   UNL     1       7.322   4.901  14.214  0.00  0.00    +0.000 A 
ATOM     15  N   UNL     1       7.546   5.629  15.322  0.00  0.00    +0.000 NA
ATOM     16  C   UNL     1       6.563   5.622  16.266  0.00  0.00    +0.000 A 
ENDBRANCH   3  11
BRANCH   1  18
ATOM     17  N   UNL     1       1.892   7.679  20.599  0.00  0.00    +0.000 N 
ATOM     18  C   UNL     1       2.266   7.498  19.271  0.00  0.00    +0.000 C 
ATOM     19  O   UNL     1       2.147   8.341  18.377  0.00  0.00    +0.000 OA
ATOM     20  H   UNL     1       2.237   7.016  21.279  0.00  0.00    +0.000 HD
BRANCH  17  24
ATOM     21  C   UNL     1      -0.596  10.808  22.199  0.00  0.00    +0.000 A 
ATOM     22  C   UNL     1      -0.392  10.703  20.822  0.00  0.00    +0.000 A 
ATOM     23  C   UNL     1       0.428   9.687  20.286  0.00  0.00    +0.000 A 
ATOM     24  C   UNL     1       1.065   8.743  21.104  0.00  0.00    +0.000 A 
ATOM     25  C   UNL     1       0.836   8.840  22.485  0.00  0.00    +0.000 A 
ATOM     26  C   UNL     1       0.029   9.865  23.026  0.00  0.00    +0.000 A 
BRANCH  21  28
ATOM     27  N   UNL     1      -0.998  13.170  22.819  0.00  0.00    +0.000 N 
ATOM     28  C   UNL     1      -1.437  11.873  22.839  0.00  0.00    +0.000 C 
ATOM     29  O   UNL     1      -2.506  11.602  23.372  0.00  0.00    +0.000 OA
ATOM     30  H   UNL     1      -1.589  13.862  23.266  0.00  0.00    +0.000 HD
ATOM     31  H   UNL     1      -0.139  13.496  22.403  0.00  0.00    +0.000 HD
ENDBRANCH  21  28
ENDBRANCH  17  24
ENDBRANCH   1  18
TORSDOF 4
ENDMDL
MODEL 2
REMARK VINA RESULT:     -10.1      0.534      1.047
REMARK  Name = 
REMARK  4 active torsions:
REMARK  status: ('A' for Active; 'I' for Inactive)
REMARK    1  A    between atoms: C_2  and  C_4
REMARK    2  A    between atoms: C_7  and  N_8
REMARK    3  A    between atoms: C_9  and  C_11
REMARK    4  A    between atoms: C_13  and  C_14
REMARK                            x       y       z     vdW  Elec       q    Type
REMARK                         _______ _______ _______ _____ _____    ______ ____
ROOT
ATOM      1  C   UNL     1       2.901   6.190  18.847  0.00  0.00    +0.000 A 
ATOM      2  C   UNL     1       3.750   6.207  17.717  0.00  0.00    +0.000 A 
ATOM      3  C   UNL     1       4.324   5.022  17.255  0.00  0.00    +0.000 A 
ATOM      4  N   UNL     1       3.950   3.840  17.791  0.00  0.00    +0.000 NA
ATOM      5  C   UNL     1       3.032   3.798  18.764  0.00  0.00    +0.000 A 
ATOM      6  C   UNL     1       2.524   2.550  19.088  0.00  0.00    +0.000 A 
ATOM      7  C   UNL     1       1.525   2.393  20.046  0.00  0.00    +0.000 A 
ATOM      8  C   UNL     1       1.084   3.499  20.757  0.00  0.00    +0.000 A 
ATOM      9  C   UNL     1       1.582   4.765  20.449  0.00  0.00    +0.000 A 
ATOM     10  C   UNL     1       2.515   4.949  19.399  0.00  0.00    +0.000 A 
ENDROOT
BRANCH   3  11
ATOM     11  C   UNL     1       5.348   4.915  16.181  0.00  0.00    +0.000 A 
ATOM     12  C   UNL     1       5.196   4.147  15.018  0.00  0.00    +0.000 A 
ATOM     13  C   UNL     1       6.185   4.132  14.025  0.00  0.00    +0.000 A 
ATOM     14  C   UNL     1       7.328   4.885  14.210  0.00  0.00    +0.000 A 
ATOM     15  N   UNL     1       7.542   5.633  15.307  0.00  0.00    +0.000 NA
ATOM     16  C   UNL     1       6.559   5.626  16.252  0.00  0.00    +0.000 A 
ENDBRANCH   3  11
BRANCH   1  18
ATOM     17  N   UNL     1       1.947   7.724  20.565  0.00  0.00    +0.000 N 
ATOM     18  C   UNL     1       2.229   7.482  19.224  0.00  0.00    +0.000 C 
ATOM     19  O   UNL     1       2.009   8.268  18.298  0.00  0.00    +0.000 OA
ATOM     20  H   UNL     1       2.368   7.114  21.252  0.00  0.00    +0.000 HD
BRANCH  17  24
ATOM     21  C   UNL     1      -0.516  10.951  22.001  0.00  0.00    +0.000 A 
ATOM     22  C   UNL     1      -0.050   9.973  22.882  0.00  0.00    +0.000 A 
ATOM     23  C   UNL     1       0.751   8.906  22.421  0.00  0.00    +0.000 A 
ATOM     24  C   UNL     1       1.116   8.783  21.073  0.00  0.00    +0.000 A 
ATOM     25  C   UNL     1       0.663   9.783  20.198  0.00  0.00    +0.000 A 
ATOM     26  C   UNL     1      -0.152  10.843  20.652  0.00  0.00    +0.000 A 
BRANCH  21  28
ATOM     27  N   UNL     1      -2.489  12.406  21.662  0.00  0.00    +0.000 N 
ATOM     28  C   UNL     1      -1.387  12.101  22.416  0.00  0.00    +0.000 C 
ATOM     29  O   UNL     1      -1.130  12.763  23.413  0.00  0.00    +0.000 OA
ATOM     30  H   UNL     1      -3.051  13.193  21.968  0.00  0.00    +0.000 HD
ATOM     31  H   UNL     1      -2.789  11.921  20.830  0.00  0.00    +0.000 HD
ENDBRANCH  21  28
ENDBRANCH  17  24
ENDBRANCH   1  18
TORSDOF 4
ENDMDL
MODEL 3
REMARK VINA RESULT:     -10.0      2.339      2.567
REMARK  Name = 
REMARK  4 active torsions:
REMARK  status: ('A' for Active; 'I' for Inactive)
REMARK    1  A    between atoms: C_2  and  C_4
REMARK    2  A    between atoms: C_7  and  N_8
REMARK    3  A    between atoms: C_9  and  C_11
REMARK    4  A    between atoms: C_13  and  C_14
REMARK                            x       y       z     vdW  Elec       q    Type
REMARK                         _______ _______ _______ _____ _____    ______ ____
ROOT
ATOM      1  C   UNL     1       2.874   6.258  18.745  0.00  0.00    +0.000 A 
ATOM      2  C   UNL     1       3.739   6.267  17.627  0.00  0.00    +0.000 A 
ATOM      3  C   UNL     1       4.302   5.077  17.167  0.00  0.00    +0.000 A 
ATOM      4  N   UNL     1       3.904   3.897  17.692  0.00  0.00    +0.000 NA
ATOM      5  C   UNL     1       2.973   3.865  18.651  0.00  0.00    +0.000 A 
ATOM      6  C   UNL     1       2.442   2.622  18.963  0.00  0.00    +0.000 A 
ATOM      7  C   UNL     1       1.427   2.475  19.905  0.00  0.00    +0.000 A 
ATOM      8  C   UNL     1       0.992   3.583  20.615  0.00  0.00    +0.000 A 
ATOM      9  C   UNL     1       1.512   4.844  20.321  0.00  0.00    +0.000 A 
ATOM     10  C   UNL     1       2.462   5.019  19.285  0.00  0.00    +0.000 A 
ENDROOT
BRANCH   3  11
ATOM     11  C   UNL     1       5.340   4.960  16.107  0.00  0.00    +0.000 A 
ATOM     12  C   UNL     1       5.195   4.198  14.939  0.00  0.00    +0.000 A 
ATOM     13  C   UNL     1       6.197   4.174  13.960  0.00  0.00    +0.000 A 
ATOM     14  C   UNL     1       7.347   4.911  14.164  0.00  0.00    +0.000 A 
ATOM     15  N   UNL     1       7.555   5.653  15.267  0.00  0.00    +0.000 NA
ATOM     16  C   UNL     1       6.559   5.655  16.197  0.00  0.00    +0.000 A 
ENDBRANCH   3  11
BRANCH   1  18
ATOM     17  N   UNL     1       1.780   8.403  18.104  0.00  0.00    +0.000 N 
ATOM     18  C   UNL     1       2.216   7.557  19.119  0.00  0.00    +0.000 C 
ATOM     19  O   UNL     1       2.071   7.762  20.327  0.00  0.00    +0.000 OA
ATOM     20  H   UNL     1       1.751   8.035  17.163  0.00  0.00    +0.000 HD
BRANCH  17  24
ATOM     21  C   UNL     1       0.576  12.505  18.629  0.00  0.00    +0.000 A 
ATOM     22  C   UNL     1      -0.369  11.478  18.692  0.00  0.00    +0.000 A 
ATOM     23  C   UNL     1       0.013  10.131  18.513  0.00  0.00    +0.000 A 
ATOM     24  C   UNL     1       1.345   9.765  18.271  0.00  0.00    +0.000 A 
ATOM     25  C   UNL     1       2.292  10.799  18.234  0.00  0.00    +0.000 A 
ATOM     26  C   UNL     1       1.912  12.150  18.396  0.00  0.00    +0.000 A 
BRANCH  21  28
ATOM     27  N   UNL     1      -1.047  14.314  19.093  0.00  0.00    +0.000 N 
ATOM     28  C   UNL     1       0.241  13.958  18.790  0.00  0.00    +0.000 C 
ATOM     29  O   UNL     1       1.096  14.825  18.659  0.00  0.00    +0.000 OA
ATOM     30  H   UNL     1      -1.239  15.306  19.189  0.00  0.00    +0.000 HD
ATOM     31  H   UNL     1      -1.820  13.680  19.226  0.00  0.00    +0.000 HD
ENDBRANCH  21  28
ENDBRANCH  17  24
ENDBRANCH   1  18
TORSDOF 4
ENDMDL
MODEL 4
REMARK VINA RESULT:      -9.2      1.022      1.103
REMARK  Name = 
REMARK  4 active torsions:
REMARK  status: ('A' for Active; 'I' for Inactive)
REMARK    1  A    between atoms: C_2  and  C_4
REMARK    2  A    between atoms: C_7  and  N_8
REMARK    3  A    between atoms: C_9  and  C_11
REMARK    4  A    between atoms: C_13  and  C_14
REMARK                            x       y       z     vdW  Elec       q    Type
REMARK                         _______ _______ _______ _____ _____    ______ ____
ROOT
ATOM      1  C   UNL     1       2.943   6.662  18.464  0.00  0.00    +0.000 A 
ATOM      2  C   UNL     1       3.779   6.517  17.334  0.00  0.00    +0.000 A 
ATOM      3  C   UNL     1       4.375   5.287  17.057  0.00  0.00    +0.000 A 
ATOM      4  N   UNL     1       4.035   4.196  17.780  0.00  0.00    +0.000 NA
ATOM      5  C   UNL     1       3.128   4.291  18.759  0.00  0.00    +0.000 A 
ATOM      6  C   UNL     1       2.653   3.100  19.285  0.00  0.00    +0.000 A 
ATOM      7  C   UNL     1       1.667   3.076  20.269  0.00  0.00    +0.000 A 
ATOM      8  C   UNL     1       1.208   4.270  20.802  0.00  0.00    +0.000 A 
ATOM      9  C   UNL     1       1.673   5.482  20.290  0.00  0.00    +0.000 A 
ATOM     10  C   UNL     1       2.591   5.517  19.211  0.00  0.00    +0.000 A 
ENDROOT
BRANCH   3  11
ATOM     11  C   UNL     1       5.391   5.031  16.000  0.00  0.00    +0.000 A 
ATOM     12  C   UNL     1       5.178   4.215  14.881  0.00  0.00    +0.000 A 
ATOM     13  C   UNL     1       6.166   4.060  13.899  0.00  0.00    +0.000 A 
ATOM     14  C   UNL     1       7.369   4.722  14.051  0.00  0.00    +0.000 A 
ATOM     15  N   UNL     1       7.641   5.510  15.106  0.00  0.00    +0.000 NA
ATOM     16  C   UNL     1       6.658   5.640  16.041  0.00  0.00    +0.000 A 
ENDBRANCH   3  11
BRANCH   1  18
ATOM     17  N   UNL     1       1.667   8.276  19.872  0.00  0.00    +0.000 N 
ATOM     18  C   UNL     1       2.245   7.983  18.640  0.00  0.00    +0.000 C 
ATOM     19  O   UNL     1       2.272   8.743  17.669  0.00  0.00    +0.000 OA
ATOM     20  H   UNL     1       1.898   7.678  20.654  0.00  0.00    +0.000 HD
BRANCH  17  24
ATOM     21  C   UNL     1      -0.998  11.531  20.791  0.00  0.00    +0.000 A 
ATOM     22  C   UNL     1      -0.909  11.038  19.488  0.00  0.00    +0.000 A 
ATOM     23  C   UNL     1      -0.033   9.977  19.173  0.00  0.00    +0.000 A 
ATOM     24  C   UNL     1       0.777   9.372  20.145  0.00  0.00    +0.000 A 
ATOM     25  C   UNL     1       0.664   9.857  21.458  0.00  0.00    +0.000 A 
ATOM     26  C   UNL     1      -0.199  10.929  21.773  0.00  0.00    +0.000 A 
BRANCH  21  28
ATOM     27  N   UNL     1      -2.457  13.446  20.220  0.00  0.00    +0.000 N 
ATOM     28  C   UNL     1      -1.891  12.667  21.194  0.00  0.00    +0.000 C 
ATOM     29  O   UNL     1      -2.123  12.904  22.373  0.00  0.00    +0.000 OA
ATOM     30  H   UNL     1      -3.050  14.209  20.529  0.00  0.00    +0.000 HD
ATOM     31  H   UNL     1      -2.334  13.331  19.226  0.00  0.00    +0.000 HD
ENDBRANCH  21  28
ENDBRANCH  17  24
ENDBRANCH   1  18
TORSDOF 4
ENDMDL
MODEL 5
REMARK VINA RESULT:      -9.2      0.636      1.274
REMARK  Name = 
REMARK  4 active torsions:
REMARK  status: ('A' for Active; 'I' for Inactive)
REMARK    1  A    between atoms: C_2  and  C_4
REMARK    2  A    between atoms: C_7  and  N_8
REMARK    3  A    between atoms: C_9  and  C_11
REMARK    4  A    between atoms: C_13  and  C_14
REMARK                            x       y       z     vdW  Elec       q    Type
REMARK                         _______ _______ _______ _____ _____    ______ ____
ROOT
ATOM      1  C   UNL     1       2.798   6.275  19.045  0.00  0.00    +0.000 A 
ATOM      2  C   UNL     1       3.637   6.317  17.909  0.00  0.00    +0.000 A 
ATOM      3  C   UNL     1       4.236   5.148  17.437  0.00  0.00    +0.000 A 
ATOM      4  N   UNL     1       3.896   3.955  17.971  0.00  0.00    +0.000 NA
ATOM      5  C   UNL     1       2.987   3.887  18.951  0.00  0.00    +0.000 A 
ATOM      6  C   UNL     1       2.512   2.626  19.274  0.00  0.00    +0.000 A 
ATOM      7  C   UNL     1       1.524   2.441  20.239  0.00  0.00    +0.000 A 
ATOM      8  C   UNL     1       1.062   3.533  20.958  0.00  0.00    +0.000 A 
ATOM      9  C   UNL     1       1.527   4.812  20.651  0.00  0.00    +0.000 A 
ATOM     10  C   UNL     1       2.446   5.023  19.595  0.00  0.00    +0.000 A 
ENDROOT
BRANCH   3  11
ATOM     11  C   UNL     1       5.254   5.070  16.354  0.00  0.00    +0.000 A 
ATOM     12  C   UNL     1       6.552   5.590  16.451  0.00  0.00    +0.000 A 
ATOM     13  C   UNL     1       7.475   5.435  15.407  0.00  0.00    +0.000 A 
ATOM     14  C   UNL     1       7.083   4.764  14.265  0.00  0.00    +0.000 A 
ATOM     15  N   UNL     1       5.850   4.252  14.103  0.00  0.00    +0.000 NA
ATOM     16  C   UNL     1       4.979   4.418  15.139  0.00  0.00    +0.000 A 
ENDBRANCH   3  11
BRANCH   1  18
ATOM     17  N   UNL     1       1.896   7.818  20.782  0.00  0.00    +0.000 N 
ATOM     18  C   UNL     1       2.098   7.548  19.432  0.00  0.00    +0.000 C 
ATOM     19  O   UNL     1       1.783   8.297  18.503  0.00  0.00    +0.000 OA
ATOM     20  H   UNL     1       2.388   7.246  21.455  0.00  0.00    +0.000 HD
BRANCH  17  24
ATOM     21  C   UNL     1      -0.563  10.996  22.331  0.00  0.00    +0.000 A 
ATOM     22  C   UNL     1      -0.508   9.764  22.985  0.00  0.00    +0.000 A 
ATOM     23  C   UNL     1       0.288   8.712  22.482  0.00  0.00    +0.000 A 
ATOM     24  C   UNL     1       1.056   8.856  21.318  0.00  0.00    +0.000 A 
ATOM     25  C   UNL     1       1.014  10.105  20.679  0.00  0.00    +0.000 A 
ATOM     26  C   UNL     1       0.207  11.155  21.170  0.00  0.00    +0.000 A 
BRANCH  21  28
ATOM     27  N   UNL     1      -0.865  13.411  22.777  0.00  0.00    +0.000 N 
ATOM     28  C   UNL     1      -1.400  12.151  22.796  0.00  0.00    +0.000 C 
ATOM     29  O   UNL     1      -2.549  11.985  23.185  0.00  0.00    +0.000 OA
ATOM     30  H   UNL     1      -1.457  14.167  23.104  0.00  0.00    +0.000 HD
ATOM     31  H   UNL     1       0.066  13.654  22.471  0.00  0.00    +0.000 HD
ENDBRANCH  21  28
ENDBRANCH  17  24
ENDBRANCH   1  18
TORSDOF 4
ENDMDL
MODEL 6
REMARK VINA RESULT:      -9.2      1.423      1.795
REMARK  Name = 
REMARK  4 active torsions:
REMARK  status: ('A' for Active; 'I' for Inactive)
REMARK    1  A    between atoms: C_2  and  C_4
REMARK    2  A    between atoms: C_7  and  N_8
REMARK    3  A    between atoms: C_9  and  C_11
REMARK    4  A    between atoms: C_13  and  C_14
REMARK                            x       y       z     vdW  Elec       q    Type
REMARK                         _______ _______ _______ _____ _____    ______ ____
ROOT
ATOM      1  C   UNL     1       2.980   6.937  18.331  0.00  0.00    +0.000 A 
ATOM      2  C   UNL     1       3.793   6.716  17.197  0.00  0.00    +0.000 A 
ATOM      3  C   UNL     1       4.424   5.485  17.016  0.00  0.00    +0.000 A 
ATOM      4  N   UNL     1       4.138   4.455  17.842  0.00  0.00    +0.000 NA
ATOM      5  C   UNL     1       3.253   4.609  18.834  0.00  0.00    +0.000 A 
ATOM      6  C   UNL     1       2.831   3.456  19.477  0.00  0.00    +0.000 A 
ATOM      7  C   UNL     1       1.871   3.491  20.485  0.00  0.00    +0.000 A 
ATOM      8  C   UNL     1       1.384   4.714  20.921  0.00  0.00    +0.000 A 
ATOM      9  C   UNL     1       1.796   5.888  20.290  0.00  0.00    +0.000 A 
ATOM     10  C   UNL     1       2.685   5.853  19.188  0.00  0.00    +0.000 A 
ENDROOT
BRANCH   3  11
ATOM     11  C   UNL     1       5.422   5.167  15.959  0.00  0.00    +0.000 A 
ATOM     12  C   UNL     1       5.185   4.298  14.884  0.00  0.00    +0.000 A 
ATOM     13  C   UNL     1       6.157   4.084  13.898  0.00  0.00    +0.000 A 
ATOM     14  C   UNL     1       7.369   4.741  14.001  0.00  0.00    +0.000 A 
ATOM     15  N   UNL     1       7.664   5.577  15.012  0.00  0.00    +0.000 NA
ATOM     16  C   UNL     1       6.695   5.764  15.952  0.00  0.00    +0.000 A 
ENDBRANCH   3  11
BRANCH   1  18
ATOM     17  N   UNL     1       1.622   8.596  19.602  0.00  0.00    +0.000 N 
ATOM     18  C   UNL     1       2.242   8.245  18.407  0.00  0.00    +0.000 C 
ATOM     19  O   UNL     1       2.277   8.945  17.391  0.00  0.00    +0.000 OA
ATOM     20  H   UNL     1       1.845   8.054  20.425  0.00  0.00    +0.000 HD
BRANCH  17  24
ATOM     21  C   UNL     1      -1.181  11.836  20.042  0.00  0.00    +0.000 A 
ATOM     22  C   UNL     1      -0.133  11.681  20.951  0.00  0.00    +0.000 A 
ATOM     23  C   UNL     1       0.787  10.618  20.822  0.00  0.00    +0.000 A 
ATOM     24  C   UNL     1       0.694   9.681  19.783  0.00  0.00    +0.000 A 
ATOM     25  C   UNL     1      -0.347   9.858  18.859  0.00  0.00    +0.000 A 
ATOM     26  C   UNL     1      -1.279  10.910  18.994  0.00  0.00    +0.000 A 
BRANCH  21  28
ATOM     27  N   UNL     1      -1.801  14.231  20.009  0.00  0.00    +0.000 N 
ATOM     28  C   UNL     1      -2.206  12.928  20.128  0.00  0.00    +0.000 C 
ATOM     29  O   UNL     1      -3.392  12.673  20.298  0.00  0.00    +0.000 OA
ATOM     30  H   UNL     1      -2.520  14.944  20.078  0.00  0.00    +0.000 HD
ATOM     31  H   UNL     1      -0.854  14.544  19.862  0.00  0.00    +0.000 HD
ENDBRANCH  21  28
ENDBRANCH  17  24
ENDBRANCH   1  18
TORSDOF 4
ENDMDL
MODEL 7
REMARK VINA RESULT:      -9.0      2.340      2.648
REMARK  Name = 
REMARK  4 active torsions:
REMARK  status: ('A' for Active; 'I' for Inactive)
REMARK    1  A    between atoms: C_2  and  C_4
REMARK    2  A    between atoms: C_7  and  N_8
REMARK    3  A    between atoms: C_9  and  C_11
REMARK    4  A    between atoms: C_13  and  C_14
REMARK                            x       y       z     vdW  Elec       q    Type
REMARK                         _______ _______ _______ _____ _____    ______ ____
ROOT
ATOM      1  C   UNL     1       2.865   6.285  18.810  0.00  0.00    +0.000 A 
ATOM      2  C   UNL     1       3.705   6.287  17.673  0.00  0.00    +0.000 A 
ATOM      3  C   UNL     1       4.270   5.096  17.217  0.00  0.00    +0.000 A 
ATOM      4  N   UNL     1       3.896   3.920  17.767  0.00  0.00    +0.000 NA
ATOM      5  C   UNL     1       2.985   3.892  18.747  0.00  0.00    +0.000 A 
ATOM      6  C   UNL     1       2.474   2.649  19.087  0.00  0.00    +0.000 A 
ATOM      7  C   UNL     1       1.481   2.505  20.053  0.00  0.00    +0.000 A 
ATOM      8  C   UNL     1       1.050   3.618  20.757  0.00  0.00    +0.000 A 
ATOM      9  C   UNL     1       1.552   4.879  20.434  0.00  0.00    +0.000 A 
ATOM     10  C   UNL     1       2.477   5.050  19.376  0.00  0.00    +0.000 A 
ENDROOT
BRANCH   3  11
ATOM     11  C   UNL     1       5.286   4.974  16.137  0.00  0.00    +0.000 A 
ATOM     12  C   UNL     1       6.604   5.443  16.234  0.00  0.00    +0.000 A 
ATOM     13  C   UNL     1       7.521   5.250  15.192  0.00  0.00    +0.000 A 
ATOM     14  C   UNL     1       7.105   4.590  14.051  0.00  0.00    +0.000 A 
ATOM     15  N   UNL     1       5.853   4.127  13.889  0.00  0.00    +0.000 NA
ATOM     16  C   UNL     1       4.988   4.331  14.923  0.00  0.00    +0.000 A 
ENDBRANCH   3  11
BRANCH   1  18
ATOM     17  N   UNL     1       1.836   8.461  18.165  0.00  0.00    +0.000 N 
ATOM     18  C   UNL     1       2.201   7.582  19.180  0.00  0.00    +0.000 C 
ATOM     19  O   UNL     1       1.988   7.757  20.383  0.00  0.00    +0.000 OA
ATOM     20  H   UNL     1       1.858   8.118  17.215  0.00  0.00    +0.000 HD
BRANCH  17  24
ATOM     21  C   UNL     1       0.457  12.509  18.679  0.00  0.00    +0.000 A 
ATOM     22  C   UNL     1       1.803  12.250  18.410  0.00  0.00    +0.000 A 
ATOM     23  C   UNL     1       2.268  10.927  18.248  0.00  0.00    +0.000 A 
ATOM     24  C   UNL     1       1.408   9.824  18.344  0.00  0.00    +0.000 A 
ATOM     25  C   UNL     1       0.053  10.093  18.590  0.00  0.00    +0.000 A 
ATOM     26  C   UNL     1      -0.413  11.414  18.769  0.00  0.00    +0.000 A 
BRANCH  21  28
ATOM     27  N   UNL     1      -1.388  14.020  19.339  0.00  0.00    +0.000 N 
ATOM     28  C   UNL     1      -0.103  13.885  18.883  0.00  0.00    +0.000 C 
ATOM     29  O   UNL     1       0.567  14.884  18.653  0.00  0.00    +0.000 OA
ATOM     30  H   UNL     1      -1.736  14.965  19.459  0.00  0.00    +0.000 HD
ATOM     31  H   UNL     1      -2.018  13.264  19.562  0.00  0.00    +0.000 HD
ENDBRANCH  21  28
ENDBRANCH  17  24
ENDBRANCH   1  18
TORSDOF 4
ENDMDL
MODEL 8
REMARK VINA RESULT:      -8.7      2.605      9.901
REMARK  Name = 
REMARK  4 active torsions:
REMARK  status: ('A' for Active; 'I' for Inactive)
REMARK    1  A    between atoms: C_2  and  C_4
REMARK    2  A    between atoms: C_7  and  N_8
REMARK    3  A    between atoms: C_9  and  C_11
REMARK    4  A    between atoms: C_13  and  C_14
REMARK                            x       y       z     vdW  Elec       q    Type
REMARK                         _______ _______ _______ _____ _____    ______ ____
ROOT
ATOM      1  C   UNL     1      -0.228  10.408  20.077  0.00  0.00    +0.000 A 
ATOM      2  C   UNL     1      -0.480  11.124  21.268  0.00  0.00    +0.000 A 
ATOM      3  C   UNL     1      -1.464  12.113  21.296  0.00  0.00    +0.000 A 
ATOM      4  N   UNL     1      -2.278  12.282  20.231  0.00  0.00    +0.000 NA
ATOM      5  C   UNL     1      -2.145  11.506  19.149  0.00  0.00    +0.000 A 
ATOM      6  C   UNL     1      -3.161  11.571  18.208  0.00  0.00    +0.000 A 
ATOM      7  C   UNL     1      -3.157  10.767  17.070  0.00  0.00    +0.000 A 
ATOM      8  C   UNL     1      -2.070   9.942  16.823  0.00  0.00    +0.000 A 
ATOM      9  C   UNL     1      -1.035   9.862  17.755  0.00  0.00    +0.000 A 
ATOM     10  C   UNL     1      -1.085  10.590  18.970  0.00  0.00    +0.000 A 
ENDROOT
BRANCH   3  11
ATOM     11  C   UNL     1      -1.730  13.043  22.427  0.00  0.00    +0.000 A 
ATOM     12  C   UNL     1      -2.947  13.121  23.117  0.00  0.00    +0.000 A 
ATOM     13  C   UNL     1      -3.109  13.988  24.206  0.00  0.00    +0.000 A 
ATOM     14  C   UNL     1      -2.046  14.781  24.592  0.00  0.00    +0.000 A 
ATOM     15  N   UNL     1      -0.856  14.764  23.965  0.00  0.00    +0.000 NA
ATOM     16  C   UNL     1      -0.732  13.908  22.912  0.00  0.00    +0.000 A 
ENDBRANCH   3  11
BRANCH   1  18
ATOM     17  N   UNL     1       1.532   8.993  19.021  0.00  0.00    +0.000 N 
ATOM     18  C   UNL     1       0.767   9.282  20.147  0.00  0.00    +0.000 C 
ATOM     19  O   UNL     1       0.861   8.710  21.237  0.00  0.00    +0.000 OA
ATOM     20  H   UNL     1       1.527   9.663  18.264  0.00  0.00    +0.000 HD
BRANCH  17  24
ATOM     21  C   UNL     1       3.996   5.522  18.369  0.00  0.00    +0.000 A 
ATOM     22  C   UNL     1       3.152   5.589  19.479  0.00  0.00    +0.000 A 
ATOM     23  C   UNL     1       2.346   6.726  19.708  0.00  0.00    +0.000 A 
ATOM     24  C   UNL     1       2.352   7.825  18.837  0.00  0.00    +0.000 A 
ATOM     25  C   UNL     1       3.184   7.739  17.710  0.00  0.00    +0.000 A 
ATOM     26  C   UNL     1       4.004   6.611  17.486  0.00  0.00    +0.000 A 
BRANCH  21  28
ATOM     27  N   UNL     1       5.364   3.599  19.112  0.00  0.00    +0.000 N 
ATOM     28  C   UNL     1       4.893   4.356  18.073  0.00  0.00    +0.000 C 
ATOM     29  O   UNL     1       5.205   4.072  16.923  0.00  0.00    +0.000 OA
ATOM     30  H   UNL     1       5.973   2.823  18.876  0.00  0.00    +0.000 HD
ATOM     31  H   UNL     1       5.163   3.746  20.090  0.00  0.00    +0.000 HD
ENDBRANCH  21  28
ENDBRANCH  17  24
ENDBRANCH   1  18
TORSDOF 4
ENDMDL
MODEL 9
REMARK VINA RESULT:      -8.6      3.181      8.926
REMARK  Name = 
REMARK  4 active torsions:
REMARK  status: ('A' for Active; 'I' for Inactive)
REMARK    1  A    between atoms: C_2  and  C_4
REMARK    2  A    between atoms: C_7  and  N_8
REMARK    3  A    between atoms: C_9  and  C_11
REMARK    4  A    between atoms: C_13  and  C_14
REMARK                            x       y       z     vdW  Elec       q    Type
REMARK                         _______ _______ _______ _____ _____    ______ ____
ROOT
ATOM      1  C   UNL     1       0.703   9.076  18.894  0.00  0.00    +0.000 A 
ATOM      2  C   UNL     1      -0.236   9.684  18.030  0.00  0.00    +0.000 A 
ATOM      3  C   UNL     1      -1.389  10.272  18.550  0.00  0.00    +0.000 A 
ATOM      4  N   UNL     1      -1.536  10.396  19.888  0.00  0.00    +0.000 NA
ATOM      5  C   UNL     1      -0.582   9.957  20.716  0.00  0.00    +0.000 A 
ATOM      6  C   UNL     1      -0.688  10.337  22.045  0.00  0.00    +0.000 A 
ATOM      7  C   UNL     1       0.277   9.985  22.986  0.00  0.00    +0.000 A 
ATOM      8  C   UNL     1       1.328   9.163  22.609  0.00  0.00    +0.000 A 
ATOM      9  C   UNL     1       1.455   8.767  21.277  0.00  0.00    +0.000 A 
ATOM     10  C   UNL     1       0.541   9.213  20.291  0.00  0.00    +0.000 A 
ENDROOT
BRANCH   3  11
ATOM     11  C   UNL     1      -2.526  10.807  17.754  0.00  0.00    +0.000 A 
ATOM     12  C   UNL     1      -2.654  10.666  16.365  0.00  0.00    +0.000 A 
ATOM     13  C   UNL     1      -3.779  11.155  15.687  0.00  0.00    +0.000 A 
ATOM     14  C   UNL     1      -4.769  11.792  16.410  0.00  0.00    +0.000 A 
ATOM     15  N   UNL     1      -4.703  11.971  17.741  0.00  0.00    +0.000 NA
ATOM     16  C   UNL     1      -3.596  11.481  18.369  0.00  0.00    +0.000 A 
ENDBRANCH   3  11
BRANCH   1  18
ATOM     17  N   UNL     1       2.297   7.216  18.434  0.00  0.00    +0.000 N 
ATOM     18  C   UNL     1       1.975   8.561  18.279  0.00  0.00    +0.000 C 
ATOM     19  O   UNL     1       2.633   9.380  17.632  0.00  0.00    +0.000 OA
ATOM     20  H   UNL     1       1.580   6.599  18.790  0.00  0.00    +0.000 HD
BRANCH  17  24
ATOM     21  C   UNL     1       6.101   5.384  17.586  0.00  0.00    +0.000 A 
ATOM     22  C   UNL     1       5.540   6.294  16.688  0.00  0.00    +0.000 A 
ATOM     23  C   UNL     1       4.289   6.895  16.951  0.00  0.00    +0.000 A 
ATOM     24  C   UNL     1       3.563   6.611  18.117  0.00  0.00    +0.000 A 
ATOM     25  C   UNL     1       4.145   5.714  19.026  0.00  0.00    +0.000 A 
ATOM     26  C   UNL     1       5.388   5.099  18.759  0.00  0.00    +0.000 A 
BRANCH  21  28
ATOM     27  N   UNL     1       7.810   4.416  16.081  0.00  0.00    +0.000 N 
ATOM     28  C   UNL     1       7.414   4.693  17.363  0.00  0.00    +0.000 C 
ATOM     29  O   UNL     1       8.133   4.379  18.303  0.00  0.00    +0.000 OA
ATOM     30  H   UNL     1       8.700   3.943  15.968  0.00  0.00    +0.000 HD
ATOM     31  H   UNL     1       7.295   4.637  15.242  0.00  0.00    +0.000 HD
ENDBRANCH  21  28
ENDBRANCH  17  24
ENDBRANCH   1  18
TORSDOF 4
ENDMDL
