MODEL 1
REMARK VINA RESULT:      -8.3      0.000      0.000
REMARK  Name = 
REMARK  3 active torsions:
REMARK  status: ('A' for Active; 'I' for Inactive)
REMARK    1  A    between atoms: C_5  and  C_6
REMARK    2  A    between atoms: N_8  and  C_9
REMARK    3  A    between atoms: C_14  and  C_15
REMARK                            x       y       z     vdW  Elec       q    Type
REMARK                         _______ _______ _______ _____ _____    ______ ____
ROOT
ATOM      1  C   UNL     1       4.837   4.812  17.223  0.00  0.00    +0.000 A 
ATOM      2  C   UNL     1       4.707   4.045  18.393  0.00  0.00    +0.000 A 
ATOM      3  C   UNL     1       3.936   4.468  19.487  0.00  0.00    +0.000 A 
ATOM      4  C   UNL     1       3.282   5.693  19.388  0.00  0.00    +0.000 A 
ATOM      5  N   UNL     1       2.460   6.340  20.270  0.00  0.00    +0.000 NA
ATOM      6  C   UNL     1       2.144   7.456  19.642  0.00  0.00    +0.000 A 
ATOM      7  O   UNL     1       2.713   7.591  18.396  0.00  0.00    +0.000 OA
ATOM      8  C   UNL     1       3.447   6.449  18.241  0.00  0.00    +0.000 A 
ATOM      9  C   UNL     1       4.224   6.075  17.143  0.00  0.00    +0.000 A 
ENDROOT
BRANCH   6  10
ATOM     10  C   UNL     1       1.310   8.558  20.114  0.00  0.00    +0.000 A 
ATOM     11  C   UNL     1       0.987   9.616  19.244  0.00  0.00    +0.000 A 
ATOM     12  C   UNL     1       0.148  10.652  19.661  0.00  0.00    +0.000 A 
ATOM     13  C   UNL     1      -0.363  10.638  20.953  0.00  0.00    +0.000 A 
ATOM     14  F   UNL     1      -1.182  11.620  21.351  0.00  0.00    +0.000 F 
ATOM     15  C   UNL     1      -0.042   9.616  21.837  0.00  0.00    +0.000 A 
ATOM     16  C   UNL     1       0.795   8.580  21.420  0.00  0.00    +0.000 A 
ENDBRANCH   6  10
BRANCH   1  19
ATOM     17  C   UNL     1       6.725   4.962  15.604  0.00  0.00    +0.000 C 
ATOM     18  O   UNL     1       7.274   5.950  16.088  0.00  0.00    +0.000 OA
ATOM     19  N   UNL     1       5.577   4.356  16.100  0.00  0.00    +0.000 N 
ATOM     20  H   UNL     1       5.312   3.455  15.720  0.00  0.00    +0.000 HD
BRANCH  17  25
ATOM     21  O   UNL     1       5.328   2.893  11.770  0.00  0.00    +0.000 OA
ATOM     22  C   UNL     1       6.141   3.505  12.433  0.00  0.00    +0.000 C 
ATOM     23  C   UNL     1       7.159   4.487  11.921  0.00  0.00    +0.000 C 
ATOM     24  C   UNL     1       7.507   5.294  13.172  0.00  0.00    +0.000 C 
ATOM     25  C   UNL     1       7.291   4.322  14.322  0.00  0.00    +0.000 C 
ATOM     26  N   UNL     1       6.329   3.387  13.789  0.00  0.00    +0.000 N 
ATOM     27  H   UNL     1       5.655   2.891  14.366  0.00  0.00    +0.000 HD
ENDBRANCH  17  25
ENDBRANCH   1  19
TORSDOF 3
ENDMDL
MODEL 2
REMARK VINA RESULT:      -8.2      1.483      2.207
REMARK  Name = 
REMARK  3 active torsions:
REMARK  status: ('A' for Active; 'I' for Inactive)
REMARK    1  A    between atoms: C_5  and  C_6
REMARK    2  A    between atoms: N_8  and  C_9
REMARK    3  A    between atoms: C_14  and  C_15
REMARK                            x       y       z     vdW  Elec       q    Type
REMARK                         _______ _______ _______ _____ _____    ______ ____
ROOT
ATOM      1  C   UNL     1       3.737   5.303  18.565  0.00  0.00    +0.000 A 
ATOM      2  C   UNL     1       3.184   4.400  19.490  0.00  0.00    +0.000 A 
ATOM      3  C   UNL     1       2.253   4.796  20.462  0.00  0.00    +0.000 A 
ATOM      4  C   UNL     1       1.873   6.135  20.493  0.00  0.00    +0.000 A 
ATOM      5  N   UNL     1       0.985   6.793  21.300  0.00  0.00    +0.000 NA
ATOM      6  C   UNL     1       1.040   8.040  20.874  0.00  0.00    +0.000 A 
ATOM      7  O   UNL     1       1.918   8.251  19.834  0.00  0.00    +0.000 OA
ATOM      8  C   UNL     1       2.451   7.015  19.595  0.00  0.00    +0.000 A 
ATOM      9  C   UNL     1       3.399   6.666  18.632  0.00  0.00    +0.000 A 
ENDROOT
BRANCH   6  10
ATOM     10  C   UNL     1       0.324   9.206  21.385  0.00  0.00    +0.000 A 
ATOM     11  C   UNL     1      -0.243   9.172  22.672  0.00  0.00    +0.000 A 
ATOM     12  C   UNL     1      -0.887  10.295  23.198  0.00  0.00    +0.000 A 
ATOM     13  C   UNL     1      -0.973  11.453  22.434  0.00  0.00    +0.000 A 
ATOM     14  F   UNL     1      -1.573  12.537  22.942  0.00  0.00    +0.000 F 
ATOM     15  C   UNL     1      -0.439  11.504  21.154  0.00  0.00    +0.000 A 
ATOM     16  C   UNL     1       0.205  10.382  20.628  0.00  0.00    +0.000 A 
ENDBRANCH   6  10
BRANCH   1  19
ATOM     17  C   UNL     1       5.968   4.531  17.766  0.00  0.00    +0.000 C 
ATOM     18  O   UNL     1       6.526   4.494  18.861  0.00  0.00    +0.000 OA
ATOM     19  N   UNL     1       4.641   4.887  17.553  0.00  0.00    +0.000 N 
ATOM     20  H   UNL     1       4.245   4.721  16.635  0.00  0.00    +0.000 HD
BRANCH  17  25
ATOM     21  O   UNL     1       5.315   3.664  13.322  0.00  0.00    +0.000 OA
ATOM     22  C   UNL     1       5.995   4.008  14.267  0.00  0.00    +0.000 C 
ATOM     23  C   UNL     1       7.129   4.996  14.244  0.00  0.00    +0.000 C 
ATOM     24  C   UNL     1       7.241   5.415  15.710  0.00  0.00    +0.000 C 
ATOM     25  C   UNL     1       6.761   4.200  16.489  0.00  0.00    +0.000 C 
ATOM     26  N   UNL     1       5.898   3.524  15.549  0.00  0.00    +0.000 N 
ATOM     27  H   UNL     1       5.104   2.957  15.832  0.00  0.00    +0.000 HD
ENDBRANCH  17  25
ENDBRANCH   1  19
TORSDOF 3
ENDMDL
MODEL 3
REMARK VINA RESULT:      -8.1      3.686      9.358
REMARK  Name = 
REMARK  3 active torsions:
REMARK  status: ('A' for Active; 'I' for Inactive)
REMARK    1  A    between atoms: C_5  and  C_6
REMARK    2  A    between atoms: N_8  and  C_9
REMARK    3  A    between atoms: C_14  and  C_15
REMARK                            x       y       z     vdW  Elec       q    Type
REMARK                         _______ _______ _______ _____ _____    ______ ____
ROOT
ATOM      1  C   UNL     1       2.382   6.311  19.779  0.00  0.00    +0.000 A 
ATOM      2  C   UNL     1       2.002   4.960  19.842  0.00  0.00    +0.000 A 
ATOM      3  C   UNL     1       2.456   4.007  18.918  0.00  0.00    +0.000 A 
ATOM      4  C   UNL     1       3.317   4.435  17.911  0.00  0.00    +0.000 A 
ATOM      5  N   UNL     1       3.926   3.741  16.902  0.00  0.00    +0.000 NA
ATOM      6  C   UNL     1       4.617   4.663  16.260  0.00  0.00    +0.000 A 
ATOM      7  O   UNL     1       4.498   5.932  16.781  0.00  0.00    +0.000 OA
ATOM      8  C   UNL     1       3.657   5.775  17.846  0.00  0.00    +0.000 A 
ATOM      9  C   UNL     1       3.206   6.757  18.730  0.00  0.00    +0.000 A 
ENDROOT
BRANCH   6  10
ATOM     10  C   UNL     1       5.447   4.510  15.068  0.00  0.00    +0.000 A 
ATOM     11  C   UNL     1       4.950   3.811  13.953  0.00  0.00    +0.000 A 
ATOM     12  C   UNL     1       5.708   3.699  12.784  0.00  0.00    +0.000 A 
ATOM     13  C   UNL     1       6.970   4.277  12.732  0.00  0.00    +0.000 A 
ATOM     14  F   UNL     1       7.693   4.187  11.608  0.00  0.00    +0.000 F 
ATOM     15  C   UNL     1       7.491   4.954  13.827  0.00  0.00    +0.000 A 
ATOM     16  C   UNL     1       6.733   5.068  14.994  0.00  0.00    +0.000 A 
ENDBRANCH   6  10
BRANCH   1  19
ATOM     17  C   UNL     1       1.403   8.500  20.455  0.00  0.00    +0.000 C 
ATOM     18  O   UNL     1       1.169   8.927  19.326  0.00  0.00    +0.000 OA
ATOM     19  N   UNL     1       1.959   7.260  20.746  0.00  0.00    +0.000 N 
ATOM     20  H   UNL     1       1.951   6.950  21.711  0.00  0.00    +0.000 HD
BRANCH  17  25
ATOM     21  O   UNL     1      -0.908  12.269  21.634  0.00  0.00    +0.000 OA
ATOM     22  C   UNL     1      -0.361  11.214  21.885  0.00  0.00    +0.000 C 
ATOM     23  C   UNL     1      -0.730  10.250  22.978  0.00  0.00    +0.000 C 
ATOM     24  C   UNL     1      -0.097   8.942  22.502  0.00  0.00    +0.000 C 
ATOM     25  C   UNL     1       1.108   9.381  21.684  0.00  0.00    +0.000 C 
ATOM     26  N   UNL     1       0.746  10.709  21.247  0.00  0.00    +0.000 N 
ATOM     27  H   UNL     1       1.079  11.119  20.379  0.00  0.00    +0.000 HD
ENDBRANCH  17  25
ENDBRANCH   1  19
TORSDOF 3
ENDMDL
MODEL 4
REMARK VINA RESULT:      -8.1      3.462      4.956
REMARK  Name = 
REMARK  3 active torsions:
REMARK  status: ('A' for Active; 'I' for Inactive)
REMARK    1  A    between atoms: C_5  and  C_6
REMARK    2  A    between atoms: N_8  and  C_9
REMARK    3  A    between atoms: C_14  and  C_15
REMARK                            x       y       z     vdW  Elec       q    Type
REMARK                         _______ _______ _______ _____ _____    ______ ____
ROOT
ATOM      1  C   UNL     1       2.432   7.031  18.779  0.00  0.00    +0.000 A 
ATOM      2  C   UNL     1       2.472   7.926  17.696  0.00  0.00    +0.000 A 
ATOM      3  C   UNL     1       1.984   9.238  17.788  0.00  0.00    +0.000 A 
ATOM      4  C   UNL     1       1.447   9.651  19.004  0.00  0.00    +0.000 A 
ATOM      5  N   UNL     1       0.926  10.856  19.387  0.00  0.00    +0.000 NA
ATOM      6  C   UNL     1       0.572  10.659  20.643  0.00  0.00    +0.000 A 
ATOM      7  O   UNL     1       0.823   9.391  21.115  0.00  0.00    +0.000 OA
ATOM      8  C   UNL     1       1.388   8.747  20.050  0.00  0.00    +0.000 A 
ATOM      9  C   UNL     1       1.838   7.427  19.991  0.00  0.00    +0.000 A 
ENDROOT
BRANCH   6  10
ATOM     10  C   UNL     1      -0.073  11.594  21.561  0.00  0.00    +0.000 A 
ATOM     11  C   UNL     1       0.246  12.963  21.507  0.00  0.00    +0.000 A 
ATOM     12  C   UNL     1      -0.399  13.880  22.341  0.00  0.00    +0.000 A 
ATOM     13  C   UNL     1      -1.357  13.428  23.240  0.00  0.00    +0.000 A 
ATOM     14  F   UNL     1      -1.990  14.305  24.029  0.00  0.00    +0.000 F 
ATOM     15  C   UNL     1      -1.673  12.079  23.327  0.00  0.00    +0.000 A 
ATOM     16  C   UNL     1      -1.031  11.163  22.492  0.00  0.00    +0.000 A 
ENDBRANCH   6  10
BRANCH   1  19
ATOM     17  C   UNL     1       4.264   5.418  18.280  0.00  0.00    +0.000 C 
ATOM     18  O   UNL     1       5.121   6.241  17.964  0.00  0.00    +0.000 OA
ATOM     19  N   UNL     1       2.972   5.721  18.696  0.00  0.00    +0.000 N 
ATOM     20  H   UNL     1       2.411   4.975  19.089  0.00  0.00    +0.000 HD
BRANCH  17  25
ATOM     21  O   UNL     1       4.942   1.789  20.982  0.00  0.00    +0.000 OA
ATOM     22  C   UNL     1       4.659   2.308  19.921  0.00  0.00    +0.000 C 
ATOM     23  C   UNL     1       3.715   1.769  18.881  0.00  0.00    +0.000 C 
ATOM     24  C   UNL     1       3.355   3.016  18.074  0.00  0.00    +0.000 C 
ATOM     25  C   UNL     1       4.578   3.913  18.195  0.00  0.00    +0.000 C 
ATOM     26  N   UNL     1       5.185   3.479  19.432  0.00  0.00    +0.000 N 
ATOM     27  H   UNL     1       5.731   4.094  20.029  0.00  0.00    +0.000 HD
ENDBRANCH  17  25
ENDBRANCH   1  19
TORSDOF 3
ENDMDL
MODEL 5
REMARK VINA RESULT:      -8.0      1.558      2.165
REMARK  Name = 
REMARK  3 active torsions:
REMARK  status: ('A' for Active; 'I' for Inactive)
REMARK    1  A    between atoms: C_5  and  C_6
REMARK    2  A    between atoms: N_8  and  C_9
REMARK    3  A    between atoms: C_14  and  C_15
REMARK                            x       y       z     vdW  Elec       q    Type
REMARK                         _______ _______ _______ _____ _____    ______ ____
ROOT
ATOM      1  C   UNL     1       3.662   5.539  18.684  0.00  0.00    +0.000 A 
ATOM      2  C   UNL     1       3.145   4.667  19.658  0.00  0.00    +0.000 A 
ATOM      3  C   UNL     1       2.203   5.080  20.612  0.00  0.00    +0.000 A 
ATOM      4  C   UNL     1       1.776   6.404  20.576  0.00  0.00    +0.000 A 
ATOM      5  N   UNL     1       0.868   7.071  21.352  0.00  0.00    +0.000 NA
ATOM      6  C   UNL     1       0.877   8.296  20.862  0.00  0.00    +0.000 A 
ATOM      7  O   UNL     1       1.743   8.483  19.808  0.00  0.00    +0.000 OA
ATOM      8  C   UNL     1       2.319   7.257  19.631  0.00  0.00    +0.000 A 
ATOM      9  C   UNL     1       3.275   6.891  18.682  0.00  0.00    +0.000 A 
ENDROOT
BRANCH   6  10
ATOM     10  C   UNL     1       0.121   9.461  21.315  0.00  0.00    +0.000 A 
ATOM     11  C   UNL     1      -0.271  10.445  20.390  0.00  0.00    +0.000 A 
ATOM     12  C   UNL     1      -1.039  11.540  20.796  0.00  0.00    +0.000 A 
ATOM     13  C   UNL     1      -1.407  11.658  22.131  0.00  0.00    +0.000 A 
ATOM     14  F   UNL     1      -2.158  12.696  22.520  0.00  0.00    +0.000 F 
ATOM     15  C   UNL     1      -1.014  10.710  23.066  0.00  0.00    +0.000 A 
ATOM     16  C   UNL     1      -0.248   9.615  22.660  0.00  0.00    +0.000 A 
ENDBRANCH   6  10
BRANCH   1  19
ATOM     17  C   UNL     1       5.834   4.567  17.944  0.00  0.00    +0.000 C 
ATOM     18  O   UNL     1       6.308   4.366  19.061  0.00  0.00    +0.000 OA
ATOM     19  N   UNL     1       4.576   5.104  17.690  0.00  0.00    +0.000 N 
ATOM     20  H   UNL     1       4.227   5.069  16.739  0.00  0.00    +0.000 HD
BRANCH  17  25
ATOM     21  O   UNL     1       5.317   3.701  13.482  0.00  0.00    +0.000 OA
ATOM     22  C   UNL     1       5.966   4.054  14.446  0.00  0.00    +0.000 C 
ATOM     23  C   UNL     1       7.084   5.060  14.455  0.00  0.00    +0.000 C 
ATOM     24  C   UNL     1       7.149   5.477  15.925  0.00  0.00    +0.000 C 
ATOM     25  C   UNL     1       6.667   4.253  16.688  0.00  0.00    +0.000 C 
ATOM     26  N   UNL     1       5.841   3.565  15.724  0.00  0.00    +0.000 N 
ATOM     27  H   UNL     1       5.049   2.984  15.984  0.00  0.00    +0.000 HD
ENDBRANCH  17  25
ENDBRANCH   1  19
TORSDOF 3
ENDMDL
MODEL 6
REMARK VINA RESULT:      -8.0      0.862      1.002
REMARK  Name = 
REMARK  3 active torsions:
REMARK  status: ('A' for Active; 'I' for Inactive)
REMARK    1  A    between atoms: C_5  and  C_6
REMARK    2  A    between atoms: N_8  and  C_9
REMARK    3  A    between atoms: C_14  and  C_15
REMARK                            x       y       z     vdW  Elec       q    Type
REMARK                         _______ _______ _______ _____ _____    ______ ____
ROOT
ATOM      1  C   UNL     1       4.606   5.402  17.240  0.00  0.00    +0.000 A 
ATOM      2  C   UNL     1       4.398   4.801  18.493  0.00  0.00    +0.000 A 
ATOM      3  C   UNL     1       3.592   5.384  19.482  0.00  0.00    +0.000 A 
ATOM      4  C   UNL     1       2.983   6.602  19.192  0.00  0.00    +0.000 A 
ATOM      5  N   UNL     1       2.143   7.381  19.938  0.00  0.00    +0.000 NA
ATOM      6  C   UNL     1       1.892   8.413  19.155  0.00  0.00    +0.000 A 
ATOM      7  O   UNL     1       2.522   8.366  17.932  0.00  0.00    +0.000 OA
ATOM      8  C   UNL     1       3.224   7.195  17.964  0.00  0.00    +0.000 A 
ATOM      9  C   UNL     1       4.039   6.659  16.965  0.00  0.00    +0.000 A 
ENDROOT
BRANCH   6  10
ATOM     10  C   UNL     1       1.073   9.589  19.436  0.00  0.00    +0.000 A 
ATOM     11  C   UNL     1       1.245  10.761  18.677  0.00  0.00    +0.000 A 
ATOM     12  C   UNL     1       0.435  11.878  18.897  0.00  0.00    +0.000 A 
ATOM     13  C   UNL     1      -0.541  11.830  19.883  0.00  0.00    +0.000 A 
ATOM     14  F   UNL     1      -1.331  12.892  20.085  0.00  0.00    +0.000 F 
ATOM     15  C   UNL     1      -0.716  10.692  20.660  0.00  0.00    +0.000 A 
ATOM     16  C   UNL     1       0.092   9.574  20.439  0.00  0.00    +0.000 A 
ENDBRANCH   6  10
BRANCH   1  19
ATOM     17  C   UNL     1       6.596   5.259  15.747  0.00  0.00    +0.000 C 
ATOM     18  O   UNL     1       7.179   6.260  16.162  0.00  0.00    +0.000 OA
ATOM     19  N   UNL     1       5.381   4.782  16.225  0.00  0.00    +0.000 N 
ATOM     20  H   UNL     1       5.080   3.862  15.925  0.00  0.00    +0.000 HD
BRANCH  17  25
ATOM     21  O   UNL     1       5.307   2.940  12.021  0.00  0.00    +0.000 OA
ATOM     22  C   UNL     1       6.120   3.546  12.689  0.00  0.00    +0.000 C 
ATOM     23  C   UNL     1       7.258   4.384  12.173  0.00  0.00    +0.000 C 
ATOM     24  C   UNL     1       7.583   5.281  13.368  0.00  0.00    +0.000 C 
ATOM     25  C   UNL     1       7.195   4.450  14.582  0.00  0.00    +0.000 C 
ATOM     26  N   UNL     1       6.195   3.548  14.061  0.00  0.00    +0.000 N 
ATOM     27  H   UNL     1       5.439   3.171  14.624  0.00  0.00    +0.000 HD
ENDBRANCH  17  25
ENDBRANCH   1  19
TORSDOF 3
ENDMDL
MODEL 7
REMARK VINA RESULT:      -7.9      4.307      9.908
REMARK  Name = 
REMARK  3 active torsions:
REMARK  status: ('A' for Active; 'I' for Inactive)
REMARK    1  A    between atoms: C_5  and  C_6
REMARK    2  A    between atoms: N_8  and  C_9
REMARK    3  A    between atoms: C_14  and  C_15
REMARK                            x       y       z     vdW  Elec       q    Type
REMARK                         _______ _______ _______ _____ _____    ______ ____
ROOT
ATOM      1  C   UNL     1       0.699   9.685  19.872  0.00  0.00    +0.000 A 
ATOM      2  C   UNL     1       0.793   8.772  20.935  0.00  0.00    +0.000 A 
ATOM      3  C   UNL     1       1.556   7.597  20.851  0.00  0.00    +0.000 A 
ATOM      4  C   UNL     1       2.238   7.346  19.664  0.00  0.00    +0.000 A 
ATOM      5  N   UNL     1       3.060   6.312  19.307  0.00  0.00    +0.000 NA
ATOM      6  C   UNL     1       3.410   6.603  18.069  0.00  0.00    +0.000 A 
ATOM      7  O   UNL     1       2.864   7.768  17.580  0.00  0.00    +0.000 OA
ATOM      8  C   UNL     1       2.108   8.241  18.616  0.00  0.00    +0.000 A 
ATOM      9  C   UNL     1       1.340   9.406  18.652  0.00  0.00    +0.000 A 
ENDROOT
BRANCH   6  10
ATOM     10  C   UNL     1       4.261   5.837  17.163  0.00  0.00    +0.000 A 
ATOM     11  C   UNL     1       4.314   4.435  17.268  0.00  0.00    +0.000 A 
ATOM     12  C   UNL     1       5.081   3.681  16.376  0.00  0.00    +0.000 A 
ATOM     13  C   UNL     1       5.806   4.328  15.383  0.00  0.00    +0.000 A 
ATOM     14  F   UNL     1       6.528   3.608  14.515  0.00  0.00    +0.000 F 
ATOM     15  C   UNL     1       5.786   5.712  15.272  0.00  0.00    +0.000 A 
ATOM     16  C   UNL     1       5.018   6.466  16.162  0.00  0.00    +0.000 A 
ENDBRANCH   6  10
BRANCH   1  19
ATOM     17  C   UNL     1      -1.243  11.156  19.347  0.00  0.00    +0.000 C 
ATOM     18  O   UNL     1      -1.860  10.361  18.639  0.00  0.00    +0.000 OA
ATOM     19  N   UNL     1      -0.033  10.897  19.980  0.00  0.00    +0.000 N 
ATOM     20  H   UNL     1       0.296  11.563  20.668  0.00  0.00    +0.000 HD
BRANCH  17  25
ATOM     21  O   UNL     1      -5.063  13.323  20.627  0.00  0.00    +0.000 OA
ATOM     22  C   UNL     1      -3.863  13.262  20.451  0.00  0.00    +0.000 C 
ATOM     23  C   UNL     1      -2.802  13.976  21.242  0.00  0.00    +0.000 C 
ATOM     24  C   UNL     1      -1.549  13.152  20.947  0.00  0.00    +0.000 C 
ATOM     25  C   UNL     1      -1.791  12.580  19.558  0.00  0.00    +0.000 C 
ATOM     26  N   UNL     1      -3.231  12.560  19.453  0.00  0.00    +0.000 N 
ATOM     27  H   UNL     1      -3.739  11.884  18.890  0.00  0.00    +0.000 HD
ENDBRANCH  17  25
ENDBRANCH   1  19
TORSDOF 3
ENDMDL
MODEL 8
REMARK VINA RESULT:      -7.8      3.756      5.128
REMARK  Name = 
REMARK  3 active torsions:
REMARK  status: ('A' for Active; 'I' for Inactive)
REMARK    1  A    between atoms: C_5  and  C_6
REMARK    2  A    between atoms: N_8  and  C_9
REMARK    3  A    between atoms: C_14  and  C_15
REMARK                            x       y       z     vdW  Elec       q    Type
REMARK                         _______ _______ _______ _____ _____    ______ ____
ROOT
ATOM      1  C   UNL     1       2.754   7.105  18.562  0.00  0.00    +0.000 A 
ATOM      2  C   UNL     1       2.806   8.071  17.542  0.00  0.00    +0.000 A 
ATOM      3  C   UNL     1       2.168   9.315  17.652  0.00  0.00    +0.000 A 
ATOM      4  C   UNL     1       1.464   9.586  18.823  0.00  0.00    +0.000 A 
ATOM      5  N   UNL     1       0.774  10.701  19.213  0.00  0.00    +0.000 NA
ATOM      6  C   UNL     1       0.316  10.383  20.408  0.00  0.00    +0.000 A 
ATOM      7  O   UNL     1       0.656   9.119  20.833  0.00  0.00    +0.000 OA
ATOM      8  C   UNL     1       1.398   8.611  19.803  0.00  0.00    +0.000 A 
ATOM      9  C   UNL     1       1.997   7.353  19.721  0.00  0.00    +0.000 A 
ENDROOT
BRANCH   6  10
ATOM     10  C   UNL     1      -0.522  11.180  21.300  0.00  0.00    +0.000 A 
ATOM     11  C   UNL     1      -0.904  10.663  22.551  0.00  0.00    +0.000 A 
ATOM     12  C   UNL     1      -1.661  11.431  23.440  0.00  0.00    +0.000 A 
ATOM     13  C   UNL     1      -2.046  12.715  23.075  0.00  0.00    +0.000 A 
ATOM     14  F   UNL     1      -2.757  13.461  23.931  0.00  0.00    +0.000 F 
ATOM     15  C   UNL     1      -1.699  13.239  21.837  0.00  0.00    +0.000 A 
ATOM     16  C   UNL     1      -0.941  12.473  20.950  0.00  0.00    +0.000 A 
ENDBRANCH   6  10
BRANCH   1  19
ATOM     17  C   UNL     1       2.894   4.685  17.983  0.00  0.00    +0.000 C 
ATOM     18  O   UNL     1       1.753   4.559  17.543  0.00  0.00    +0.000 OA
ATOM     19  N   UNL     1       3.443   5.868  18.466  0.00  0.00    +0.000 N 
ATOM     20  H   UNL     1       4.440   5.891  18.646  0.00  0.00    +0.000 HD
BRANCH  17  25
ATOM     21  O   UNL     1       4.830   1.911  21.063  0.00  0.00    +0.000 OA
ATOM     22  C   UNL     1       4.440   2.179  19.944  0.00  0.00    +0.000 C 
ATOM     23  C   UNL     1       3.903   1.211  18.926  0.00  0.00    +0.000 C 
ATOM     24  C   UNL     1       3.113   2.119  17.983  0.00  0.00    +0.000 C 
ATOM     25  C   UNL     1       3.825   3.461  18.064  0.00  0.00    +0.000 C 
ATOM     26  N   UNL     1       4.456   3.423  19.362  0.00  0.00    +0.000 N 
ATOM     27  H   UNL     1       4.638   4.255  19.916  0.00  0.00    +0.000 HD
ENDBRANCH  17  25
ENDBRANCH   1  19
TORSDOF 3
ENDMDL
MODEL 9
REMARK VINA RESULT:      -7.7      4.877     10.178
REMARK  Name = 
REMARK  3 active torsions:
REMARK  status: ('A' for Active; 'I' for Inactive)
REMARK    1  A    between atoms: C_5  and  C_6
REMARK    2  A    between atoms: N_8  and  C_9
REMARK    3  A    between atoms: C_14  and  C_15
REMARK                            x       y       z     vdW  Elec       q    Type
REMARK                         _______ _______ _______ _____ _____    ______ ____
ROOT
ATOM      1  C   UNL     1       0.340  10.554  19.841  0.00  0.00    +0.000 A 
ATOM      2  C   UNL     1       0.899  10.727  18.563  0.00  0.00    +0.000 A 
ATOM      3  C   UNL     1       1.706   9.752  17.957  0.00  0.00    +0.000 A 
ATOM      4  C   UNL     1       1.949   8.577  18.663  0.00  0.00    +0.000 A 
ATOM      5  N   UNL     1       2.666   7.463  18.322  0.00  0.00    +0.000 NA
ATOM      6  C   UNL     1       2.549   6.680  19.378  0.00  0.00    +0.000 A 
ATOM      7  O   UNL     1       1.799   7.212  20.402  0.00  0.00    +0.000 OA
ATOM      8  C   UNL     1       1.416   8.436  19.932  0.00  0.00    +0.000 A 
ATOM      9  C   UNL     1       0.630   9.392  20.578  0.00  0.00    +0.000 A 
ENDROOT
BRANCH   6  10
ATOM     10  C   UNL     1       3.135   5.361  19.599  0.00  0.00    +0.000 A 
ATOM     11  C   UNL     1       2.447   4.409  20.372  0.00  0.00    +0.000 A 
ATOM     12  C   UNL     1       2.967   3.124  20.552  0.00  0.00    +0.000 A 
ATOM     13  C   UNL     1       4.183   2.793  19.967  0.00  0.00    +0.000 A 
ATOM     14  F   UNL     1       4.677   1.558  20.122  0.00  0.00    +0.000 F 
ATOM     15  C   UNL     1       4.892   3.723  19.218  0.00  0.00    +0.000 A 
ATOM     16  C   UNL     1       4.371   5.005  19.037  0.00  0.00    +0.000 A 
ENDBRANCH   6  10
BRANCH   1  19
ATOM     17  C   UNL     1      -0.098  12.569  21.239  0.00  0.00    +0.000 C 
ATOM     18  O   UNL     1       1.071  12.819  21.530  0.00  0.00    +0.000 OA
ATOM     19  N   UNL     1      -0.517  11.522  20.427  0.00  0.00    +0.000 N 
ATOM     20  H   UNL     1      -1.483  11.513  20.123  0.00  0.00    +0.000 HD
BRANCH  17  25
ATOM     21  O   UNL     1      -4.488  12.256  22.487  0.00  0.00    +0.000 OA
ATOM     22  C   UNL     1      -3.392  12.778  22.514  0.00  0.00    +0.000 C 
ATOM     23  C   UNL     1      -2.774  13.510  23.674  0.00  0.00    +0.000 C 
ATOM     24  C   UNL     1      -1.282  13.471  23.341  0.00  0.00    +0.000 C 
ATOM     25  C   UNL     1      -1.234  13.430  21.821  0.00  0.00    +0.000 C 
ATOM     26  N   UNL     1      -2.507  12.848  21.465  0.00  0.00    +0.000 N 
ATOM     27  H   UNL     1      -2.650  12.293  20.626  0.00  0.00    +0.000 HD
ENDBRANCH  17  25
ENDBRANCH   1  19
TORSDOF 3
ENDMDL
