MODEL 1
REMARK VINA RESULT:      -8.6      0.000      0.000
REMARK  Name = 
REMARK  6 active torsions:
REMARK  status: ('A' for Active; 'I' for Inactive)
REMARK    1  A    between atoms: C_2  and  C_12
REMARK    2  A    between atoms: C_7  and  C_8
REMARK    3  A    between atoms: C_16  and  S_17
REMARK    4  A    between atoms: S_17  and  N_20
REMARK    5  A    between atoms: N_20  and  C_21
REMARK    6  A    between atoms: C_24  and  N_25
REMARK                            x       y       z     vdW  Elec       q    Type
REMARK                         _______ _______ _______ _____ _____    ______ ____
ROOT
ATOM      1  C   UNL     1       3.432   6.525  18.116  0.00  0.00    +0.000 A 
ATOM      2  C   UNL     1       2.847   5.273  18.364  0.00  0.00    +0.000 A 
ATOM      3  C   UNL     1       3.609   4.108  18.287  0.00  0.00    +0.000 A 
ATOM      4  C   UNL     1       4.964   4.185  17.971  0.00  0.00    +0.000 A 
ATOM      5  C   UNL     1       5.551   5.435  17.743  0.00  0.00    +0.000 A 
ATOM      6  C   UNL     1       4.790   6.613  17.800  0.00  0.00    +0.000 A 
ENDROOT
BRANCH   1   8
ATOM      7  O   UNL     1       2.509   8.490  17.329  0.00  0.00    +0.000 OA
ATOM      8  C   UNL     1       2.582   7.730  18.290  0.00  0.00    +0.000 C 
ATOM      9  N   UNL     1       2.000   7.891  19.525  0.00  0.00    +0.000 N 
ATOM     10  C   UNL     1       1.182   8.946  19.867  0.00  0.00    +0.000 A 
ATOM     11  N   UNL     1       0.855   9.237  21.110  0.00  0.00    +0.000 NA
ATOM     12  N   UNL     1       0.072  10.380  21.185  0.00  0.00    +0.000 NA
ATOM     13  C   UNL     1      -0.188  10.868  19.991  0.00  0.00    +0.000 A 
ATOM     14  S   UNL     1       0.449   9.954  18.701  0.00  0.00    +0.000 S 
ATOM     15  H   UNL     1       2.300   7.333  20.313  0.00  0.00    +0.000 HD
BRANCH  13  16
ATOM     16  C   UNL     1      -0.976  12.152  19.745  0.00  0.00    +0.000 C 
ATOM     17  C   UNL     1      -2.419  12.034  19.298  0.00  0.00    +0.000 C 
ATOM     18  C   UNL     1      -1.386  12.506  18.333  0.00  0.00    +0.000 C 
ENDBRANCH  13  16
ENDBRANCH   1   8
BRANCH   5  19
ATOM     19  S   UNL     1       7.271   5.526  17.285  0.00  0.00    +0.000 S 
ATOM     20  O   UNL     1       7.900   6.531  18.112  0.00  0.00    +0.000 OA
ATOM     21  O   UNL     1       7.760   4.163  17.245  0.00  0.00    +0.000 OA
BRANCH  19  22
ATOM     22  N   UNL     1       7.228   6.056  15.692  0.00  0.00    +0.000 N 
ATOM     23  H   UNL     1       7.907   6.779  15.463  0.00  0.00    +0.000 HD
BRANCH  22  24
ATOM     24  C   UNL     1       6.742   5.213  14.664  0.00  0.00    +0.000 A 
ATOM     25  C   UNL     1       7.543   4.948  13.550  0.00  0.00    +0.000 A 
ATOM     26  C   UNL     1       7.089   4.081  12.551  0.00  0.00    +0.000 A 
ATOM     27  C   UNL     1       5.818   3.502  12.667  0.00  0.00    +0.000 A 
ATOM     28  C   UNL     1       5.006   3.787  13.773  0.00  0.00    +0.000 A 
ATOM     29  C   UNL     1       5.476   4.640  14.775  0.00  0.00    +0.000 A 
BRANCH  27  30
ATOM     30  N   UNL     1       5.335   2.582  11.629  0.00  0.00    +0.000 N 
ATOM     31  O   UNL     1       4.249   2.839  11.091  0.00  0.00    +0.000 OA
ATOM     32  O   UNL     1       6.046   1.606  11.349  0.00  0.00    +0.000 OA
ENDBRANCH  27  30
ENDBRANCH  22  24
ENDBRANCH  19  22
ENDBRANCH   5  19
TORSDOF 6
ENDMDL
MODEL 2
REMARK VINA RESULT:      -8.6      0.507      1.125
REMARK  Name = 
REMARK  6 active torsions:
REMARK  status: ('A' for Active; 'I' for Inactive)
REMARK    1  A    between atoms: C_2  and  C_12
REMARK    2  A    between atoms: C_7  and  C_8
REMARK    3  A    between atoms: C_16  and  S_17
REMARK    4  A    between atoms: S_17  and  N_20
REMARK    5  A    between atoms: N_20  and  C_21
REMARK    6  A    between atoms: C_24  and  N_25
REMARK                            x       y       z     vdW  Elec       q    Type
REMARK                         _______ _______ _______ _____ _____    ______ ____
ROOT
ATOM      1  C   UNL     1       3.387   6.658  18.164  0.00  0.00    +0.000 A 
ATOM      2  C   UNL     1       2.813   5.439  18.560  0.00  0.00    +0.000 A 
ATOM      3  C   UNL     1       3.587   4.282  18.630  0.00  0.00    +0.000 A 
ATOM      4  C   UNL     1       4.943   4.334  18.314  0.00  0.00    +0.000 A 
ATOM      5  C   UNL     1       5.520   5.552  17.938  0.00  0.00    +0.000 A 
ATOM      6  C   UNL     1       4.746   6.720  17.846  0.00  0.00    +0.000 A 
ENDROOT
BRANCH   1   8
ATOM      7  O   UNL     1       2.470   8.516  17.147  0.00  0.00    +0.000 OA
ATOM      8  C   UNL     1       2.524   7.865  18.186  0.00  0.00    +0.000 C 
ATOM      9  N   UNL     1       1.910   8.154  19.381  0.00  0.00    +0.000 N 
ATOM     10  C   UNL     1       1.075   9.232  19.587  0.00  0.00    +0.000 A 
ATOM     11  N   UNL     1       0.715   9.652  20.782  0.00  0.00    +0.000 NA
ATOM     12  N   UNL     1      -0.078  10.788  20.714  0.00  0.00    +0.000 NA
ATOM     13  C   UNL     1      -0.311  11.142  19.468  0.00  0.00    +0.000 A 
ATOM     14  S   UNL     1       0.365  10.100  18.301  0.00  0.00    +0.000 S 
ATOM     15  H   UNL     1       2.194   7.687  20.233  0.00  0.00    +0.000 HD
BRANCH  13  16
ATOM     16  C   UNL     1      -1.102  12.383  19.064  0.00  0.00    +0.000 C 
ATOM     17  C   UNL     1      -0.341  13.573  18.519  0.00  0.00    +0.000 C 
ATOM     18  C   UNL     1      -0.952  13.650  19.876  0.00  0.00    +0.000 C 
ENDBRANCH  13  16
ENDBRANCH   1   8
BRANCH   5  19
ATOM     19  S   UNL     1       7.241   5.606  17.480  0.00  0.00    +0.000 S 
ATOM     20  O   UNL     1       7.887   6.613  18.290  0.00  0.00    +0.000 OA
ATOM     21  O   UNL     1       7.706   4.233  17.465  0.00  0.00    +0.000 OA
BRANCH  19  22
ATOM     22  N   UNL     1       7.208   6.107  15.878  0.00  0.00    +0.000 N 
ATOM     23  H   UNL     1       7.888   6.827  15.642  0.00  0.00    +0.000 HD
BRANCH  22  24
ATOM     24  C   UNL     1       6.732   5.246  14.861  0.00  0.00    +0.000 A 
ATOM     25  C   UNL     1       5.469   4.660  14.986  0.00  0.00    +0.000 A 
ATOM     26  C   UNL     1       4.972   3.843  13.965  0.00  0.00    +0.000 A 
ATOM     27  C   UNL     1       5.759   3.603  12.831  0.00  0.00    +0.000 A 
ATOM     28  C   UNL     1       7.035   4.173  12.717  0.00  0.00    +0.000 A 
ATOM     29  C   UNL     1       7.516   5.001  13.734  0.00  0.00    +0.000 A 
BRANCH  27  30
ATOM     30  N   UNL     1       5.242   2.756  11.748  0.00  0.00    +0.000 N 
ATOM     31  O   UNL     1       4.202   3.117  11.179  0.00  0.00    +0.000 OA
ATOM     32  O   UNL     1       5.881   1.732  11.464  0.00  0.00    +0.000 OA
ENDBRANCH  27  30
ENDBRANCH  22  24
ENDBRANCH  19  22
ENDBRANCH   5  19
TORSDOF 6
ENDMDL
MODEL 3
REMARK VINA RESULT:      -8.6      2.961      4.510
REMARK  Name = 
REMARK  6 active torsions:
REMARK  status: ('A' for Active; 'I' for Inactive)
REMARK    1  A    between atoms: C_2  and  C_12
REMARK    2  A    between atoms: C_7  and  C_8
REMARK    3  A    between atoms: C_16  and  S_17
REMARK    4  A    between atoms: S_17  and  N_20
REMARK    5  A    between atoms: N_20  and  C_21
REMARK    6  A    between atoms: C_24  and  N_25
REMARK                            x       y       z     vdW  Elec       q    Type
REMARK                         _______ _______ _______ _____ _____    ______ ____
ROOT
ATOM      1  C   UNL     1       2.015   6.155  19.856  0.00  0.00    +0.000 A 
ATOM      2  C   UNL     1       2.013   5.630  21.158  0.00  0.00    +0.000 A 
ATOM      3  C   UNL     1       2.241   4.272  21.375  0.00  0.00    +0.000 A 
ATOM      4  C   UNL     1       2.482   3.427  20.292  0.00  0.00    +0.000 A 
ATOM      5  C   UNL     1       2.502   3.954  18.996  0.00  0.00    +0.000 A 
ATOM      6  C   UNL     1       2.256   5.316  18.764  0.00  0.00    +0.000 A 
ENDROOT
BRANCH   1   8
ATOM      7  O   UNL     1       2.260   8.114  18.660  0.00  0.00    +0.000 OA
ATOM      8  C   UNL     1       1.843   7.621  19.703  0.00  0.00    +0.000 C 
ATOM      9  N   UNL     1       1.272   8.281  20.766  0.00  0.00    +0.000 N 
ATOM     10  C   UNL     1       1.035   9.639  20.801  0.00  0.00    +0.000 A 
ATOM     11  N   UNL     1       0.748  10.296  21.906  0.00  0.00    +0.000 NA
ATOM     12  N   UNL     1       0.615  11.658  21.678  0.00  0.00    +0.000 NA
ATOM     13  C   UNL     1       0.766  11.953  20.405  0.00  0.00    +0.000 A 
ATOM     14  S   UNL     1       1.025  10.605  19.394  0.00  0.00    +0.000 S 
ATOM     15  H   UNL     1       1.170   7.824  21.662  0.00  0.00    +0.000 HD
BRANCH  13  16
ATOM     16  C   UNL     1       0.734  13.373  19.845  0.00  0.00    +0.000 C 
ATOM     17  C   UNL     1      -0.216  13.674  18.706  0.00  0.00    +0.000 C 
ATOM     18  C   UNL     1       1.250  13.627  18.447  0.00  0.00    +0.000 C 
ENDBRANCH  13  16
ENDBRANCH   1   8
BRANCH   5  19
ATOM     19  S   UNL     1       2.753   2.864  17.609  0.00  0.00    +0.000 S 
ATOM     20  O   UNL     1       2.246   1.559  17.970  0.00  0.00    +0.000 OA
ATOM     21  O   UNL     1       2.269   3.567  16.438  0.00  0.00    +0.000 OA
BRANCH  19  22
ATOM     22  N   UNL     1       4.424   2.795  17.457  0.00  0.00    +0.000 N 
ATOM     23  H   UNL     1       4.771   2.016  16.902  0.00  0.00    +0.000 HD
BRANCH  22  24
ATOM     24  C   UNL     1       5.208   3.968  17.569  0.00  0.00    +0.000 A 
ATOM     25  C   UNL     1       5.742   4.328  18.808  0.00  0.00    +0.000 A 
ATOM     26  C   UNL     1       6.555   5.461  18.918  0.00  0.00    +0.000 A 
ATOM     27  C   UNL     1       6.809   6.240  17.781  0.00  0.00    +0.000 A 
ATOM     28  C   UNL     1       6.253   5.891  16.542  0.00  0.00    +0.000 A 
ATOM     29  C   UNL     1       5.457   4.747  16.439  0.00  0.00    +0.000 A 
BRANCH  27  30
ATOM     30  N   UNL     1       7.669   7.426  17.883  0.00  0.00    +0.000 N 
ATOM     31  O   UNL     1       7.514   8.325  17.045  0.00  0.00    +0.000 OA
ATOM     32  O   UNL     1       8.497   7.459  18.805  0.00  0.00    +0.000 OA
ENDBRANCH  27  30
ENDBRANCH  22  24
ENDBRANCH  19  22
ENDBRANCH   5  19
TORSDOF 6
ENDMDL
MODEL 4
REMARK VINA RESULT:      -8.5      5.322      7.559
REMARK  Name = 
REMARK  6 active torsions:
REMARK  status: ('A' for Active; 'I' for Inactive)
REMARK    1  A    between atoms: C_2  and  C_12
REMARK    2  A    between atoms: C_7  and  C_8
REMARK    3  A    between atoms: C_16  and  S_17
REMARK    4  A    between atoms: S_17  and  N_20
REMARK    5  A    between atoms: N_20  and  C_21
REMARK    6  A    between atoms: C_24  and  N_25
REMARK                            x       y       z     vdW  Elec       q    Type
REMARK                         _______ _______ _______ _____ _____    ______ ____
ROOT
ATOM      1  C   UNL     1       7.935   7.617  18.141  0.00  0.00    +0.000 A 
ATOM      2  C   UNL     1       8.385   6.817  19.204  0.00  0.00    +0.000 A 
ATOM      3  C   UNL     1       8.081   5.457  19.244  0.00  0.00    +0.000 A 
ATOM      4  C   UNL     1       7.332   4.882  18.219  0.00  0.00    +0.000 A 
ATOM      5  C   UNL     1       6.899   5.676  17.150  0.00  0.00    +0.000 A 
ATOM      6  C   UNL     1       7.184   7.050  17.108  0.00  0.00    +0.000 A 
ENDROOT
BRANCH   1   8
ATOM      7  O   UNL     1       8.047   9.688  17.127  0.00  0.00    +0.000 OA
ATOM      8  C   UNL     1       8.359   9.039  18.121  0.00  0.00    +0.000 C 
ATOM      9  N   UNL     1       9.096   9.470  19.199  0.00  0.00    +0.000 N 
ATOM     10  C   UNL     1       9.574  10.754  19.350  0.00  0.00    +0.000 A 
ATOM     11  N   UNL     1      10.494  11.085  20.232  0.00  0.00    +0.000 NA
ATOM     12  N   UNL     1      10.842  12.426  20.139  0.00  0.00    +0.000 NA
ATOM     13  C   UNL     1      10.134  13.047  19.220  0.00  0.00    +0.000 A 
ATOM     14  S   UNL     1       8.969  12.070  18.447  0.00  0.00    +0.000 S 
ATOM     15  H   UNL     1       9.489   8.807  19.853  0.00  0.00    +0.000 HD
BRANCH  13  16
ATOM     16  C   UNL     1      10.322  14.513  18.840  0.00  0.00    +0.000 C 
ATOM     17  C   UNL     1       9.662  15.569  19.702  0.00  0.00    +0.000 C 
ATOM     18  C   UNL     1       9.136  15.302  18.333  0.00  0.00    +0.000 C 
ENDBRANCH  13  16
ENDBRANCH   1   8
BRANCH   5  19
ATOM     19  S   UNL     1       5.894   4.952  15.869  0.00  0.00    +0.000 S 
ATOM     20  O   UNL     1       6.190   5.635  14.631  0.00  0.00    +0.000 OA
ATOM     21  O   UNL     1       6.038   3.515  15.995  0.00  0.00    +0.000 OA
BRANCH  19  22
ATOM     22  N   UNL     1       4.325   5.309  16.348  0.00  0.00    +0.000 N 
ATOM     23  H   UNL     1       3.700   5.585  15.593  0.00  0.00    +0.000 HD
BRANCH  22  24
ATOM     24  C   UNL     1       3.781   4.739  17.523  0.00  0.00    +0.000 A 
ATOM     25  C   UNL     1       3.316   3.421  17.501  0.00  0.00    +0.000 A 
ATOM     26  C   UNL     1       2.817   2.835  18.669  0.00  0.00    +0.000 A 
ATOM     27  C   UNL     1       2.768   3.587  19.850  0.00  0.00    +0.000 A 
ATOM     28  C   UNL     1       3.214   4.916  19.866  0.00  0.00    +0.000 A 
ATOM     29  C   UNL     1       3.726   5.487  18.698  0.00  0.00    +0.000 A 
BRANCH  27  30
ATOM     30  N   UNL     1       2.256   2.978  21.085  0.00  0.00    +0.000 N 
ATOM     31  O   UNL     1       3.078   2.465  21.859  0.00  0.00    +0.000 OA
ATOM     32  O   UNL     1       1.033   3.018  21.282  0.00  0.00    +0.000 OA
ENDBRANCH  27  30
ENDBRANCH  22  24
ENDBRANCH  19  22
ENDBRANCH   5  19
TORSDOF 6
ENDMDL
MODEL 5
REMARK VINA RESULT:      -8.5      2.999      4.654
REMARK  Name = 
REMARK  6 active torsions:
REMARK  status: ('A' for Active; 'I' for Inactive)
REMARK    1  A    between atoms: C_2  and  C_12
REMARK    2  A    between atoms: C_7  and  C_8
REMARK    3  A    between atoms: C_16  and  S_17
REMARK    4  A    between atoms: S_17  and  N_20
REMARK    5  A    between atoms: N_20  and  C_21
REMARK    6  A    between atoms: C_24  and  N_25
REMARK                            x       y       z     vdW  Elec       q    Type
REMARK                         _______ _______ _______ _____ _____    ______ ____
ROOT
ATOM      1  C   UNL     1       2.104   6.403  19.424  0.00  0.00    +0.000 A 
ATOM      2  C   UNL     1       1.963   6.048  20.775  0.00  0.00    +0.000 A 
ATOM      3  C   UNL     1       2.059   4.714  21.170  0.00  0.00    +0.000 A 
ATOM      4  C   UNL     1       2.307   3.725  20.221  0.00  0.00    +0.000 A 
ATOM      5  C   UNL     1       2.467   4.081  18.877  0.00  0.00    +0.000 A 
ATOM      6  C   UNL     1       2.354   5.418  18.464  0.00  0.00    +0.000 A 
ENDROOT
BRANCH   1   8
ATOM      7  O   UNL     1       2.726   8.195  18.108  0.00  0.00    +0.000 OA
ATOM      8  C   UNL     1       2.067   7.846  19.083  0.00  0.00    +0.000 C 
ATOM      9  N   UNL     1       1.333   8.652  19.922  0.00  0.00    +0.000 N 
ATOM     10  C   UNL     1       1.186  10.013  19.761  0.00  0.00    +0.000 A 
ATOM     11  N   UNL     1       0.720  10.808  20.702  0.00  0.00    +0.000 NA
ATOM     12  N   UNL     1       0.730  12.138  20.308  0.00  0.00    +0.000 NA
ATOM     13  C   UNL     1       1.163  12.274  19.073  0.00  0.00    +0.000 A 
ATOM     14  S   UNL     1       1.536  10.806  18.291  0.00  0.00    +0.000 S 
ATOM     15  H   UNL     1       1.015   8.308  20.818  0.00  0.00    +0.000 HD
BRANCH  13  16
ATOM     16  C   UNL     1       1.345  13.618  18.372  0.00  0.00    +0.000 C 
ATOM     17  C   UNL     1       2.678  14.324  18.509  0.00  0.00    +0.000 C 
ATOM     18  C   UNL     1       1.480  14.872  19.206  0.00  0.00    +0.000 C 
ENDBRANCH  13  16
ENDBRANCH   1   8
BRANCH   5  19
ATOM     19  S   UNL     1       2.728   2.809  17.656  0.00  0.00    +0.000 S 
ATOM     20  O   UNL     1       2.239   1.562  18.200  0.00  0.00    +0.000 OA
ATOM     21  O   UNL     1       2.230   3.334  16.401  0.00  0.00    +0.000 OA
BRANCH  19  22
ATOM     22  N   UNL     1       4.398   2.741  17.506  0.00  0.00    +0.000 N 
ATOM     23  H   UNL     1       4.747   1.955  16.960  0.00  0.00    +0.000 HD
BRANCH  22  24
ATOM     24  C   UNL     1       5.181   3.915  17.605  0.00  0.00    +0.000 A 
ATOM     25  C   UNL     1       5.718   4.288  18.840  0.00  0.00    +0.000 A 
ATOM     26  C   UNL     1       6.529   5.423  18.938  0.00  0.00    +0.000 A 
ATOM     27  C   UNL     1       6.779   6.191  17.794  0.00  0.00    +0.000 A 
ATOM     28  C   UNL     1       6.222   5.830  16.559  0.00  0.00    +0.000 A 
ATOM     29  C   UNL     1       5.427   4.684  16.468  0.00  0.00    +0.000 A 
BRANCH  27  30
ATOM     30  N   UNL     1       7.639   7.379  17.883  0.00  0.00    +0.000 N 
ATOM     31  O   UNL     1       8.492   7.408  18.781  0.00  0.00    +0.000 OA
ATOM     32  O   UNL     1       7.462   8.280  17.051  0.00  0.00    +0.000 OA
ENDBRANCH  27  30
ENDBRANCH  22  24
ENDBRANCH  19  22
ENDBRANCH   5  19
TORSDOF 6
ENDMDL
MODEL 6
REMARK VINA RESULT:      -8.5      7.069     10.771
REMARK  Name = 
REMARK  6 active torsions:
REMARK  status: ('A' for Active; 'I' for Inactive)
REMARK    1  A    between atoms: C_2  and  C_12
REMARK    2  A    between atoms: C_7  and  C_8
REMARK    3  A    between atoms: C_16  and  S_17
REMARK    4  A    between atoms: S_17  and  N_20
REMARK    5  A    between atoms: N_20  and  C_21
REMARK    6  A    between atoms: C_24  and  N_25
REMARK                            x       y       z     vdW  Elec       q    Type
REMARK                         _______ _______ _______ _____ _____    ______ ____
ROOT
ATOM      1  C   UNL     1       9.297  10.517  18.896  0.00  0.00    +0.000 A 
ATOM      2  C   UNL     1       9.445  10.613  20.289  0.00  0.00    +0.000 A 
ATOM      3  C   UNL     1      10.141  11.681  20.855  0.00  0.00    +0.000 A 
ATOM      4  C   UNL     1      10.686  12.668  20.035  0.00  0.00    +0.000 A 
ATOM      5  C   UNL     1      10.521  12.582  18.647  0.00  0.00    +0.000 A 
ATOM      6  C   UNL     1       9.839  11.502  18.065  0.00  0.00    +0.000 A 
ENDROOT
BRANCH   1   8
ATOM      7  O   UNL     1       7.651   9.685  17.508  0.00  0.00    +0.000 OA
ATOM      8  C   UNL     1       8.480   9.398  18.366  0.00  0.00    +0.000 C 
ATOM      9  N   UNL     1       8.708   8.161  18.921  0.00  0.00    +0.000 N 
ATOM     10  C   UNL     1       8.045   7.009  18.554  0.00  0.00    +0.000 A 
ATOM     11  N   UNL     1       8.070   5.901  19.265  0.00  0.00    +0.000 NA
ATOM     12  N   UNL     1       7.273   4.910  18.708  0.00  0.00    +0.000 NA
ATOM     13  C   UNL     1       6.724   5.309  17.581  0.00  0.00    +0.000 A 
ATOM     14  S   UNL     1       7.171   6.880  17.094  0.00  0.00    +0.000 S 
ATOM     15  H   UNL     1       9.248   8.069  19.771  0.00  0.00    +0.000 HD
BRANCH  13  16
ATOM     16  C   UNL     1       5.749   4.468  16.760  0.00  0.00    +0.000 C 
ATOM     17  C   UNL     1       6.262   3.802  15.500  0.00  0.00    +0.000 C 
ATOM     18  C   UNL     1       5.324   4.956  15.393  0.00  0.00    +0.000 C 
ENDBRANCH  13  16
ENDBRANCH   1   8
BRANCH   5  19
ATOM     19  S   UNL     1      11.266  13.813  17.597  0.00  0.00    +0.000 S 
ATOM     20  O   UNL     1      12.188  14.585  18.399  0.00  0.00    +0.000 OA
ATOM     21  O   UNL     1      11.699  13.124  16.398  0.00  0.00    +0.000 OA
BRANCH  19  22
ATOM     22  N   UNL     1       9.972  14.780  17.140  0.00  0.00    +0.000 N 
ATOM     23  H   UNL     1       9.747  14.752  16.148  0.00  0.00    +0.000 HD
BRANCH  22  24
ATOM     24  C   UNL     1       8.959  15.117  18.070  0.00  0.00    +0.000 A 
ATOM     25  C   UNL     1       9.239  16.013  19.104  0.00  0.00    +0.000 A 
ATOM     26  C   UNL     1       8.233  16.386  20.000  0.00  0.00    +0.000 A 
ATOM     27  C   UNL     1       6.951  15.837  19.863  0.00  0.00    +0.000 A 
ATOM     28  C   UNL     1       6.676  14.919  18.839  0.00  0.00    +0.000 A 
ATOM     29  C   UNL     1       7.685  14.566  17.938  0.00  0.00    +0.000 A 
BRANCH  27  30
ATOM     30  N   UNL     1       5.883  16.229  20.792  0.00  0.00    +0.000 N 
ATOM     31  O   UNL     1       5.210  17.230  20.507  0.00  0.00    +0.000 OA
ATOM     32  O   UNL     1       5.716  15.533  21.804  0.00  0.00    +0.000 OA
ENDBRANCH  27  30
ENDBRANCH  22  24
ENDBRANCH  19  22
ENDBRANCH   5  19
TORSDOF 6
ENDMDL
MODEL 7
REMARK VINA RESULT:      -8.4      1.693      1.847
REMARK  Name = 
REMARK  6 active torsions:
REMARK  status: ('A' for Active; 'I' for Inactive)
REMARK    1  A    between atoms: C_2  and  C_12
REMARK    2  A    between atoms: C_7  and  C_8
REMARK    3  A    between atoms: C_16  and  S_17
REMARK    4  A    between atoms: S_17  and  N_20
REMARK    5  A    between atoms: N_20  and  C_21
REMARK    6  A    between atoms: C_24  and  N_25
REMARK                            x       y       z     vdW  Elec       q    Type
REMARK                         _______ _______ _______ _____ _____    ______ ____
ROOT
ATOM      1  C   UNL     1       2.566   6.384  19.779  0.00  0.00    +0.000 A 
ATOM      2  C   UNL     1       1.854   5.192  19.986  0.00  0.00    +0.000 A 
ATOM      3  C   UNL     1       2.486   3.957  19.853  0.00  0.00    +0.000 A 
ATOM      4  C   UNL     1       3.839   3.901  19.521  0.00  0.00    +0.000 A 
ATOM      5  C   UNL     1       4.554   5.090  19.334  0.00  0.00    +0.000 A 
ATOM      6  C   UNL     1       3.923   6.339  19.447  0.00  0.00    +0.000 A 
ENDROOT
BRANCH   1   8
ATOM      7  O   UNL     1       1.725   8.403  19.041  0.00  0.00    +0.000 OA
ATOM      8  C   UNL     1       1.852   7.663  20.012  0.00  0.00    +0.000 C 
ATOM      9  N   UNL     1       1.444   7.907  21.302  0.00  0.00    +0.000 N 
ATOM     10  C   UNL     1       0.769   9.040  21.704  0.00  0.00    +0.000 A 
ATOM     11  N   UNL     1       0.626   9.389  22.966  0.00  0.00    +0.000 NA
ATOM     12  N   UNL     1      -0.040  10.600  23.095  0.00  0.00    +0.000 NA
ATOM     13  C   UNL     1      -0.404  11.080  21.925  0.00  0.00    +0.000 A 
ATOM     14  S   UNL     1      -0.014  10.080  20.600  0.00  0.00    +0.000 S 
ATOM     15  H   UNL     1       1.791   7.344  22.068  0.00  0.00    +0.000 HD
BRANCH  13  16
ATOM     16  C   UNL     1      -1.104  12.422  21.731  0.00  0.00    +0.000 C 
ATOM     17  C   UNL     1      -2.584  12.511  22.035  0.00  0.00    +0.000 C 
ATOM     18  C   UNL     1      -2.119  12.571  20.621  0.00  0.00    +0.000 C 
ENDBRANCH  13  16
ENDBRANCH   1   8
BRANCH   5  19
ATOM     19  S   UNL     1       6.269   5.017  18.855  0.00  0.00    +0.000 S 
ATOM     20  O   UNL     1       7.049   5.647  19.895  0.00  0.00    +0.000 OA
ATOM     21  O   UNL     1       6.523   3.653  18.438  0.00  0.00    +0.000 OA
BRANCH  19  22
ATOM     22  N   UNL     1       6.330   5.952  17.462  0.00  0.00    +0.000 N 
ATOM     23  H   UNL     1       6.840   6.828  17.557  0.00  0.00    +0.000 HD
BRANCH  22  24
ATOM     24  C   UNL     1       6.218   5.353  16.184  0.00  0.00    +0.000 A 
ATOM     25  C   UNL     1       7.347   5.246  15.369  0.00  0.00    +0.000 A 
ATOM     26  C   UNL     1       7.255   4.616  14.123  0.00  0.00    +0.000 A 
ATOM     27  C   UNL     1       6.018   4.115  13.695  0.00  0.00    +0.000 A 
ATOM     28  C   UNL     1       4.880   4.243  14.505  0.00  0.00    +0.000 A 
ATOM     29  C   UNL     1       4.987   4.859  15.755  0.00  0.00    +0.000 A 
BRANCH  27  30
ATOM     30  N   UNL     1       5.912   3.442  12.394  0.00  0.00    +0.000 N 
ATOM     31  O   UNL     1       4.779   3.292  11.913  0.00  0.00    +0.000 OA
ATOM     32  O   UNL     1       6.962   3.068  11.852  0.00  0.00    +0.000 OA
ENDBRANCH  27  30
ENDBRANCH  22  24
ENDBRANCH  19  22
ENDBRANCH   5  19
TORSDOF 6
ENDMDL
MODEL 8
REMARK VINA RESULT:      -8.4      1.785      2.215
REMARK  Name = 
REMARK  6 active torsions:
REMARK  status: ('A' for Active; 'I' for Inactive)
REMARK    1  A    between atoms: C_2  and  C_12
REMARK    2  A    between atoms: C_7  and  C_8
REMARK    3  A    between atoms: C_16  and  S_17
REMARK    4  A    between atoms: S_17  and  N_20
REMARK    5  A    between atoms: N_20  and  C_21
REMARK    6  A    between atoms: C_24  and  N_25
REMARK                            x       y       z     vdW  Elec       q    Type
REMARK                         _______ _______ _______ _____ _____    ______ ____
ROOT
ATOM      1  C   UNL     1       2.567   6.403  19.772  0.00  0.00    +0.000 A 
ATOM      2  C   UNL     1       1.836   5.220  19.964  0.00  0.00    +0.000 A 
ATOM      3  C   UNL     1       2.449   3.977  19.814  0.00  0.00    +0.000 A 
ATOM      4  C   UNL     1       3.801   3.906  19.482  0.00  0.00    +0.000 A 
ATOM      5  C   UNL     1       4.534   5.085  19.310  0.00  0.00    +0.000 A 
ATOM      6  C   UNL     1       3.923   6.342  19.440  0.00  0.00    +0.000 A 
ENDROOT
BRANCH   1   8
ATOM      7  O   UNL     1       1.787   8.460  19.070  0.00  0.00    +0.000 OA
ATOM      8  C   UNL     1       1.872   7.691  20.022  0.00  0.00    +0.000 C 
ATOM      9  N   UNL     1       1.434   7.907  21.308  0.00  0.00    +0.000 N 
ATOM     10  C   UNL     1       0.770   9.042  21.722  0.00  0.00    +0.000 A 
ATOM     11  N   UNL     1       0.600   9.359  22.990  0.00  0.00    +0.000 NA
ATOM     12  N   UNL     1      -0.045  10.579  23.135  0.00  0.00    +0.000 NA
ATOM     13  C   UNL     1      -0.367  11.099  21.970  0.00  0.00    +0.000 A 
ATOM     14  S   UNL     1       0.039  10.128  20.628  0.00  0.00    +0.000 S 
ATOM     15  H   UNL     1       1.748   7.316  22.066  0.00  0.00    +0.000 HD
BRANCH  13  16
ATOM     16  C   UNL     1      -1.034  12.460  21.795  0.00  0.00    +0.000 C 
ATOM     17  C   UNL     1      -0.174  13.701  21.912  0.00  0.00    +0.000 C 
ATOM     18  C   UNL     1      -1.155  13.382  22.987  0.00  0.00    +0.000 C 
ENDBRANCH  13  16
ENDBRANCH   1   8
BRANCH   5  19
ATOM     19  S   UNL     1       6.248   4.993  18.830  0.00  0.00    +0.000 S 
ATOM     20  O   UNL     1       7.033   5.650  19.850  0.00  0.00    +0.000 OA
ATOM     21  O   UNL     1       6.496   3.616  18.454  0.00  0.00    +0.000 OA
BRANCH  19  22
ATOM     22  N   UNL     1       6.310   5.886  17.410  0.00  0.00    +0.000 N 
ATOM     23  H   UNL     1       6.803   6.774  17.485  0.00  0.00    +0.000 HD
BRANCH  22  24
ATOM     24  C   UNL     1       6.223   5.246  16.150  0.00  0.00    +0.000 A 
ATOM     25  C   UNL     1       5.025   4.643  15.761  0.00  0.00    +0.000 A 
ATOM     26  C   UNL     1       4.917   4.048  14.500  0.00  0.00    +0.000 A 
ATOM     27  C   UNL     1       6.026   4.044  13.643  0.00  0.00    +0.000 A 
ATOM     28  C   UNL     1       7.236   4.630  14.044  0.00  0.00    +0.000 A 
ATOM     29  C   UNL     1       7.328   5.237  15.299  0.00  0.00    +0.000 A 
BRANCH  27  30
ATOM     30  N   UNL     1       5.921   3.431  12.313  0.00  0.00    +0.000 N 
ATOM     31  O   UNL     1       4.793   3.337  11.808  0.00  0.00    +0.000 OA
ATOM     32  O   UNL     1       6.969   3.049  11.771  0.00  0.00    +0.000 OA
ENDBRANCH  27  30
ENDBRANCH  22  24
ENDBRANCH  19  22
ENDBRANCH   5  19
TORSDOF 6
ENDMDL
MODEL 9
REMARK VINA RESULT:      -8.4      3.229      4.689
REMARK  Name = 
REMARK  6 active torsions:
REMARK  status: ('A' for Active; 'I' for Inactive)
REMARK    1  A    between atoms: C_2  and  C_12
REMARK    2  A    between atoms: C_7  and  C_8
REMARK    3  A    between atoms: C_16  and  S_17
REMARK    4  A    between atoms: S_17  and  N_20
REMARK    5  A    between atoms: N_20  and  C_21
REMARK    6  A    between atoms: C_24  and  N_25
REMARK                            x       y       z     vdW  Elec       q    Type
REMARK                         _______ _______ _______ _____ _____    ______ ____
ROOT
ATOM      1  C   UNL     1       0.943   9.305  19.985  0.00  0.00    +0.000 A 
ATOM      2  C   UNL     1       1.288   9.988  18.808  0.00  0.00    +0.000 A 
ATOM      3  C   UNL     1       2.044   9.359  17.820  0.00  0.00    +0.000 A 
ATOM      4  C   UNL     1       2.454   8.038  17.995  0.00  0.00    +0.000 A 
ATOM      5  C   UNL     1       2.094   7.351  19.160  0.00  0.00    +0.000 A 
ATOM      6  C   UNL     1       1.349   7.980  20.170  0.00  0.00    +0.000 A 
ENDROOT
BRANCH   1   8
ATOM      7  O   UNL     1       0.104   9.596  22.116  0.00  0.00    +0.000 OA
ATOM      8  C   UNL     1       0.073  10.007  20.960  0.00  0.00    +0.000 C 
ATOM      9  N   UNL     1      -0.712  11.018  20.458  0.00  0.00    +0.000 N 
ATOM     10  C   UNL     1      -1.579  11.778  21.214  0.00  0.00    +0.000 A 
ATOM     11  N   UNL     1      -2.514  12.545  20.691  0.00  0.00    +0.000 NA
ATOM     12  N   UNL     1      -3.289  13.155  21.668  0.00  0.00    +0.000 NA
ATOM     13  C   UNL     1      -2.871  12.849  22.878  0.00  0.00    +0.000 A 
ATOM     14  S   UNL     1      -1.488  11.853  22.916  0.00  0.00    +0.000 S 
ATOM     15  H   UNL     1      -0.832  11.130  19.460  0.00  0.00    +0.000 HD
BRANCH  13  16
ATOM     16  C   UNL     1      -3.551  13.316  24.162  0.00  0.00    +0.000 C 
ATOM     17  C   UNL     1      -4.662  12.463  24.738  0.00  0.00    +0.000 C 
ATOM     18  C   UNL     1      -4.992  13.773  24.110  0.00  0.00    +0.000 C 
ENDBRANCH  13  16
ENDBRANCH   1   8
BRANCH   5  19
ATOM     19  S   UNL     1       2.667   5.682  19.408  0.00  0.00    +0.000 S 
ATOM     20  O   UNL     1       2.365   5.304  20.770  0.00  0.00    +0.000 OA
ATOM     21  O   UNL     1       2.183   4.909  18.282  0.00  0.00    +0.000 OA
BRANCH  19  22
ATOM     22  N   UNL     1       4.331   5.802  19.213  0.00  0.00    +0.000 N 
ATOM     23  H   UNL     1       4.872   5.663  20.065  0.00  0.00    +0.000 HD
BRANCH  22  24
ATOM     24  C   UNL     1       4.932   5.536  17.960  0.00  0.00    +0.000 A 
ATOM     25  C   UNL     1       5.098   6.572  17.038  0.00  0.00    +0.000 A 
ATOM     26  C   UNL     1       5.732   6.327  15.816  0.00  0.00    +0.000 A 
ATOM     27  C   UNL     1       6.177   5.032  15.518  0.00  0.00    +0.000 A 
ATOM     28  C   UNL     1       5.990   3.988  16.435  0.00  0.00    +0.000 A 
ATOM     29  C   UNL     1       5.371   4.247  17.661  0.00  0.00    +0.000 A 
BRANCH  27  30
ATOM     30  N   UNL     1       6.854   4.766  14.242  0.00  0.00    +0.000 N 
ATOM     31  O   UNL     1       6.383   3.880  13.513  0.00  0.00    +0.000 OA
ATOM     32  O   UNL     1       7.852   5.447  13.967  0.00  0.00    +0.000 OA
ENDBRANCH  27  30
ENDBRANCH  22  24
ENDBRANCH  19  22
ENDBRANCH   5  19
TORSDOF 6
ENDMDL
