MODEL 1
REMARK VINA RESULT:      -8.8      0.000      0.000
REMARK  Name = 
REMARK  6 active torsions:
REMARK  status: ('A' for Active; 'I' for Inactive)
REMARK    1  A    between atoms: C_2  and  C_4
REMARK    2  A    between atoms: C_8  and  O_9
REMARK    3  A    between atoms: O_9  and  C_10
REMARK    4  A    between atoms: C_13  and  N_14
REMARK    5  A    between atoms: C_15  and  C_17
REMARK    6  A    between atoms: C_17  and  C_18
REMARK                            x       y       z     vdW  Elec       q    Type
REMARK                         _______ _______ _______ _____ _____    ______ ____
ROOT
ATOM      1  C   UNL     1       5.338   4.659  17.145  0.00  0.00    +0.000 A 
ATOM      2  C   UNL     1       4.620   5.756  17.603  0.00  0.00    +0.000 A 
ATOM      3  C   UNL     1       5.260   7.003  17.655  0.00  0.00    +0.000 A 
ATOM      4  C   UNL     1       6.583   7.101  17.215  0.00  0.00    +0.000 A 
ATOM      5  C   UNL     1       7.228   5.930  16.835  0.00  0.00    +0.000 A 
ATOM      6  N   UNL     1       6.648   4.715  16.839  0.00  0.00    +0.000 NA
ENDROOT
BRANCH   4   7
ATOM      7  N   UNL     1       7.252   8.335  17.193  0.00  0.00    +0.000 N 
ATOM      8  C   UNL     1       8.230   8.672  18.120  0.00  0.00    +0.000 C 
ATOM      9  O   UNL     1       8.667   7.914  18.983  0.00  0.00    +0.000 OA
ATOM     10  H   UNL     1       7.007   8.984  16.458  0.00  0.00    +0.000 HD
BRANCH   8  11
ATOM     11  C   UNL     1       8.756  10.093  17.950  0.00  0.00    +0.000 C 
BRANCH  11  12
ATOM     12  C   UNL     1       9.848  10.395  18.978  0.00  0.00    +0.000 C 
ATOM     13  C   UNL     1       9.311  11.006  20.291  0.00  0.00    +0.000 C 
ATOM     14  C   UNL     1      10.145  12.286  20.446  0.00  0.00    +0.000 C 
ATOM     15  C   UNL     1       9.681  13.302  19.388  0.00  0.00    +0.000 C 
ATOM     16  C   UNL     1      10.303  12.762  18.093  0.00  0.00    +0.000 C 
ATOM     17  C   UNL     1      10.925  11.429  18.543  0.00  0.00    +0.000 C 
ATOM     18  C   UNL     1      11.503  11.843  19.901  0.00  0.00    +0.000 C 
ENDBRANCH  11  12
ENDBRANCH   8  11
ENDBRANCH   4   7
BRANCH   1  19
ATOM     19  O   UNL     1       4.668   3.451  16.979  0.00  0.00    +0.000 OA
BRANCH  19  24
ATOM     20  C   UNL     1       2.597   2.778  19.928  0.00  0.00    +0.000 A 
ATOM     21  C   UNL     1       1.301   2.908  19.418  0.00  0.00    +0.000 A 
ATOM     22  C   UNL     1       1.116   3.198  18.068  0.00  0.00    +0.000 A 
ATOM     23  C   UNL     1       2.223   3.368  17.236  0.00  0.00    +0.000 A 
ATOM     24  C   UNL     1       3.533   3.245  17.727  0.00  0.00    +0.000 A 
ATOM     25  C   UNL     1       3.711   2.954  19.091  0.00  0.00    +0.000 A 
BRANCH  20  27
ATOM     26  N   UNL     1       1.874   2.921  22.258  0.00  0.00    +0.000 N 
ATOM     27  C   UNL     1       2.831   2.502  21.373  0.00  0.00    +0.000 C 
ATOM     28  O   UNL     1       3.831   1.917  21.756  0.00  0.00    +0.000 OA
ATOM     29  H   UNL     1       2.013   2.648  23.220  0.00  0.00    +0.000 HD
ATOM     30  H   UNL     1       0.936   3.160  21.964  0.00  0.00    +0.000 HD
ENDBRANCH  20  27
ENDBRANCH  19  24
ENDBRANCH   1  19
TORSDOF 6
ENDMDL
MODEL 2
REMARK VINA RESULT:      -8.6      2.059      2.707
REMARK  Name = 
REMARK  6 active torsions:
REMARK  status: ('A' for Active; 'I' for Inactive)
REMARK    1  A    between atoms: C_2  and  C_4
REMARK    2  A    between atoms: C_8  and  O_9
REMARK    3  A    between atoms: O_9  and  C_10
REMARK    4  A    between atoms: C_13  and  N_14
REMARK    5  A    between atoms: C_15  and  C_17
REMARK    6  A    between atoms: C_17  and  C_18
REMARK                            x       y       z     vdW  Elec       q    Type
REMARK                         _______ _______ _______ _____ _____    ______ ____
ROOT
ATOM      1  C   UNL     1       6.495   5.366  17.243  0.00  0.00    +0.000 A 
ATOM      2  C   UNL     1       7.105   5.104  18.462  0.00  0.00    +0.000 A 
ATOM      3  C   UNL     1       7.918   6.093  19.034  0.00  0.00    +0.000 A 
ATOM      4  C   UNL     1       8.058   7.317  18.371  0.00  0.00    +0.000 A 
ATOM      5  C   UNL     1       7.455   7.452  17.126  0.00  0.00    +0.000 A 
ATOM      6  N   UNL     1       6.724   6.489  16.535  0.00  0.00    +0.000 NA
ENDROOT
BRANCH   4   7
ATOM      7  N   UNL     1       8.814   8.360  18.926  0.00  0.00    +0.000 N 
ATOM      8  C   UNL     1       8.669   9.683  18.529  0.00  0.00    +0.000 C 
ATOM      9  O   UNL     1       7.824  10.086  17.732  0.00  0.00    +0.000 OA
ATOM     10  H   UNL     1       9.475   8.120  19.653  0.00  0.00    +0.000 HD
BRANCH   8  11
ATOM     11  C   UNL     1       9.653  10.628  19.209  0.00  0.00    +0.000 C 
BRANCH  11  12
ATOM     12  C   UNL     1      10.489  11.382  18.172  0.00  0.00    +0.000 C 
ATOM     13  C   UNL     1      11.957  11.601  18.601  0.00  0.00    +0.000 C 
ATOM     14  C   UNL     1      12.141  13.117  18.448  0.00  0.00    +0.000 C 
ATOM     15  C   UNL     1      11.356  13.820  19.569  0.00  0.00    +0.000 C 
ATOM     16  C   UNL     1       9.900  13.704  19.096  0.00  0.00    +0.000 C 
ATOM     17  C   UNL     1      10.018  12.825  17.839  0.00  0.00    +0.000 C 
ATOM     18  C   UNL     1      11.289  13.414  17.214  0.00  0.00    +0.000 C 
ENDBRANCH  11  12
ENDBRANCH   8  11
ENDBRANCH   4   7
BRANCH   1  19
ATOM     19  O   UNL     1       5.595   4.434  16.738  0.00  0.00    +0.000 OA
BRANCH  19  24
ATOM     20  C   UNL     1       2.647   5.568  18.597  0.00  0.00    +0.000 A 
ATOM     21  C   UNL     1       1.751   4.510  18.411  0.00  0.00    +0.000 A 
ATOM     22  C   UNL     1       2.146   3.393  17.678  0.00  0.00    +0.000 A 
ATOM     23  C   UNL     1       3.426   3.341  17.125  0.00  0.00    +0.000 A 
ATOM     24  C   UNL     1       4.340   4.393  17.297  0.00  0.00    +0.000 A 
ATOM     25  C   UNL     1       3.934   5.517  18.036  0.00  0.00    +0.000 A 
BRANCH  20  27
ATOM     26  N   UNL     1       1.942   6.646  20.674  0.00  0.00    +0.000 N 
ATOM     27  C   UNL     1       2.247   6.791  19.347  0.00  0.00    +0.000 C 
ATOM     28  O   UNL     1       2.201   7.884  18.805  0.00  0.00    +0.000 OA
ATOM     29  H   UNL     1       1.757   7.500  21.179  0.00  0.00    +0.000 HD
ATOM     30  H   UNL     1       2.221   5.832  21.204  0.00  0.00    +0.000 HD
ENDBRANCH  20  27
ENDBRANCH  19  24
ENDBRANCH   1  19
TORSDOF 6
ENDMDL
MODEL 3
REMARK VINA RESULT:      -8.4      1.713      2.220
REMARK  Name = 
REMARK  6 active torsions:
REMARK  status: ('A' for Active; 'I' for Inactive)
REMARK    1  A    between atoms: C_2  and  C_4
REMARK    2  A    between atoms: C_8  and  O_9
REMARK    3  A    between atoms: O_9  and  C_10
REMARK    4  A    between atoms: C_13  and  N_14
REMARK    5  A    between atoms: C_15  and  C_17
REMARK    6  A    between atoms: C_17  and  C_18
REMARK                            x       y       z     vdW  Elec       q    Type
REMARK                         _______ _______ _______ _____ _____    ______ ____
ROOT
ATOM      1  C   UNL     1       6.940   5.364  18.010  0.00  0.00    +0.000 A 
ATOM      2  C   UNL     1       7.815   5.879  18.956  0.00  0.00    +0.000 A 
ATOM      3  C   UNL     1       8.264   7.200  18.808  0.00  0.00    +0.000 A 
ATOM      4  C   UNL     1       7.788   7.957  17.733  0.00  0.00    +0.000 A 
ATOM      5  C   UNL     1       6.964   7.324  16.810  0.00  0.00    +0.000 A 
ATOM      6  N   UNL     1       6.575   6.039  16.904  0.00  0.00    +0.000 NA
ENDROOT
BRANCH   4   7
ATOM      7  N   UNL     1       8.161   9.299  17.570  0.00  0.00    +0.000 N 
ATOM      8  C   UNL     1       8.866  10.004  18.537  0.00  0.00    +0.000 C 
ATOM      9  O   UNL     1       9.306   9.516  19.576  0.00  0.00    +0.000 OA
ATOM     10  H   UNL     1       7.908   9.750  16.700  0.00  0.00    +0.000 HD
BRANCH   8  11
ATOM     11  C   UNL     1       9.086  11.469  18.175  0.00  0.00    +0.000 C 
BRANCH  11  12
ATOM     12  C   UNL     1      10.525  11.704  17.710  0.00  0.00    +0.000 C 
ATOM     13  C   UNL     1      11.558  11.684  18.858  0.00  0.00    +0.000 C 
ATOM     14  C   UNL     1      12.296  13.019  18.684  0.00  0.00    +0.000 C 
ATOM     15  C   UNL     1      11.349  14.158  19.103  0.00  0.00    +0.000 C 
ATOM     16  C   UNL     1      10.383  14.259  17.915  0.00  0.00    +0.000 C 
ATOM     17  C   UNL     1      10.804  13.073  17.030  0.00  0.00    +0.000 C 
ATOM     18  C   UNL     1      12.329  13.163  17.163  0.00  0.00    +0.000 C 
ENDBRANCH  11  12
ENDBRANCH   8  11
ENDBRANCH   4   7
BRANCH   1  19
ATOM     19  O   UNL     1       6.402   4.099  18.224  0.00  0.00    +0.000 OA
BRANCH  19  24
ATOM     20  C   UNL     1       2.982   4.360  19.517  0.00  0.00    +0.000 A 
ATOM     21  C   UNL     1       2.219   3.923  18.430  0.00  0.00    +0.000 A 
ATOM     22  C   UNL     1       2.854   3.510  17.261  0.00  0.00    +0.000 A 
ATOM     23  C   UNL     1       4.247   3.547  17.176  0.00  0.00    +0.000 A 
ATOM     24  C   UNL     1       5.033   3.985  18.254  0.00  0.00    +0.000 A 
ATOM     25  C   UNL     1       4.384   4.401  19.430  0.00  0.00    +0.000 A 
BRANCH  20  27
ATOM     26  N   UNL     1       1.983   6.162  20.830  0.00  0.00    +0.000 N 
ATOM     27  C   UNL     1       2.334   4.839  20.769  0.00  0.00    +0.000 C 
ATOM     28  O   UNL     1       2.115   4.085  21.702  0.00  0.00    +0.000 OA
ATOM     29  H   UNL     1       1.469   6.443  21.653  0.00  0.00    +0.000 HD
ATOM     30  H   UNL     1       1.905   6.737  20.003  0.00  0.00    +0.000 HD
ENDBRANCH  20  27
ENDBRANCH  19  24
ENDBRANCH   1  19
TORSDOF 6
ENDMDL
MODEL 4
REMARK VINA RESULT:      -8.4      0.826      1.119
REMARK  Name = 
REMARK  6 active torsions:
REMARK  status: ('A' for Active; 'I' for Inactive)
REMARK    1  A    between atoms: C_2  and  C_4
REMARK    2  A    between atoms: C_8  and  O_9
REMARK    3  A    between atoms: O_9  and  C_10
REMARK    4  A    between atoms: C_13  and  N_14
REMARK    5  A    between atoms: C_15  and  C_17
REMARK    6  A    between atoms: C_17  and  C_18
REMARK                            x       y       z     vdW  Elec       q    Type
REMARK                         _______ _______ _______ _____ _____    ______ ____
ROOT
ATOM      1  C   UNL     1       5.412   4.644  17.411  0.00  0.00    +0.000 A 
ATOM      2  C   UNL     1       6.688   4.705  16.870  0.00  0.00    +0.000 A 
ATOM      3  C   UNL     1       7.316   5.955  16.766  0.00  0.00    +0.000 A 
ATOM      4  C   UNL     1       6.646   7.087  17.240  0.00  0.00    +0.000 A 
ATOM      5  C   UNL     1       5.346   6.923  17.706  0.00  0.00    +0.000 A 
ATOM      6  N   UNL     1       4.707   5.740  17.753  0.00  0.00    +0.000 NA
ENDROOT
BRANCH   4   7
ATOM      7  N   UNL     1       7.250   8.353  17.212  0.00  0.00    +0.000 N 
ATOM      8  C   UNL     1       8.243   8.729  18.107  0.00  0.00    +0.000 C 
ATOM      9  O   UNL     1       8.751   7.984  18.943  0.00  0.00    +0.000 OA
ATOM     10  H   UNL     1       6.945   8.998  16.495  0.00  0.00    +0.000 HD
BRANCH   8  11
ATOM     11  C   UNL     1       8.690  10.177  17.938  0.00  0.00    +0.000 C 
BRANCH  11  12
ATOM     12  C   UNL     1       9.820  10.515  18.914  0.00  0.00    +0.000 C 
ATOM     13  C   UNL     1       9.366  11.381  20.110  0.00  0.00    +0.000 C 
ATOM     14  C   UNL     1      10.337  12.569  20.067  0.00  0.00    +0.000 C 
ATOM     15  C   UNL     1       9.976  13.451  18.858  0.00  0.00    +0.000 C 
ATOM     16  C   UNL     1      10.523  12.648  17.670  0.00  0.00    +0.000 C 
ATOM     17  C   UNL     1      10.998  11.342  18.328  0.00  0.00    +0.000 C 
ATOM     18  C   UNL     1      11.633  11.899  19.609  0.00  0.00    +0.000 C 
ENDBRANCH  11  12
ENDBRANCH   8  11
ENDBRANCH   4   7
BRANCH   1  19
ATOM     19  O   UNL     1       4.841   3.394  17.625  0.00  0.00    +0.000 OA
BRANCH  19  24
ATOM     20  C   UNL     1       2.167   3.228  20.126  0.00  0.00    +0.000 A 
ATOM     21  C   UNL     1       1.017   3.374  19.343  0.00  0.00    +0.000 A 
ATOM     22  C   UNL     1       1.134   3.502  17.961  0.00  0.00    +0.000 A 
ATOM     23  C   UNL     1       2.397   3.496  17.367  0.00  0.00    +0.000 A 
ATOM     24  C   UNL     1       3.566   3.355  18.134  0.00  0.00    +0.000 A 
ATOM     25  C   UNL     1       3.439   3.227  19.528  0.00  0.00    +0.000 A 
BRANCH  20  27
ATOM     26  N   UNL     1       1.319   2.107  22.125  0.00  0.00    +0.000 N 
ATOM     27  C   UNL     1       2.080   3.122  21.609  0.00  0.00    +0.000 C 
ATOM     28  O   UNL     1       2.669   3.902  22.339  0.00  0.00    +0.000 OA
ATOM     29  H   UNL     1       1.344   2.004  23.129  0.00  0.00    +0.000 HD
ATOM     30  H   UNL     1       1.046   1.305  21.573  0.00  0.00    +0.000 HD
ENDBRANCH  20  27
ENDBRANCH  19  24
ENDBRANCH   1  19
TORSDOF 6
ENDMDL
MODEL 5
REMARK VINA RESULT:      -8.4      1.798      2.483
REMARK  Name = 
REMARK  6 active torsions:
REMARK  status: ('A' for Active; 'I' for Inactive)
REMARK    1  A    between atoms: C_2  and  C_4
REMARK    2  A    between atoms: C_8  and  O_9
REMARK    3  A    between atoms: O_9  and  C_10
REMARK    4  A    between atoms: C_13  and  N_14
REMARK    5  A    between atoms: C_15  and  C_17
REMARK    6  A    between atoms: C_17  and  C_18
REMARK                            x       y       z     vdW  Elec       q    Type
REMARK                         _______ _______ _______ _____ _____    ______ ____
ROOT
ATOM      1  C   UNL     1       6.608   5.884  17.201  0.00  0.00    +0.000 A 
ATOM      2  C   UNL     1       7.303   5.458  18.324  0.00  0.00    +0.000 A 
ATOM      3  C   UNL     1       8.134   6.372  18.988  0.00  0.00    +0.000 A 
ATOM      4  C   UNL     1       8.206   7.685  18.513  0.00  0.00    +0.000 A 
ATOM      5  C   UNL     1       7.519   7.990  17.344  0.00  0.00    +0.000 A 
ATOM      6  N   UNL     1       6.767   7.107  16.660  0.00  0.00    +0.000 NA
ENDROOT
BRANCH   4   7
ATOM      7  N   UNL     1       8.978   8.654  19.172  0.00  0.00    +0.000 N 
ATOM      8  C   UNL     1       9.004   9.985  18.778  0.00  0.00    +0.000 C 
ATOM      9  O   UNL     1       8.305  10.466  17.888  0.00  0.00    +0.000 OA
ATOM     10  H   UNL     1       9.519   8.353  19.972  0.00  0.00    +0.000 HD
BRANCH   8  11
ATOM     11  C   UNL     1       9.977  10.835  19.589  0.00  0.00    +0.000 C 
BRANCH  11  12
ATOM     12  C   UNL     1      10.937  11.590  18.668  0.00  0.00    +0.000 C 
ATOM     13  C   UNL     1      12.258  12.003  19.355  0.00  0.00    +0.000 C 
ATOM     14  C   UNL     1      12.330  13.514  19.088  0.00  0.00    +0.000 C 
ATOM     15  C   UNL     1      11.268  14.214  19.954  0.00  0.00    +0.000 C 
ATOM     16  C   UNL     1       9.959  13.900  19.216  0.00  0.00    +0.000 C 
ATOM     17  C   UNL     1      10.416  12.941  18.103  0.00  0.00    +0.000 C 
ATOM     18  C   UNL     1      11.729  13.614  17.687  0.00  0.00    +0.000 C 
ENDBRANCH  11  12
ENDBRANCH   8  11
ENDBRANCH   4   7
BRANCH   1  19
ATOM     19  O   UNL     1       5.693   5.014  16.617  0.00  0.00    +0.000 OA
BRANCH  19  24
ATOM     20  C   UNL     1       2.864   3.462  18.357  0.00  0.00    +0.000 A 
ATOM     21  C   UNL     1       1.996   4.544  18.536  0.00  0.00    +0.000 A 
ATOM     22  C   UNL     1       2.346   5.800  18.046  0.00  0.00    +0.000 A 
ATOM     23  C   UNL     1       3.566   5.975  17.391  0.00  0.00    +0.000 A 
ATOM     24  C   UNL     1       4.455   4.904  17.203  0.00  0.00    +0.000 A 
ATOM     25  C   UNL     1       4.095   3.640  17.702  0.00  0.00    +0.000 A 
BRANCH  20  27
ATOM     26  N   UNL     1       3.275   1.055  18.441  0.00  0.00    +0.000 N 
ATOM     27  C   UNL     1       2.536   2.114  18.897  0.00  0.00    +0.000 C 
ATOM     28  O   UNL     1       1.650   1.956  19.721  0.00  0.00    +0.000 OA
ATOM     29  H   UNL     1       3.092   0.167  18.883  0.00  0.00    +0.000 HD
ATOM     30  H   UNL     1       4.166   1.180  17.978  0.00  0.00    +0.000 HD
ENDBRANCH  20  27
ENDBRANCH  19  24
ENDBRANCH   1  19
TORSDOF 6
ENDMDL
MODEL 6
REMARK VINA RESULT:      -8.3      2.035      2.560
REMARK  Name = 
REMARK  6 active torsions:
REMARK  status: ('A' for Active; 'I' for Inactive)
REMARK    1  A    between atoms: C_2  and  C_4
REMARK    2  A    between atoms: C_8  and  O_9
REMARK    3  A    between atoms: O_9  and  C_10
REMARK    4  A    between atoms: C_13  and  N_14
REMARK    5  A    between atoms: C_15  and  C_17
REMARK    6  A    between atoms: C_17  and  C_18
REMARK                            x       y       z     vdW  Elec       q    Type
REMARK                         _______ _______ _______ _____ _____    ______ ____
ROOT
ATOM      1  C   UNL     1       6.198   5.181  17.137  0.00  0.00    +0.000 A 
ATOM      2  C   UNL     1       6.918   4.811  18.266  0.00  0.00    +0.000 A 
ATOM      3  C   UNL     1       7.777   5.751  18.853  0.00  0.00    +0.000 A 
ATOM      4  C   UNL     1       7.853   7.033  18.299  0.00  0.00    +0.000 A 
ATOM      5  C   UNL     1       7.138   7.279  17.133  0.00  0.00    +0.000 A 
ATOM      6  N   UNL     1       6.358   6.368  16.522  0.00  0.00    +0.000 NA
ENDROOT
BRANCH   4   7
ATOM      7  N   UNL     1       8.654   8.028  18.880  0.00  0.00    +0.000 N 
ATOM      8  C   UNL     1       8.577   9.364  18.507  0.00  0.00    +0.000 C 
ATOM      9  O   UNL     1       7.759   9.822  17.712  0.00  0.00    +0.000 OA
ATOM     10  H   UNL     1       9.297   7.742  19.607  0.00  0.00    +0.000 HD
BRANCH   8  11
ATOM     11  C   UNL     1       9.601  10.247  19.213  0.00  0.00    +0.000 C 
BRANCH  11  12
ATOM     12  C   UNL     1       9.722  11.603  18.515  0.00  0.00    +0.000 C 
ATOM     13  C   UNL     1      10.993  11.740  17.647  0.00  0.00    +0.000 C 
ATOM     14  C   UNL     1      11.638  13.029  18.177  0.00  0.00    +0.000 C 
ATOM     15  C   UNL     1      12.216  12.746  19.575  0.00  0.00    +0.000 C 
ATOM     16  C   UNL     1      10.967  12.717  20.465  0.00  0.00    +0.000 C 
ATOM     17  C   UNL     1       9.818  12.842  19.449  0.00  0.00    +0.000 C 
ATOM     18  C   UNL     1      10.413  13.885  18.496  0.00  0.00    +0.000 C 
ENDBRANCH  11  12
ENDBRANCH   8  11
ENDBRANCH   4   7
BRANCH   1  19
ATOM     19  O   UNL     1       5.258   4.291  16.630  0.00  0.00    +0.000 OA
BRANCH  19  24
ATOM     20  C   UNL     1       2.471   5.204  18.829  0.00  0.00    +0.000 A 
ATOM     21  C   UNL     1       1.599   4.122  18.670  0.00  0.00    +0.000 A 
ATOM     22  C   UNL     1       1.958   3.063  17.840  0.00  0.00    +0.000 A 
ATOM     23  C   UNL     1       3.178   3.092  17.163  0.00  0.00    +0.000 A 
ATOM     24  C   UNL     1       4.067   4.170  17.305  0.00  0.00    +0.000 A 
ATOM     25  C   UNL     1       3.697   5.236  18.143  0.00  0.00    +0.000 A 
BRANCH  20  27
ATOM     26  N   UNL     1       2.341   7.619  19.176  0.00  0.00    +0.000 N 
ATOM     27  C   UNL     1       2.105   6.369  19.682  0.00  0.00    +0.000 C 
ATOM     28  O   UNL     1       1.604   6.219  20.784  0.00  0.00    +0.000 OA
ATOM     29  H   UNL     1       2.007   8.391  19.735  0.00  0.00    +0.000 HD
ATOM     30  H   UNL     1       2.498   7.781  18.190  0.00  0.00    +0.000 HD
ENDBRANCH  20  27
ENDBRANCH  19  24
ENDBRANCH   1  19
TORSDOF 6
ENDMDL
MODEL 7
REMARK VINA RESULT:      -8.2      1.550      1.788
REMARK  Name = 
REMARK  6 active torsions:
REMARK  status: ('A' for Active; 'I' for Inactive)
REMARK    1  A    between atoms: C_2  and  C_4
REMARK    2  A    between atoms: C_8  and  O_9
REMARK    3  A    between atoms: O_9  and  C_10
REMARK    4  A    between atoms: C_13  and  N_14
REMARK    5  A    between atoms: C_15  and  C_17
REMARK    6  A    between atoms: C_17  and  C_18
REMARK                            x       y       z     vdW  Elec       q    Type
REMARK                         _______ _______ _______ _____ _____    ______ ____
ROOT
ATOM      1  C   UNL     1       6.459   5.192  18.364  0.00  0.00    +0.000 A 
ATOM      2  C   UNL     1       5.755   6.037  17.516  0.00  0.00    +0.000 A 
ATOM      3  C   UNL     1       6.296   7.298  17.224  0.00  0.00    +0.000 A 
ATOM      4  C   UNL     1       7.537   7.642  17.769  0.00  0.00    +0.000 A 
ATOM      5  C   UNL     1       8.126   6.747  18.654  0.00  0.00    +0.000 A 
ATOM      6  N   UNL     1       7.590   5.561  18.995  0.00  0.00    +0.000 NA
ENDROOT
BRANCH   4   7
ATOM      7  N   UNL     1       8.149   8.867  17.464  0.00  0.00    +0.000 N 
ATOM      8  C   UNL     1       8.768   9.655  18.426  0.00  0.00    +0.000 C 
ATOM      9  O   UNL     1       8.920   9.332  19.602  0.00  0.00    +0.000 OA
ATOM     10  H   UNL     1       8.140   9.164  16.497  0.00  0.00    +0.000 HD
BRANCH   8  11
ATOM     11  C   UNL     1       9.289  10.979  17.877  0.00  0.00    +0.000 C 
BRANCH  11  12
ATOM     12  C   UNL     1      10.422  11.522  18.750  0.00  0.00    +0.000 C 
ATOM     13  C   UNL     1      10.019  12.752  19.593  0.00  0.00    +0.000 C 
ATOM     14  C   UNL     1      11.089  13.789  19.226  0.00  0.00    +0.000 C 
ATOM     15  C   UNL     1      10.832  14.269  17.787  0.00  0.00    +0.000 C 
ATOM     16  C   UNL     1      11.333  13.094  16.936  0.00  0.00    +0.000 C 
ATOM     17  C   UNL     1      11.680  12.031  17.992  0.00  0.00    +0.000 C 
ATOM     18  C   UNL     1      12.332  12.914  19.063  0.00  0.00    +0.000 C 
ENDBRANCH  11  12
ENDBRANCH   8  11
ENDBRANCH   4   7
BRANCH   1  19
ATOM     19  O   UNL     1       5.982   3.899  18.556  0.00  0.00    +0.000 OA
BRANCH  19  24
ATOM     20  C   UNL     1       2.423   3.834  19.430  0.00  0.00    +0.000 A 
ATOM     21  C   UNL     1       1.829   3.422  18.232  0.00  0.00    +0.000 A 
ATOM     22  C   UNL     1       2.629   3.137  17.128  0.00  0.00    +0.000 A 
ATOM     23  C   UNL     1       4.015   3.275  17.218  0.00  0.00    +0.000 A 
ATOM     24  C   UNL     1       4.632   3.690  18.410  0.00  0.00    +0.000 A 
ATOM     25  C   UNL     1       3.818   3.977  19.520  0.00  0.00    +0.000 A 
BRANCH  20  27
ATOM     26  N   UNL     1       1.404   5.508  20.890  0.00  0.00    +0.000 N 
ATOM     27  C   UNL     1       1.596   4.179  20.620  0.00  0.00    +0.000 C 
ATOM     28  O   UNL     1       1.100   3.315  21.323  0.00  0.00    +0.000 OA
ATOM     29  H   UNL     1       0.772   5.716  21.649  0.00  0.00    +0.000 HD
ATOM     30  H   UNL     1       1.568   6.227  20.198  0.00  0.00    +0.000 HD
ENDBRANCH  20  27
ENDBRANCH  19  24
ENDBRANCH   1  19
TORSDOF 6
ENDMDL
MODEL 8
REMARK VINA RESULT:      -8.2      1.009      1.682
REMARK  Name = 
REMARK  6 active torsions:
REMARK  status: ('A' for Active; 'I' for Inactive)
REMARK    1  A    between atoms: C_2  and  C_4
REMARK    2  A    between atoms: C_8  and  O_9
REMARK    3  A    between atoms: O_9  and  C_10
REMARK    4  A    between atoms: C_13  and  N_14
REMARK    5  A    between atoms: C_15  and  C_17
REMARK    6  A    between atoms: C_17  and  C_18
REMARK                            x       y       z     vdW  Elec       q    Type
REMARK                         _______ _______ _______ _____ _____    ______ ____
ROOT
ATOM      1  C   UNL     1       5.481   4.531  17.319  0.00  0.00    +0.000 A 
ATOM      2  C   UNL     1       6.762   4.500  16.785  0.00  0.00    +0.000 A 
ATOM      3  C   UNL     1       7.694   5.455  17.218  0.00  0.00    +0.000 A 
ATOM      4  C   UNL     1       7.308   6.379  18.194  0.00  0.00    +0.000 A 
ATOM      5  C   UNL     1       5.984   6.361  18.615  0.00  0.00    +0.000 A 
ATOM      6  N   UNL     1       5.061   5.493  18.163  0.00  0.00    +0.000 NA
ENDROOT
BRANCH   4   7
ATOM      7  N   UNL     1       8.217   7.319  18.703  0.00  0.00    +0.000 N 
ATOM      8  C   UNL     1       8.239   8.643  18.282  0.00  0.00    +0.000 C 
ATOM      9  O   UNL     1       7.430   9.143  17.503  0.00  0.00    +0.000 OA
ATOM     10  H   UNL     1       8.864   7.004  19.413  0.00  0.00    +0.000 HD
BRANCH   8  11
ATOM     11  C   UNL     1       9.365   9.456  18.911  0.00  0.00    +0.000 C 
BRANCH  11  12
ATOM     12  C   UNL     1       9.266  10.928  18.503  0.00  0.00    +0.000 C 
ATOM     13  C   UNL     1      10.483  11.428  17.694  0.00  0.00    +0.000 C 
ATOM     14  C   UNL     1      10.937  12.666  18.480  0.00  0.00    +0.000 C 
ATOM     15  C   UNL     1      11.580  12.199  19.798  0.00  0.00    +0.000 C 
ATOM     16  C   UNL     1      10.368  11.802  20.651  0.00  0.00    +0.000 C 
ATOM     17  C   UNL     1       9.194  11.953  19.669  0.00  0.00    +0.000 C 
ATOM     18  C   UNL     1       9.604  13.245  18.952  0.00  0.00    +0.000 C 
ENDBRANCH  11  12
ENDBRANCH   8  11
ENDBRANCH   4   7
BRANCH   1  19
ATOM     19  O   UNL     1       4.597   3.512  16.980  0.00  0.00    +0.000 OA
BRANCH  19  24
ATOM     20  C   UNL     1       2.478   2.867  19.901  0.00  0.00    +0.000 A 
ATOM     21  C   UNL     1       1.205   3.197  19.424  0.00  0.00    +0.000 A 
ATOM     22  C   UNL     1       1.049   3.614  18.104  0.00  0.00    +0.000 A 
ATOM     23  C   UNL     1       2.162   3.711  17.269  0.00  0.00    +0.000 A 
ATOM     24  C   UNL     1       3.450   3.389  17.728  0.00  0.00    +0.000 A 
ATOM     25  C   UNL     1       3.600   2.970  19.061  0.00  0.00    +0.000 A 
BRANCH  20  27
ATOM     26  N   UNL     1       1.622   2.569  22.170  0.00  0.00    +0.000 N 
ATOM     27  C   UNL     1       2.685   2.450  21.315  0.00  0.00    +0.000 C 
ATOM     28  O   UNL     1       3.756   2.009  21.699  0.00  0.00    +0.000 OA
ATOM     29  H   UNL     1       1.761   2.201  23.100  0.00  0.00    +0.000 HD
ATOM     30  H   UNL     1       0.673   2.672  21.838  0.00  0.00    +0.000 HD
ENDBRANCH  20  27
ENDBRANCH  19  24
ENDBRANCH   1  19
TORSDOF 6
ENDMDL
MODEL 9
REMARK VINA RESULT:      -8.1      2.107      2.664
REMARK  Name = 
REMARK  6 active torsions:
REMARK  status: ('A' for Active; 'I' for Inactive)
REMARK    1  A    between atoms: C_2  and  C_4
REMARK    2  A    between atoms: C_8  and  O_9
REMARK    3  A    between atoms: O_9  and  C_10
REMARK    4  A    between atoms: C_13  and  N_14
REMARK    5  A    between atoms: C_15  and  C_17
REMARK    6  A    between atoms: C_17  and  C_18
REMARK                            x       y       z     vdW  Elec       q    Type
REMARK                         _______ _______ _______ _____ _____    ______ ____
ROOT
ATOM      1  C   UNL     1       6.407   5.202  18.268  0.00  0.00    +0.000 A 
ATOM      2  C   UNL     1       7.509   5.588  19.017  0.00  0.00    +0.000 A 
ATOM      3  C   UNL     1       8.115   6.822  18.735  0.00  0.00    +0.000 A 
ATOM      4  C   UNL     1       7.566   7.629  17.733  0.00  0.00    +0.000 A 
ATOM      5  C   UNL     1       6.500   7.118  17.002  0.00  0.00    +0.000 A 
ATOM      6  N   UNL     1       5.948   5.910  17.219  0.00  0.00    +0.000 NA
ENDROOT
BRANCH   4   7
ATOM      7  N   UNL     1       8.098   8.895  17.449  0.00  0.00    +0.000 N 
ATOM      8  C   UNL     1       8.767   9.657  18.399  0.00  0.00    +0.000 C 
ATOM      9  O   UNL     1       9.036   9.278  19.537  0.00  0.00    +0.000 OA
ATOM     10  H   UNL     1       7.992   9.243  16.505  0.00  0.00    +0.000 HD
BRANCH   8  11
ATOM     11  C   UNL     1       9.183  11.031  17.885  0.00  0.00    +0.000 C 
BRANCH  11  12
ATOM     12  C   UNL     1      10.356  11.583  18.698  0.00  0.00    +0.000 C 
ATOM     13  C   UNL     1       9.987  12.809  19.563  0.00  0.00    +0.000 C 
ATOM     14  C   UNL     1      11.027  13.856  19.142  0.00  0.00    +0.000 C 
ATOM     15  C   UNL     1      10.689  14.336  17.719  0.00  0.00    +0.000 C 
ATOM     16  C   UNL     1      11.155  13.166  16.841  0.00  0.00    +0.000 C 
ATOM     17  C   UNL     1      11.567  12.105  17.876  0.00  0.00    +0.000 C 
ATOM     18  C   UNL     1      12.267  12.993  18.911  0.00  0.00    +0.000 C 
ENDBRANCH  11  12
ENDBRANCH   8  11
ENDBRANCH   4   7
BRANCH   1  19
ATOM     19  O   UNL     1       5.735   4.038  18.628  0.00  0.00    +0.000 OA
BRANCH  19  24
ATOM     20  C   UNL     1       2.738   5.663  19.974  0.00  0.00    +0.000 A 
ATOM     21  C   UNL     1       2.048   4.589  20.546  0.00  0.00    +0.000 A 
ATOM     22  C   UNL     1       2.603   3.312  20.506  0.00  0.00    +0.000 A 
ATOM     23  C   UNL     1       3.836   3.109  19.886  0.00  0.00    +0.000 A 
ATOM     24  C   UNL     1       4.545   4.172  19.301  0.00  0.00    +0.000 A 
ATOM     25  C   UNL     1       3.977   5.458  19.345  0.00  0.00    +0.000 A 
BRANCH  20  27
ATOM     26  N   UNL     1       1.638   7.503  21.146  0.00  0.00    +0.000 N 
ATOM     27  C   UNL     1       2.158   7.035  19.969  0.00  0.00    +0.000 C 
ATOM     28  O   UNL     1       2.154   7.721  18.961  0.00  0.00    +0.000 OA
ATOM     29  H   UNL     1       1.330   8.465  21.140  0.00  0.00    +0.000 HD
ATOM     30  H   UNL     1       1.861   7.083  22.038  0.00  0.00    +0.000 HD
ENDBRANCH  20  27
ENDBRANCH  19  24
ENDBRANCH   1  19
TORSDOF 6
ENDMDL
