MODEL 1
REMARK VINA RESULT:     -10.1      0.000      0.000
REMARK  Name = 
REMARK  4 active torsions:
REMARK  status: ('A' for Active; 'I' for Inactive)
REMARK    1  A    between atoms: C_1  and  C_2
REMARK    2  A    between atoms: C_2  and  C_3
REMARK    3  A    between atoms: C_10  and  C_11
REMARK    4  A    between atoms: C_21  and  C_22
REMARK                            x       y       z     vdW  Elec       q    Type
REMARK                         _______ _______ _______ _____ _____    ______ ____
ROOT
ATOM      1  C   UNL     1       2.142   8.193  18.382  0.00  0.00    +0.000 C 
ATOM      2  O   UNL     1       2.351   8.635  17.251  0.00  0.00    +0.000 OA
ATOM      3  N   UNL     1       2.723   7.009  18.843  0.00  0.00    +0.000 N 
ATOM      4  C   UNL     1       2.658   6.459  20.204  0.00  0.00    +0.000 C 
ATOM      5  C   UNL     1       1.828   5.174  20.221  0.00  0.00    +0.000 C 
ATOM      6  N   UNL     1       2.137   4.330  19.079  0.00  0.00    +0.000 N 
ATOM      7  C   UNL     1       1.783   3.018  18.939  0.00  0.00    +0.000 A 
ATOM      8  C   UNL     1       2.243   2.590  17.713  0.00  0.00    +0.000 A 
ATOM      9  C   UNL     1       2.882   3.690  17.090  0.00  0.00    +0.000 A 
ATOM     10  C   UNL     1       2.818   4.761  17.964  0.00  0.00    +0.000 A 
ATOM     11  C   UNL     1       3.425   6.147  17.871  0.00  0.00    +0.000 C 
ENDROOT
BRANCH   1  19
ATOM     12  C   UNL     1      -2.103  12.287  21.819  0.00  0.00    +0.000 C 
ATOM     13  O   UNL     1      -2.624  12.692  22.862  0.00  0.00    +0.000 OA
ATOM     14  N   UNL     1      -1.172  11.266  21.842  0.00  0.00    +0.000 N 
ATOM     15  C   UNL     1      -0.933  10.562  23.116  0.00  0.00    +0.000 C 
ATOM     16  C   UNL     1       0.159   9.528  22.870  0.00  0.00    +0.000 C 
ATOM     17  C   UNL     1       0.268   9.559  21.380  0.00  0.00    +0.000 A 
ATOM     18  C   UNL     1       1.028   8.701  20.602  0.00  0.00    +0.000 A 
ATOM     19  C   UNL     1       1.234   8.998  19.255  0.00  0.00    +0.000 A 
ATOM     20  C   UNL     1       0.526  10.073  18.689  0.00  0.00    +0.000 A 
ATOM     21  C   UNL     1      -0.322  10.880  19.469  0.00  0.00    +0.000 A 
ATOM     22  C   UNL     1      -0.436  10.628  20.827  0.00  0.00    +0.000 A 
BRANCH  12  24
ATOM     23  C   UNL     1      -3.951  12.678  20.143  0.00  0.00    +0.000 C 
ATOM     24  C   UNL     1      -2.485  12.884  20.482  0.00  0.00    +0.000 C 
ENDBRANCH  12  24
ENDBRANCH   1  19
BRANCH  11  25
ATOM     25  C   UNL     1       4.940   6.125  18.105  0.00  0.00    +0.000 A 
ATOM     26  C   UNL     1       5.786   6.889  17.287  0.00  0.00    +0.000 A 
ATOM     27  C   UNL     1       7.171   6.865  17.477  0.00  0.00    +0.000 A 
ATOM     28  C   UNL     1       7.732   6.098  18.497  0.00  0.00    +0.000 A 
ATOM     29  C   UNL     1       6.909   5.345  19.331  0.00  0.00    +0.000 A 
ATOM     30  C   UNL     1       5.528   5.357  19.130  0.00  0.00    +0.000 A 
ENDBRANCH  11  25
TORSDOF 3
ENDMDL
MODEL 2
REMARK VINA RESULT:      -9.9      0.308      1.016
REMARK  Name = 
REMARK  4 active torsions:
REMARK  status: ('A' for Active; 'I' for Inactive)
REMARK    1  A    between atoms: C_1  and  C_2
REMARK    2  A    between atoms: C_2  and  C_3
REMARK    3  A    between atoms: C_10  and  C_11
REMARK    4  A    between atoms: C_21  and  C_22
REMARK                            x       y       z     vdW  Elec       q    Type
REMARK                         _______ _______ _______ _____ _____    ______ ____
ROOT
ATOM      1  C   UNL     1       2.171   8.184  18.395  0.00  0.00    +0.000 C 
ATOM      2  O   UNL     1       2.364   8.634  17.265  0.00  0.00    +0.000 OA
ATOM      3  N   UNL     1       2.765   6.999  18.841  0.00  0.00    +0.000 N 
ATOM      4  C   UNL     1       2.719   6.441  20.199  0.00  0.00    +0.000 C 
ATOM      5  C   UNL     1       1.897   5.151  20.218  0.00  0.00    +0.000 C 
ATOM      6  N   UNL     1       2.196   4.316  19.067  0.00  0.00    +0.000 N 
ATOM      7  C   UNL     1       1.847   3.003  18.923  0.00  0.00    +0.000 A 
ATOM      8  C   UNL     1       2.294   2.586  17.688  0.00  0.00    +0.000 A 
ATOM      9  C   UNL     1       2.919   3.693  17.064  0.00  0.00    +0.000 A 
ATOM     10  C   UNL     1       2.861   4.758  17.946  0.00  0.00    +0.000 A 
ATOM     11  C   UNL     1       3.459   6.147  17.854  0.00  0.00    +0.000 C 
ENDROOT
BRANCH   1  19
ATOM     12  C   UNL     1      -2.033  12.245  21.919  0.00  0.00    +0.000 C 
ATOM     13  O   UNL     1      -2.554  12.629  22.969  0.00  0.00    +0.000 OA
ATOM     14  N   UNL     1      -1.118  11.210  21.919  0.00  0.00    +0.000 N 
ATOM     15  C   UNL     1      -0.898  10.467  23.174  0.00  0.00    +0.000 C 
ATOM     16  C   UNL     1       0.179   9.423  22.907  0.00  0.00    +0.000 C 
ATOM     17  C   UNL     1       0.299   9.494  21.419  0.00  0.00    +0.000 A 
ATOM     18  C   UNL     1       1.050   8.646  20.621  0.00  0.00    +0.000 A 
ATOM     19  C   UNL     1       1.270   8.978  19.285  0.00  0.00    +0.000 A 
ATOM     20  C   UNL     1       0.583  10.079  18.744  0.00  0.00    +0.000 A 
ATOM     21  C   UNL     1      -0.257  10.877  19.542  0.00  0.00    +0.000 A 
ATOM     22  C   UNL     1      -0.385  10.589  20.891  0.00  0.00    +0.000 A 
BRANCH  12  24
ATOM     23  C   UNL     1      -1.663  14.194  20.355  0.00  0.00    +0.000 C 
ATOM     24  C   UNL     1      -2.397  12.886  20.596  0.00  0.00    +0.000 C 
ENDBRANCH  12  24
ENDBRANCH   1  19
BRANCH  11  25
ATOM     25  C   UNL     1       4.976   6.133  18.069  0.00  0.00    +0.000 A 
ATOM     26  C   UNL     1       5.534   5.337  19.081  0.00  0.00    +0.000 A 
ATOM     27  C   UNL     1       6.914   5.327  19.301  0.00  0.00    +0.000 A 
ATOM     28  C   UNL     1       7.762   6.094  18.503  0.00  0.00    +0.000 A 
ATOM     29  C   UNL     1       7.232   6.879  17.481  0.00  0.00    +0.000 A 
ATOM     30  C   UNL     1       5.853   6.899  17.275  0.00  0.00    +0.000 A 
ENDBRANCH  11  25
TORSDOF 3
ENDMDL
MODEL 3
REMARK VINA RESULT:      -9.4      0.869      1.965
REMARK  Name = 
REMARK  4 active torsions:
REMARK  status: ('A' for Active; 'I' for Inactive)
REMARK    1  A    between atoms: C_1  and  C_2
REMARK    2  A    between atoms: C_2  and  C_3
REMARK    3  A    between atoms: C_10  and  C_11
REMARK    4  A    between atoms: C_21  and  C_22
REMARK                            x       y       z     vdW  Elec       q    Type
REMARK                         _______ _______ _______ _____ _____    ______ ____
ROOT
ATOM      1  C   UNL     1       2.406   8.096  17.817  0.00  0.00    +0.000 C 
ATOM      2  O   UNL     1       2.763   8.403  16.678  0.00  0.00    +0.000 OA
ATOM      3  N   UNL     1       2.904   6.971  18.479  0.00  0.00    +0.000 N 
ATOM      4  C   UNL     1       2.659   6.583  19.875  0.00  0.00    +0.000 C 
ATOM      5  C   UNL     1       1.811   5.310  19.934  0.00  0.00    +0.000 C 
ATOM      6  N   UNL     1       2.244   4.339  18.944  0.00  0.00    +0.000 N 
ATOM      7  C   UNL     1       1.887   3.021  18.912  0.00  0.00    +0.000 A 
ATOM      8  C   UNL     1       2.489   2.453  17.810  0.00  0.00    +0.000 A 
ATOM      9  C   UNL     1       3.220   3.470  17.151  0.00  0.00    +0.000 A 
ATOM     10  C   UNL     1       3.067   4.636  17.882  0.00  0.00    +0.000 A 
ATOM     11  C   UNL     1       3.705   5.999  17.708  0.00  0.00    +0.000 C 
ENDROOT
BRANCH   1  19
ATOM     12  C   UNL     1      -1.844  12.050  21.408  0.00  0.00    +0.000 C 
ATOM     13  O   UNL     1      -2.860  12.741  21.519  0.00  0.00    +0.000 OA
ATOM     14  N   UNL     1      -1.529  11.441  20.207  0.00  0.00    +0.000 N 
ATOM     15  C   UNL     1      -2.344  11.764  19.021  0.00  0.00    +0.000 C 
ATOM     16  C   UNL     1      -1.815  10.931  17.861  0.00  0.00    +0.000 C 
ATOM     17  C   UNL     1      -0.551  10.383  18.440  0.00  0.00    +0.000 A 
ATOM     18  C   UNL     1       0.411   9.658  17.755  0.00  0.00    +0.000 A 
ATOM     19  C   UNL     1       1.411   8.999  18.470  0.00  0.00    +0.000 A 
ATOM     20  C   UNL     1       1.509   9.229  19.854  0.00  0.00    +0.000 A 
ATOM     21  C   UNL     1       0.583  10.048  20.525  0.00  0.00    +0.000 A 
ATOM     22  C   UNL     1      -0.462  10.615  19.812  0.00  0.00    +0.000 A 
BRANCH  12  24
ATOM     23  C   UNL     1      -1.152  10.573  23.336  0.00  0.00    +0.000 C 
ATOM     24  C   UNL     1      -0.902  11.866  22.578  0.00  0.00    +0.000 C 
ENDBRANCH  12  24
ENDBRANCH   1  19
BRANCH  11  25
ATOM     25  C   UNL     1       5.179   6.000  18.132  0.00  0.00    +0.000 A 
ATOM     26  C   UNL     1       6.107   6.792  17.440  0.00  0.00    +0.000 A 
ATOM     27  C   UNL     1       7.457   6.788  17.804  0.00  0.00    +0.000 A 
ATOM     28  C   UNL     1       7.899   6.014  18.875  0.00  0.00    +0.000 A 
ATOM     29  C   UNL     1       6.991   5.233  19.587  0.00  0.00    +0.000 A 
ATOM     30  C   UNL     1       5.647   5.225  19.212  0.00  0.00    +0.000 A 
ENDBRANCH  11  25
TORSDOF 3
ENDMDL
MODEL 4
REMARK VINA RESULT:      -9.1      1.272      1.961
REMARK  Name = 
REMARK  4 active torsions:
REMARK  status: ('A' for Active; 'I' for Inactive)
REMARK    1  A    between atoms: C_1  and  C_2
REMARK    2  A    between atoms: C_2  and  C_3
REMARK    3  A    between atoms: C_10  and  C_11
REMARK    4  A    between atoms: C_21  and  C_22
REMARK                            x       y       z     vdW  Elec       q    Type
REMARK                         _______ _______ _______ _____ _____    ______ ____
ROOT
ATOM      1  C   UNL     1       1.923   8.647  18.260  0.00  0.00    +0.000 C 
ATOM      2  O   UNL     1       2.034   8.833  17.047  0.00  0.00    +0.000 OA
ATOM      3  N   UNL     1       2.409   7.497  18.889  0.00  0.00    +0.000 N 
ATOM      4  C   UNL     1       2.457   7.229  20.332  0.00  0.00    +0.000 C 
ATOM      5  C   UNL     1       1.484   6.107  20.699  0.00  0.00    +0.000 C 
ATOM      6  N   UNL     1       1.531   5.028  19.728  0.00  0.00    +0.000 N 
ATOM      7  C   UNL     1       1.002   3.780  19.898  0.00  0.00    +0.000 A 
ATOM      8  C   UNL     1       1.238   3.066  18.743  0.00  0.00    +0.000 A 
ATOM      9  C   UNL     1       1.920   3.921  17.845  0.00  0.00    +0.000 A 
ATOM     10  C   UNL     1       2.106   5.135  18.483  0.00  0.00    +0.000 A 
ATOM     11  C   UNL     1       2.862   6.374  18.045  0.00  0.00    +0.000 C 
ENDROOT
BRANCH   1  19
ATOM     12  C   UNL     1      -1.558  13.076  22.114  0.00  0.00    +0.000 C 
ATOM     13  O   UNL     1      -1.902  14.221  22.422  0.00  0.00    +0.000 OA
ATOM     14  N   UNL     1      -0.689  12.856  21.062  0.00  0.00    +0.000 N 
ATOM     15  C   UNL     1      -0.056  14.022  20.418  0.00  0.00    +0.000 C 
ATOM     16  C   UNL     1       0.808  13.503  19.276  0.00  0.00    +0.000 C 
ATOM     17  C   UNL     1       0.792  12.031  19.537  0.00  0.00    +0.000 A 
ATOM     18  C   UNL     1       1.542  11.078  18.867  0.00  0.00    +0.000 A 
ATOM     19  C   UNL     1       1.246   9.727  19.041  0.00  0.00    +0.000 A 
ATOM     20  C   UNL     1       0.301   9.366  20.018  0.00  0.00    +0.000 A 
ATOM     21  C   UNL     1      -0.386  10.342  20.763  0.00  0.00    +0.000 A 
ATOM     22  C   UNL     1      -0.147  11.683  20.506  0.00  0.00    +0.000 A 
BRANCH  12  24
ATOM     23  C   UNL     1      -3.298  12.198  23.720  0.00  0.00    +0.000 C 
ATOM     24  C   UNL     1      -2.063  11.881  22.894  0.00  0.00    +0.000 C 
ENDBRANCH  12  24
ENDBRANCH   1  19
BRANCH  11  25
ATOM     25  C   UNL     1       4.381   6.173  18.117  0.00  0.00    +0.000 A 
ATOM     26  C   UNL     1       5.218   6.820  17.196  0.00  0.00    +0.000 A 
ATOM     27  C   UNL     1       6.603   6.632  17.238  0.00  0.00    +0.000 A 
ATOM     28  C   UNL     1       7.176   5.814  18.210  0.00  0.00    +0.000 A 
ATOM     29  C   UNL     1       6.365   5.175  19.145  0.00  0.00    +0.000 A 
ATOM     30  C   UNL     1       4.982   5.351  19.091  0.00  0.00    +0.000 A 
ENDBRANCH  11  25
TORSDOF 3
ENDMDL
MODEL 5
REMARK VINA RESULT:      -9.0      2.621      8.165
REMARK  Name = 
REMARK  4 active torsions:
REMARK  status: ('A' for Active; 'I' for Inactive)
REMARK    1  A    between atoms: C_1  and  C_2
REMARK    2  A    between atoms: C_2  and  C_3
REMARK    3  A    between atoms: C_10  and  C_11
REMARK    4  A    between atoms: C_21  and  C_22
REMARK                            x       y       z     vdW  Elec       q    Type
REMARK                         _______ _______ _______ _____ _____    ______ ____
ROOT
ATOM      1  C   UNL     1       1.226   9.142  20.564  0.00  0.00    +0.000 C 
ATOM      2  O   UNL     1       1.344   9.369  21.770  0.00  0.00    +0.000 OA
ATOM      3  N   UNL     1       0.713  10.087  19.671  0.00  0.00    +0.000 N 
ATOM      4  C   UNL     1       0.651   9.982  18.207  0.00  0.00    +0.000 C 
ATOM      5  C   UNL     1      -0.801   9.862  17.742  0.00  0.00    +0.000 C 
ATOM      6  N   UNL     1      -1.667  10.772  18.471  0.00  0.00    +0.000 N 
ATOM      7  C   UNL     1      -2.945  11.108  18.122  0.00  0.00    +0.000 A 
ATOM      8  C   UNL     1      -3.425  11.974  19.080  0.00  0.00    +0.000 A 
ATOM      9  C   UNL     1      -2.404  12.152  20.044  0.00  0.00    +0.000 A 
ATOM     10  C   UNL     1      -1.311  11.406  19.639  0.00  0.00    +0.000 A 
ATOM     11  C   UNL     1       0.084  11.305  20.222  0.00  0.00    +0.000 C 
ENDROOT
BRANCH   1  19
ATOM     12  C   UNL     1       3.479   3.309  17.828  0.00  0.00    +0.000 C 
ATOM     13  O   UNL     1       3.560   2.078  17.795  0.00  0.00    +0.000 OA
ATOM     14  N   UNL     1       2.741   3.945  18.809  0.00  0.00    +0.000 N 
ATOM     15  C   UNL     1       2.186   3.133  19.907  0.00  0.00    +0.000 C 
ATOM     16  C   UNL     1       1.391   4.066  20.811  0.00  0.00    +0.000 C 
ATOM     17  C   UNL     1       1.784   5.405  20.276  0.00  0.00    +0.000 A 
ATOM     18  C   UNL     1       1.452   6.631  20.828  0.00  0.00    +0.000 A 
ATOM     19  C   UNL     1       1.671   7.796  20.092  0.00  0.00    +0.000 A 
ATOM     20  C   UNL     1       2.376   7.701  18.879  0.00  0.00    +0.000 A 
ATOM     21  C   UNL     1       2.795   6.457  18.375  0.00  0.00    +0.000 A 
ATOM     22  C   UNL     1       2.481   5.302  19.073  0.00  0.00    +0.000 A 
BRANCH  12  24
ATOM     23  C   UNL     1       5.666   4.374  17.150  0.00  0.00    +0.000 C 
ATOM     24  C   UNL     1       4.202   4.159  16.806  0.00  0.00    +0.000 C 
ENDBRANCH  12  24
ENDBRANCH   1  19
BRANCH  11  25
ATOM     25  C   UNL     1       0.915  12.562  19.939  0.00  0.00    +0.000 A 
ATOM     26  C   UNL     1       2.048  12.844  20.718  0.00  0.00    +0.000 A 
ATOM     27  C   UNL     1       2.804  13.996  20.483  0.00  0.00    +0.000 A 
ATOM     28  C   UNL     1       2.457  14.873  19.457  0.00  0.00    +0.000 A 
ATOM     29  C   UNL     1       1.347  14.603  18.660  0.00  0.00    +0.000 A 
ATOM     30  C   UNL     1       0.583  13.462  18.907  0.00  0.00    +0.000 A 
ENDBRANCH  11  25
TORSDOF 3
ENDMDL
MODEL 6
REMARK VINA RESULT:      -8.9      2.637      8.327
REMARK  Name = 
REMARK  4 active torsions:
REMARK  status: ('A' for Active; 'I' for Inactive)
REMARK    1  A    between atoms: C_1  and  C_2
REMARK    2  A    between atoms: C_2  and  C_3
REMARK    3  A    between atoms: C_10  and  C_11
REMARK    4  A    between atoms: C_21  and  C_22
REMARK                            x       y       z     vdW  Elec       q    Type
REMARK                         _______ _______ _______ _____ _____    ______ ____
ROOT
ATOM      1  C   UNL     1       1.056   9.699  20.747  0.00  0.00    +0.000 C 
ATOM      2  O   UNL     1       1.280   9.964  21.929  0.00  0.00    +0.000 OA
ATOM      3  N   UNL     1       0.453  10.610  19.876  0.00  0.00    +0.000 N 
ATOM      4  C   UNL     1       0.261  10.459  18.427  0.00  0.00    +0.000 C 
ATOM      5  C   UNL     1      -1.225  10.311  18.098  0.00  0.00    +0.000 C 
ATOM      6  N   UNL     1      -2.033  11.235  18.875  0.00  0.00    +0.000 N 
ATOM      7  C   UNL     1      -3.341  11.547  18.633  0.00  0.00    +0.000 A 
ATOM      8  C   UNL     1      -3.744  12.438  19.604  0.00  0.00    +0.000 A 
ATOM      9  C   UNL     1      -2.642  12.656  20.466  0.00  0.00    +0.000 A 
ATOM     10  C   UNL     1      -1.581  11.908  19.987  0.00  0.00    +0.000 A 
ATOM     11  C   UNL     1      -0.138  11.838  20.444  0.00  0.00    +0.000 C 
ENDROOT
BRANCH   1  19
ATOM     12  C   UNL     1       2.686   3.255  19.193  0.00  0.00    +0.000 C 
ATOM     13  O   UNL     1       3.289   2.413  18.522  0.00  0.00    +0.000 OA
ATOM     14  N   UNL     1       2.831   4.605  18.932  0.00  0.00    +0.000 N 
ATOM     15  C   UNL     1       3.591   5.011  17.736  0.00  0.00    +0.000 C 
ATOM     16  C   UNL     1       3.633   6.534  17.714  0.00  0.00    +0.000 C 
ATOM     17  C   UNL     1       2.650   6.873  18.787  0.00  0.00    +0.000 A 
ATOM     18  C   UNL     1       2.192   8.143  19.099  0.00  0.00    +0.000 A 
ATOM     19  C   UNL     1       1.474   8.342  20.278  0.00  0.00    +0.000 A 
ATOM     20  C   UNL     1       1.094   7.218  21.031  0.00  0.00    +0.000 A 
ATOM     21  C   UNL     1       1.483   5.920  20.651  0.00  0.00    +0.000 A 
ATOM     22  C   UNL     1       2.280   5.753  19.529  0.00  0.00    +0.000 A 
BRANCH  12  24
ATOM     23  C   UNL     1       2.478   2.623  21.629  0.00  0.00    +0.000 C 
ATOM     24  C   UNL     1       1.756   2.833  20.310  0.00  0.00    +0.000 C 
ENDBRANCH  12  24
ENDBRANCH   1  19
BRANCH  11  25
ATOM     25  C   UNL     1       0.649  13.094  20.049  0.00  0.00    +0.000 A 
ATOM     26  C   UNL     1       1.956  13.279  20.522  0.00  0.00    +0.000 A 
ATOM     27  C   UNL     1       2.679  14.428  20.185  0.00  0.00    +0.000 A 
ATOM     28  C   UNL     1       2.119  15.398  19.356  0.00  0.00    +0.000 A 
ATOM     29  C   UNL     1       0.828  15.226  18.861  0.00  0.00    +0.000 A 
ATOM     30  C   UNL     1       0.102  14.087  19.212  0.00  0.00    +0.000 A 
ENDBRANCH  11  25
TORSDOF 3
ENDMDL
MODEL 7
REMARK VINA RESULT:      -8.8      2.587      9.100
REMARK  Name = 
REMARK  4 active torsions:
REMARK  status: ('A' for Active; 'I' for Inactive)
REMARK    1  A    between atoms: C_1  and  C_2
REMARK    2  A    between atoms: C_2  and  C_3
REMARK    3  A    between atoms: C_10  and  C_11
REMARK    4  A    between atoms: C_21  and  C_22
REMARK                            x       y       z     vdW  Elec       q    Type
REMARK                         _______ _______ _______ _____ _____    ______ ____
ROOT
ATOM      1  C   UNL     1      -0.169  10.629  19.397  0.00  0.00    +0.000 C 
ATOM      2  O   UNL     1      -1.311  10.443  18.974  0.00  0.00    +0.000 OA
ATOM      3  N   UNL     1       0.205  11.805  20.052  0.00  0.00    +0.000 N 
ATOM      4  C   UNL     1       1.486  12.083  20.714  0.00  0.00    +0.000 C 
ATOM      5  C   UNL     1       2.263  13.154  19.946  0.00  0.00    +0.000 C 
ATOM      6  N   UNL     1       1.389  14.230  19.509  0.00  0.00    +0.000 N 
ATOM      7  C   UNL     1       1.797  15.449  19.047  0.00  0.00    +0.000 A 
ATOM      8  C   UNL     1       0.669  16.168  18.717  0.00  0.00    +0.000 A 
ATOM      9  C   UNL     1      -0.453  15.345  18.978  0.00  0.00    +0.000 A 
ATOM     10  C   UNL     1       0.016  14.146  19.485  0.00  0.00    +0.000 A 
ATOM     11  C   UNL     1      -0.731  12.947  20.033  0.00  0.00    +0.000 C 
ENDROOT
BRANCH   1  19
ATOM     12  C   UNL     1       4.410   5.827  17.793  0.00  0.00    +0.000 C 
ATOM     13  O   UNL     1       4.979   4.751  17.994  0.00  0.00    +0.000 OA
ATOM     14  N   UNL     1       3.415   6.272  18.644  0.00  0.00    +0.000 N 
ATOM     15  C   UNL     1       3.160   5.515  19.883  0.00  0.00    +0.000 C 
ATOM     16  C   UNL     1       1.999   6.190  20.602  0.00  0.00    +0.000 C 
ATOM     17  C   UNL     1       1.858   7.454  19.818  0.00  0.00    +0.000 A 
ATOM     18  C   UNL     1       1.026   8.517  20.130  0.00  0.00    +0.000 A 
ATOM     19  C   UNL     1       0.809   9.519  19.185  0.00  0.00    +0.000 A 
ATOM     20  C   UNL     1       1.572   9.504  18.003  0.00  0.00    +0.000 A 
ATOM     21  C   UNL     1       2.487   8.468  17.740  0.00  0.00    +0.000 A 
ATOM     22  C   UNL     1       2.616   7.430  18.649  0.00  0.00    +0.000 A 
BRANCH  12  24
ATOM     23  C   UNL     1       5.332   5.901  15.444  0.00  0.00    +0.000 C 
ATOM     24  C   UNL     1       4.799   6.700  16.620  0.00  0.00    +0.000 C 
ENDBRANCH  12  24
ENDBRANCH   1  19
BRANCH  11  25
ATOM     25  C   UNL     1      -1.328  13.228  21.417  0.00  0.00    +0.000 A 
ATOM     26  C   UNL     1      -2.463  12.526  21.847  0.00  0.00    +0.000 A 
ATOM     27  C   UNL     1      -3.029  12.784  23.100  0.00  0.00    +0.000 A 
ATOM     28  C   UNL     1      -2.460  13.730  23.951  0.00  0.00    +0.000 A 
ATOM     29  C   UNL     1      -1.322  14.427  23.551  0.00  0.00    +0.000 A 
ATOM     30  C   UNL     1      -0.769  14.179  22.294  0.00  0.00    +0.000 A 
ENDBRANCH  11  25
TORSDOF 3
ENDMDL
MODEL 8
REMARK VINA RESULT:      -8.5      2.229      8.635
REMARK  Name = 
REMARK  4 active torsions:
REMARK  status: ('A' for Active; 'I' for Inactive)
REMARK    1  A    between atoms: C_1  and  C_2
REMARK    2  A    between atoms: C_2  and  C_3
REMARK    3  A    between atoms: C_10  and  C_11
REMARK    4  A    between atoms: C_21  and  C_22
REMARK                            x       y       z     vdW  Elec       q    Type
REMARK                         _______ _______ _______ _____ _____    ______ ____
ROOT
ATOM      1  C   UNL     1       1.230   9.690  18.358  0.00  0.00    +0.000 C 
ATOM      2  O   UNL     1       1.662  10.378  17.431  0.00  0.00    +0.000 OA
ATOM      3  N   UNL     1       0.119  10.067  19.116  0.00  0.00    +0.000 N 
ATOM      4  C   UNL     1      -0.564   9.272  20.145  0.00  0.00    +0.000 C 
ATOM      5  C   UNL     1      -0.354   9.894  21.527  0.00  0.00    +0.000 C 
ATOM      6  N   UNL     1      -0.481  11.341  21.481  0.00  0.00    +0.000 N 
ATOM      7  C   UNL     1      -0.619  12.163  22.563  0.00  0.00    +0.000 A 
ATOM      8  C   UNL     1      -0.686  13.458  22.097  0.00  0.00    +0.000 A 
ATOM      9  C   UNL     1      -0.569  13.410  20.687  0.00  0.00    +0.000 A 
ATOM     10  C   UNL     1      -0.457  12.080  20.321  0.00  0.00    +0.000 A 
ATOM     11  C   UNL     1      -0.413  11.435  18.950  0.00  0.00    +0.000 C 
ENDROOT
BRANCH   1  19
ATOM     12  C   UNL     1       4.865   3.948  19.002  0.00  0.00    +0.000 C 
ATOM     13  O   UNL     1       5.103   2.860  19.534  0.00  0.00    +0.000 OA
ATOM     14  N   UNL     1       3.808   4.729  19.428  0.00  0.00    +0.000 N 
ATOM     15  C   UNL     1       3.069   4.313  20.635  0.00  0.00    +0.000 C 
ATOM     16  C   UNL     1       1.941   5.315  20.851  0.00  0.00    +0.000 C 
ATOM     17  C   UNL     1       2.303   6.384  19.871  0.00  0.00    +0.000 A 
ATOM     18  C   UNL     1       1.680   7.616  19.744  0.00  0.00    +0.000 A 
ATOM     19  C   UNL     1       1.953   8.410  18.631  0.00  0.00    +0.000 A 
ATOM     20  C   UNL     1       2.978   8.010  17.756  0.00  0.00    +0.000 A 
ATOM     21  C   UNL     1       3.673   6.802  17.950  0.00  0.00    +0.000 A 
ATOM     22  C   UNL     1       3.319   5.979  19.007  0.00  0.00    +0.000 A 
BRANCH  12  24
ATOM     23  C   UNL     1       5.319   3.940  16.518  0.00  0.00    +0.000 C 
ATOM     24  C   UNL     1       5.738   4.467  17.879  0.00  0.00    +0.000 C 
ENDBRANCH  12  24
ENDBRANCH   1  19
BRANCH  11  25
ATOM     25  C   UNL     1      -1.786  11.442  18.270  0.00  0.00    +0.000 A 
ATOM     26  C   UNL     1      -2.918  11.871  18.979  0.00  0.00    +0.000 A 
ATOM     27  C   UNL     1      -4.180  11.866  18.377  0.00  0.00    +0.000 A 
ATOM     28  C   UNL     1      -4.331  11.455  17.054  0.00  0.00    +0.000 A 
ATOM     29  C   UNL     1      -3.218  11.041  16.325  0.00  0.00    +0.000 A 
ATOM     30  C   UNL     1      -1.962  11.031  16.933  0.00  0.00    +0.000 A 
ENDBRANCH  11  25
TORSDOF 3
ENDMDL
