MODEL 1
REMARK VINA RESULT:     -10.2      0.000      0.000
REMARK  Name = 
REMARK  5 active torsions:
REMARK  status: ('A' for Active; 'I' for Inactive)
REMARK    1  A    between atoms: C_1  and  C_2
REMARK    2  A    between atoms: N_5  and  C_6
REMARK    3  A    between atoms: C_6  and  C_7
REMARK    4  A    between atoms: C_11  and  C_12
REMARK    5  A    between atoms: N_18  and  C_19
REMARK                            x       y       z     vdW  Elec       q    Type
REMARK                         _______ _______ _______ _____ _____    ______ ____
ROOT
ATOM      1  C   UNL     1       4.007   4.460  17.717  0.00  0.00    +0.000 A 
ATOM      2  C   UNL     1       3.579   5.784  17.613  0.00  0.00    +0.000 A 
ATOM      3  C   UNL     1       2.798   6.295  18.631  0.00  0.00    +0.000 A 
ATOM      4  C   UNL     1       2.333   5.548  19.704  0.00  0.00    +0.000 A 
ATOM      5  C   UNL     1       2.645   4.193  19.775  0.00  0.00    +0.000 A 
ATOM      6  C   UNL     1       3.529   3.672  18.793  0.00  0.00    +0.000 A 
ATOM      7  C   UNL     1       1.533   6.438  20.608  0.00  0.00    +0.000 C 
ATOM      8  N   UNL     1       1.642   7.754  19.974  0.00  0.00    +0.000 N 
ATOM      9  C   UNL     1       2.360   7.676  18.780  0.00  0.00    +0.000 C 
ATOM     10  O   UNL     1       2.641   8.521  17.950  0.00  0.00    +0.000 OA
ENDROOT
BRANCH   8  11
ATOM     11  C   UNL     1       1.068   8.928  20.506  0.00  0.00    +0.000 A 
ATOM     12  C   UNL     1       0.912  10.080  19.707  0.00  0.00    +0.000 A 
ATOM     13  C   UNL     1       0.311  11.239  20.203  0.00  0.00    +0.000 A 
ATOM     14  C   UNL     1      -0.141  11.274  21.515  0.00  0.00    +0.000 A 
ATOM     15  C   UNL     1       0.028  10.153  22.316  0.00  0.00    +0.000 A 
ATOM     16  F   UNL     1      -0.409  10.185  23.583  0.00  0.00    +0.000 F 
ATOM     17  C   UNL     1       0.630   8.992  21.833  0.00  0.00    +0.000 A 
ENDBRANCH   8  11
BRANCH   5  18
ATOM     18  C   UNL     1       2.049   3.285  20.820  0.00  0.00    +0.000 C 
ATOM     19  F   UNL     1       0.686   3.286  20.826  0.00  0.00    +0.000 F 
ATOM     20  F   UNL     1       2.413   1.985  20.637  0.00  0.00    +0.000 F 
ATOM     21  F   UNL     1       2.426   3.610  22.085  0.00  0.00    +0.000 F 
ENDBRANCH   5  18
BRANCH   1  22
ATOM     22  C   UNL     1       5.040   3.958  16.722  0.00  0.00    +0.000 C 
BRANCH  22  27
ATOM     23  C   UNL     1       8.034   8.298  17.904  0.00  0.00    +0.000 C 
ATOM     24  C   UNL     1       7.568   6.899  17.584  0.00  0.00    +0.000 C 
ATOM     25  N   UNL     1       7.378   6.583  16.359  0.00  0.00    +0.000 NA
ATOM     26  C   UNL     1       6.985   5.236  15.991  0.00  0.00    +0.000 C 
ATOM     27  N   UNL     1       6.431   4.338  16.992  0.00  0.00    +0.000 NA
ATOM     28  C   UNL     1       6.608   4.713  18.389  0.00  0.00    +0.000 C 
ATOM     29  C   UNL     1       7.369   5.975  18.737  0.00  0.00    +0.000 C 
ENDBRANCH  22  27
ENDBRANCH   1  22
TORSDOF 4
ENDMDL
MODEL 2
REMARK VINA RESULT:     -10.0      0.872      1.247
REMARK  Name = 
REMARK  5 active torsions:
REMARK  status: ('A' for Active; 'I' for Inactive)
REMARK    1  A    between atoms: C_1  and  C_2
REMARK    2  A    between atoms: N_5  and  C_6
REMARK    3  A    between atoms: C_6  and  C_7
REMARK    4  A    between atoms: C_11  and  C_12
REMARK    5  A    between atoms: N_18  and  C_19
REMARK                            x       y       z     vdW  Elec       q    Type
REMARK                         _______ _______ _______ _____ _____    ______ ____
ROOT
ATOM      1  C   UNL     1       4.014   4.510  17.788  0.00  0.00    +0.000 A 
ATOM      2  C   UNL     1       3.552   5.820  17.662  0.00  0.00    +0.000 A 
ATOM      3  C   UNL     1       2.785   6.339  18.687  0.00  0.00    +0.000 A 
ATOM      4  C   UNL     1       2.365   5.609  19.790  0.00  0.00    +0.000 A 
ATOM      5  C   UNL     1       2.710   4.263  19.886  0.00  0.00    +0.000 A 
ATOM      6  C   UNL     1       3.582   3.738  18.894  0.00  0.00    +0.000 A 
ATOM      7  C   UNL     1       1.567   6.503  20.692  0.00  0.00    +0.000 C 
ATOM      8  N   UNL     1       1.629   7.805  20.024  0.00  0.00    +0.000 N 
ATOM      9  C   UNL     1       2.319   7.713  18.813  0.00  0.00    +0.000 C 
ATOM     10  O   UNL     1       2.558   8.543  17.956  0.00  0.00    +0.000 OA
ENDROOT
BRANCH   8  11
ATOM     11  C   UNL     1       1.041   8.978  20.540  0.00  0.00    +0.000 A 
ATOM     12  C   UNL     1       0.594   9.032  21.877  0.00  0.00    +0.000 A 
ATOM     13  C   UNL     1       0.044  10.196  22.419  0.00  0.00    +0.000 A 
ATOM     14  C   UNL     1      -0.079  11.332  21.631  0.00  0.00    +0.000 A 
ATOM     15  C   UNL     1       0.337  11.282  20.307  0.00  0.00    +0.000 A 
ATOM     16  F   UNL     1       0.219  12.378  19.545  0.00  0.00    +0.000 F 
ATOM     17  C   UNL     1       0.883  10.125  19.755  0.00  0.00    +0.000 A 
ENDBRANCH   8  11
BRANCH   5  18
ATOM     18  C   UNL     1       2.163   3.368  20.968  0.00  0.00    +0.000 C 
ATOM     19  F   UNL     1       0.818   3.166  20.875  0.00  0.00    +0.000 F 
ATOM     20  F   UNL     1       2.722   2.127  20.939  0.00  0.00    +0.000 F 
ATOM     21  F   UNL     1       2.379   3.853  22.219  0.00  0.00    +0.000 F 
ENDBRANCH   5  18
BRANCH   1  22
ATOM     22  C   UNL     1       5.033   4.006  16.779  0.00  0.00    +0.000 C 
BRANCH  22  27
ATOM     23  C   UNL     1       8.056   8.337  17.920  0.00  0.00    +0.000 C 
ATOM     24  C   UNL     1       7.581   6.940  17.608  0.00  0.00    +0.000 C 
ATOM     25  N   UNL     1       7.375   6.622  16.386  0.00  0.00    +0.000 NA
ATOM     26  C   UNL     1       6.974   5.277  16.025  0.00  0.00    +0.000 C 
ATOM     27  N   UNL     1       6.428   4.382  17.033  0.00  0.00    +0.000 NA
ATOM     28  C   UNL     1       6.623   4.759  18.427  0.00  0.00    +0.000 C 
ATOM     29  C   UNL     1       7.391   6.019  18.765  0.00  0.00    +0.000 C 
ENDBRANCH  22  27
ENDBRANCH   1  22
TORSDOF 4
ENDMDL
MODEL 3
REMARK VINA RESULT:      -9.2      1.216      1.582
REMARK  Name = 
REMARK  5 active torsions:
REMARK  status: ('A' for Active; 'I' for Inactive)
REMARK    1  A    between atoms: C_1  and  C_2
REMARK    2  A    between atoms: N_5  and  C_6
REMARK    3  A    between atoms: C_6  and  C_7
REMARK    4  A    between atoms: C_11  and  C_12
REMARK    5  A    between atoms: N_18  and  C_19
REMARK                            x       y       z     vdW  Elec       q    Type
REMARK                         _______ _______ _______ _____ _____    ______ ____
ROOT
ATOM      1  C   UNL     1       4.019   4.695  17.727  0.00  0.00    +0.000 A 
ATOM      2  C   UNL     1       3.590   5.989  17.428  0.00  0.00    +0.000 A 
ATOM      3  C   UNL     1       2.807   6.644  18.357  0.00  0.00    +0.000 A 
ATOM      4  C   UNL     1       2.340   6.063  19.528  0.00  0.00    +0.000 A 
ATOM      5  C   UNL     1       2.651   4.734  19.798  0.00  0.00    +0.000 A 
ATOM      6  C   UNL     1       3.538   4.074  18.906  0.00  0.00    +0.000 A 
ATOM      7  C   UNL     1       1.537   7.077  20.289  0.00  0.00    +0.000 C 
ATOM      8  N   UNL     1       1.647   8.285  19.468  0.00  0.00    +0.000 N 
ATOM      9  C   UNL     1       2.368   8.032  18.299  0.00  0.00    +0.000 C 
ATOM     10  O   UNL     1       2.650   8.745  17.355  0.00  0.00    +0.000 OA
ENDROOT
BRANCH   8  11
ATOM     11  C   UNL     1       1.071   9.524  19.819  0.00  0.00    +0.000 A 
ATOM     12  C   UNL     1      -0.204   9.582  20.419  0.00  0.00    +0.000 A 
ATOM     13  C   UNL     1      -0.775  10.796  20.808  0.00  0.00    +0.000 A 
ATOM     14  C   UNL     1      -0.085  11.982  20.598  0.00  0.00    +0.000 A 
ATOM     15  C   UNL     1       1.161  11.937  19.987  0.00  0.00    +0.000 A 
ATOM     16  F   UNL     1       1.829  13.081  19.784  0.00  0.00    +0.000 F 
ATOM     17  C   UNL     1       1.739  10.732  19.590  0.00  0.00    +0.000 A 
ENDBRANCH   8  11
BRANCH   5  18
ATOM     18  C   UNL     1       2.053   3.990  20.965  0.00  0.00    +0.000 C 
ATOM     19  F   UNL     1       2.487   4.442  22.176  0.00  0.00    +0.000 F 
ATOM     20  F   UNL     1       0.697   4.097  21.001  0.00  0.00    +0.000 F 
ATOM     21  F   UNL     1       2.329   2.659  20.945  0.00  0.00    +0.000 F 
ENDBRANCH   5  18
BRANCH   1  22
ATOM     22  C   UNL     1       5.054   4.052  16.820  0.00  0.00    +0.000 C 
BRANCH  22  27
ATOM     23  C   UNL     1       8.086   8.387  17.921  0.00  0.00    +0.000 C 
ATOM     24  C   UNL     1       7.608   6.987  17.621  0.00  0.00    +0.000 C 
ATOM     25  N   UNL     1       7.402   6.659  16.402  0.00  0.00    +0.000 NA
ATOM     26  C   UNL     1       6.998   5.311  16.054  0.00  0.00    +0.000 C 
ATOM     27  N   UNL     1       6.450   4.427  17.070  0.00  0.00    +0.000 NA
ATOM     28  C   UNL     1       6.645   4.817  18.461  0.00  0.00    +0.000 C 
ATOM     29  C   UNL     1       7.416   6.078  18.787  0.00  0.00    +0.000 C 
ENDBRANCH  22  27
ENDBRANCH   1  22
TORSDOF 4
ENDMDL
MODEL 4
REMARK VINA RESULT:      -8.9      1.336      2.037
REMARK  Name = 
REMARK  5 active torsions:
REMARK  status: ('A' for Active; 'I' for Inactive)
REMARK    1  A    between atoms: C_1  and  C_2
REMARK    2  A    between atoms: N_5  and  C_6
REMARK    3  A    between atoms: C_6  and  C_7
REMARK    4  A    between atoms: C_11  and  C_12
REMARK    5  A    between atoms: N_18  and  C_19
REMARK                            x       y       z     vdW  Elec       q    Type
REMARK                         _______ _______ _______ _____ _____    ______ ____
ROOT
ATOM      1  C   UNL     1       4.244   6.202  16.922  0.00  0.00    +0.000 A 
ATOM      2  C   UNL     1       3.527   7.375  17.159  0.00  0.00    +0.000 A 
ATOM      3  C   UNL     1       2.763   7.448  18.307  0.00  0.00    +0.000 A 
ATOM      4  C   UNL     1       2.585   6.392  19.190  0.00  0.00    +0.000 A 
ATOM      5  C   UNL     1       3.192   5.169  18.918  0.00  0.00    +0.000 A 
ATOM      6  C   UNL     1       4.063   5.104  17.798  0.00  0.00    +0.000 A 
ATOM      7  C   UNL     1       1.707   6.843  20.320  0.00  0.00    +0.000 C 
ATOM      8  N   UNL     1       1.460   8.255  20.016  0.00  0.00    +0.000 N 
ATOM      9  C   UNL     1       2.050   8.617  18.804  0.00  0.00    +0.000 C 
ATOM     10  O   UNL     1       2.052   9.667  18.189  0.00  0.00    +0.000 OA
ENDROOT
BRANCH   8  11
ATOM     11  C   UNL     1       0.700   9.110  20.841  0.00  0.00    +0.000 A 
ATOM     12  C   UNL     1       0.685   8.937  22.241  0.00  0.00    +0.000 A 
ATOM     13  C   UNL     1      -0.030   9.797  23.077  0.00  0.00    +0.000 A 
ATOM     14  C   UNL     1      -0.754  10.847  22.530  0.00  0.00    +0.000 A 
ATOM     15  C   UNL     1      -0.765  11.012  21.152  0.00  0.00    +0.000 A 
ATOM     16  F   UNL     1      -1.463  12.026  20.622  0.00  0.00    +0.000 F 
ATOM     17  C   UNL     1      -0.059  10.158  20.307  0.00  0.00    +0.000 A 
ENDBRANCH   8  11
BRANCH   5  18
ATOM     18  C   UNL     1       2.920   3.936  19.743  0.00  0.00    +0.000 C 
ATOM     19  F   UNL     1       2.866   4.182  21.083  0.00  0.00    +0.000 F 
ATOM     20  F   UNL     1       1.726   3.362  19.428  0.00  0.00    +0.000 F 
ATOM     21  F   UNL     1       3.861   2.969  19.580  0.00  0.00    +0.000 F 
ENDBRANCH   5  18
BRANCH   1  22
ATOM     22  C   UNL     1       5.253   6.193  15.786  0.00  0.00    +0.000 C 
BRANCH  22  27
ATOM     23  C   UNL     1       8.332   5.429  20.161  0.00  0.00    +0.000 C 
ATOM     24  C   UNL     1       7.842   5.678  18.756  0.00  0.00    +0.000 C 
ATOM     25  N   UNL     1       7.503   6.866  18.427  0.00  0.00    +0.000 NA
ATOM     26  C   UNL     1       7.080   7.172  17.074  0.00  0.00    +0.000 C 
ATOM     27  N   UNL     1       6.664   6.103  16.181  0.00  0.00    +0.000 NA
ATOM     28  C   UNL     1       7.011   4.742  16.570  0.00  0.00    +0.000 C 
ATOM     29  C   UNL     1       7.797   4.501  17.841  0.00  0.00    +0.000 C 
ENDBRANCH  22  27
ENDBRANCH   1  22
TORSDOF 4
ENDMDL
MODEL 5
REMARK VINA RESULT:      -8.8      2.865      7.610
REMARK  Name = 
REMARK  5 active torsions:
REMARK  status: ('A' for Active; 'I' for Inactive)
REMARK    1  A    between atoms: C_1  and  C_2
REMARK    2  A    between atoms: N_5  and  C_6
REMARK    3  A    between atoms: C_6  and  C_7
REMARK    4  A    between atoms: C_11  and  C_12
REMARK    5  A    between atoms: N_18  and  C_19
REMARK                            x       y       z     vdW  Elec       q    Type
REMARK                         _______ _______ _______ _____ _____    ______ ____
ROOT
ATOM      1  C   UNL     1       2.685   5.939  19.285  0.00  0.00    +0.000 A 
ATOM      2  C   UNL     1       3.510   6.446  18.280  0.00  0.00    +0.000 A 
ATOM      3  C   UNL     1       4.116   5.548  17.424  0.00  0.00    +0.000 A 
ATOM      4  C   UNL     1       4.033   4.169  17.558  0.00  0.00    +0.000 A 
ATOM      5  C   UNL     1       3.314   3.631  18.621  0.00  0.00    +0.000 A 
ATOM      6  C   UNL     1       2.600   4.535  19.454  0.00  0.00    +0.000 A 
ATOM      7  C   UNL     1       4.803   3.524  16.444  0.00  0.00    +0.000 C 
ATOM      8  N   UNL     1       5.272   4.662  15.649  0.00  0.00    +0.000 N 
ATOM      9  C   UNL     1       4.902   5.871  16.241  0.00  0.00    +0.000 C 
ATOM     10  O   UNL     1       5.120   7.025  15.923  0.00  0.00    +0.000 OA
ENDROOT
BRANCH   8  11
ATOM     11  C   UNL     1       6.019   4.531  14.460  0.00  0.00    +0.000 A 
ATOM     12  C   UNL     1       5.597   3.657  13.436  0.00  0.00    +0.000 A 
ATOM     13  C   UNL     1       6.302   3.542  12.235  0.00  0.00    +0.000 A 
ATOM     14  C   UNL     1       7.452   4.293  12.036  0.00  0.00    +0.000 A 
ATOM     15  C   UNL     1       7.888   5.138  13.048  0.00  0.00    +0.000 A 
ATOM     16  F   UNL     1       8.999   5.865  12.857  0.00  0.00    +0.000 F 
ATOM     17  C   UNL     1       7.196   5.258  14.251  0.00  0.00    +0.000 A 
ENDBRANCH   8  11
BRANCH   5  18
ATOM     18  C   UNL     1       3.308   2.154  18.922  0.00  0.00    +0.000 C 
ATOM     19  F   UNL     1       3.381   1.374  17.807  0.00  0.00    +0.000 F 
ATOM     20  F   UNL     1       4.367   1.785  19.696  0.00  0.00    +0.000 F 
ATOM     21  F   UNL     1       2.194   1.751  19.587  0.00  0.00    +0.000 F 
ENDBRANCH   5  18
BRANCH   1  22
ATOM     22  C   UNL     1       1.844   6.917  20.088  0.00  0.00    +0.000 C 
BRANCH  22  27
ATOM     23  C   UNL     1      -1.117  11.114  18.409  0.00  0.00    +0.000 C 
ATOM     24  C   UNL     1       0.017  10.218  18.844  0.00  0.00    +0.000 C 
ATOM     25  N   UNL     1       0.547   9.440  17.980  0.00  0.00    +0.000 NA
ATOM     26  C   UNL     1       1.677   8.600  18.329  0.00  0.00    +0.000 C 
ATOM     27  N   UNL     1       1.983   8.332  19.725  0.00  0.00    +0.000 NA
ATOM     28  C   UNL     1       1.349   9.190  20.718  0.00  0.00    +0.000 C 
ATOM     29  C   UNL     1       0.444  10.317  20.269  0.00  0.00    +0.000 C 
ENDBRANCH  22  27
ENDBRANCH   1  22
TORSDOF 4
ENDMDL
MODEL 6
REMARK VINA RESULT:      -8.7      2.907      7.532
REMARK  Name = 
REMARK  5 active torsions:
REMARK  status: ('A' for Active; 'I' for Inactive)
REMARK    1  A    between atoms: C_1  and  C_2
REMARK    2  A    between atoms: N_5  and  C_6
REMARK    3  A    between atoms: C_6  and  C_7
REMARK    4  A    between atoms: C_11  and  C_12
REMARK    5  A    between atoms: N_18  and  C_19
REMARK                            x       y       z     vdW  Elec       q    Type
REMARK                         _______ _______ _______ _____ _____    ______ ____
ROOT
ATOM      1  C   UNL     1       2.777   6.315  19.326  0.00  0.00    +0.000 A 
ATOM      2  C   UNL     1       3.723   6.698  18.375  0.00  0.00    +0.000 A 
ATOM      3  C   UNL     1       4.154   5.750  17.469  0.00  0.00    +0.000 A 
ATOM      4  C   UNL     1       3.778   4.415  17.504  0.00  0.00    +0.000 A 
ATOM      5  C   UNL     1       2.927   3.974  18.513  0.00  0.00    +0.000 A 
ATOM      6  C   UNL     1       2.393   4.953  19.394  0.00  0.00    +0.000 A 
ATOM      7  C   UNL     1       4.431   3.694  16.361  0.00  0.00    +0.000 C 
ATOM      8  N   UNL     1       5.155   4.755  15.658  0.00  0.00    +0.000 N 
ATOM      9  C   UNL     1       5.029   5.974  16.326  0.00  0.00    +0.000 C 
ATOM     10  O   UNL     1       5.496   7.074  16.095  0.00  0.00    +0.000 OA
ENDROOT
BRANCH   8  11
ATOM     11  C   UNL     1       5.897   4.545  14.477  0.00  0.00    +0.000 A 
ATOM     12  C   UNL     1       5.443   3.644  13.491  0.00  0.00    +0.000 A 
ATOM     13  C   UNL     1       6.143   3.452  12.297  0.00  0.00    +0.000 A 
ATOM     14  C   UNL     1       7.319   4.151  12.067  0.00  0.00    +0.000 A 
ATOM     15  C   UNL     1       7.786   5.023  13.042  0.00  0.00    +0.000 A 
ATOM     16  F   UNL     1       8.922   5.700  12.820  0.00  0.00    +0.000 F 
ATOM     17  C   UNL     1       7.099   5.220  14.238  0.00  0.00    +0.000 A 
ENDBRANCH   8  11
BRANCH   5  18
ATOM     18  C   UNL     1       2.600   2.515  18.710  0.00  0.00    +0.000 C 
ATOM     19  F   UNL     1       1.712   2.291  19.719  0.00  0.00    +0.000 F 
ATOM     20  F   UNL     1       2.038   1.963  17.599  0.00  0.00    +0.000 F 
ATOM     21  F   UNL     1       3.691   1.760  19.000  0.00  0.00    +0.000 F 
ENDBRANCH   5  18
BRANCH   1  22
ATOM     22  C   UNL     1       2.136   7.395  20.180  0.00  0.00    +0.000 C 
BRANCH  22  27
ATOM     23  C   UNL     1       1.596  12.635  18.974  0.00  0.00    +0.000 C 
ATOM     24  C   UNL     1       1.384  11.147  19.113  0.00  0.00    +0.000 C 
ATOM     25  N   UNL     1       0.883  10.699  20.201  0.00  0.00    +0.000 NA
ATOM     26  C   UNL     1       0.604   9.286  20.364  0.00  0.00    +0.000 C 
ATOM     27  N   UNL     1       1.228   8.312  19.482  0.00  0.00    +0.000 NA
ATOM     28  C   UNL     1       1.837   8.821  18.260  0.00  0.00    +0.000 C 
ATOM     29  C   UNL     1       1.774  10.301  17.949  0.00  0.00    +0.000 C 
ENDBRANCH  22  27
ENDBRANCH   1  22
TORSDOF 4
ENDMDL
MODEL 7
REMARK VINA RESULT:      -8.7      1.161      1.650
REMARK  Name = 
REMARK  5 active torsions:
REMARK  status: ('A' for Active; 'I' for Inactive)
REMARK    1  A    between atoms: C_1  and  C_2
REMARK    2  A    between atoms: N_5  and  C_6
REMARK    3  A    between atoms: C_6  and  C_7
REMARK    4  A    between atoms: C_11  and  C_12
REMARK    5  A    between atoms: N_18  and  C_19
REMARK                            x       y       z     vdW  Elec       q    Type
REMARK                         _______ _______ _______ _____ _____    ______ ____
ROOT
ATOM      1  C   UNL     1       4.349   6.021  16.791  0.00  0.00    +0.000 A 
ATOM      2  C   UNL     1       3.688   7.222  17.049  0.00  0.00    +0.000 A 
ATOM      3  C   UNL     1       2.899   7.299  18.180  0.00  0.00    +0.000 A 
ATOM      4  C   UNL     1       2.645   6.228  19.025  0.00  0.00    +0.000 A 
ATOM      5  C   UNL     1       3.194   4.983  18.728  0.00  0.00    +0.000 A 
ATOM      6  C   UNL     1       4.089   4.907  17.627  0.00  0.00    +0.000 A 
ATOM      7  C   UNL     1       1.763   6.689  20.147  0.00  0.00    +0.000 C 
ATOM      8  N   UNL     1       1.597   8.121  19.882  0.00  0.00    +0.000 N 
ATOM      9  C   UNL     1       2.236   8.489  18.697  0.00  0.00    +0.000 C 
ATOM     10  O   UNL     1       2.308   9.555  18.116  0.00  0.00    +0.000 OA
ENDROOT
BRANCH   8  11
ATOM     11  C   UNL     1       0.861   8.989  20.716  0.00  0.00    +0.000 A 
ATOM     12  C   UNL     1       0.103  10.045  20.168  0.00  0.00    +0.000 A 
ATOM     13  C   UNL     1      -0.662  10.892  20.973  0.00  0.00    +0.000 A 
ATOM     14  C   UNL     1      -0.679  10.706  22.348  0.00  0.00    +0.000 A 
ATOM     15  C   UNL     1       0.083   9.685  22.900  0.00  0.00    +0.000 A 
ATOM     16  F   UNL     1       0.067   9.504  24.228  0.00  0.00    +0.000 F 
ATOM     17  C   UNL     1       0.853   8.836  22.107  0.00  0.00    +0.000 A 
ENDBRANCH   8  11
BRANCH   5  18
ATOM     18  C   UNL     1       2.838   3.742  19.506  0.00  0.00    +0.000 C 
ATOM     19  F   UNL     1       2.362   2.731  18.725  0.00  0.00    +0.000 F 
ATOM     20  F   UNL     1       3.913   3.222  20.161  0.00  0.00    +0.000 F 
ATOM     21  F   UNL     1       1.886   3.961  20.451  0.00  0.00    +0.000 F 
ENDBRANCH   5  18
BRANCH   1  22
ATOM     22  C   UNL     1       5.385   5.993  15.680  0.00  0.00    +0.000 C 
BRANCH  22  27
ATOM     23  C   UNL     1       8.371   5.462  20.152  0.00  0.00    +0.000 C 
ATOM     24  C   UNL     1       7.911   5.644  18.727  0.00  0.00    +0.000 C 
ATOM     25  N   UNL     1       7.562   6.812  18.341  0.00  0.00    +0.000 NA
ATOM     26  C   UNL     1       7.166   7.054  16.967  0.00  0.00    +0.000 C 
ATOM     27  N   UNL     1       6.787   5.942  16.110  0.00  0.00    +0.000 NA
ATOM     28  C   UNL     1       7.145   4.604  16.564  0.00  0.00    +0.000 C 
ATOM     29  C   UNL     1       7.905   4.429  17.862  0.00  0.00    +0.000 C 
ENDBRANCH  22  27
ENDBRANCH   1  22
TORSDOF 4
ENDMDL
MODEL 8
REMARK VINA RESULT:      -8.7      2.226      7.374
REMARK  Name = 
REMARK  5 active torsions:
REMARK  status: ('A' for Active; 'I' for Inactive)
REMARK    1  A    between atoms: C_1  and  C_2
REMARK    2  A    between atoms: N_5  and  C_6
REMARK    3  A    between atoms: C_6  and  C_7
REMARK    4  A    between atoms: C_11  and  C_12
REMARK    5  A    between atoms: N_18  and  C_19
REMARK                            x       y       z     vdW  Elec       q    Type
REMARK                         _______ _______ _______ _____ _____    ______ ____
ROOT
ATOM      1  C   UNL     1       1.717   6.455  20.525  0.00  0.00    +0.000 A 
ATOM      2  C   UNL     1       2.563   6.926  19.521  0.00  0.00    +0.000 A 
ATOM      3  C   UNL     1       3.262   5.999  18.773  0.00  0.00    +0.000 A 
ATOM      4  C   UNL     1       3.250   4.634  19.020  0.00  0.00    +0.000 A 
ATOM      5  C   UNL     1       2.509   4.143  20.091  0.00  0.00    +0.000 A 
ATOM      6  C   UNL     1       1.703   5.067  20.809  0.00  0.00    +0.000 A 
ATOM      7  C   UNL     1       4.111   3.946  18.002  0.00  0.00    +0.000 C 
ATOM      8  N   UNL     1       4.555   5.041  17.136  0.00  0.00    +0.000 N 
ATOM      9  C   UNL     1       4.088   6.271  17.605  0.00  0.00    +0.000 C 
ATOM     10  O   UNL     1       4.257   7.406  17.200  0.00  0.00    +0.000 OA
ENDROOT
BRANCH   8  11
ATOM     11  C   UNL     1       5.369   4.858  15.999  0.00  0.00    +0.000 A 
ATOM     12  C   UNL     1       6.719   5.268  16.004  0.00  0.00    +0.000 A 
ATOM     13  C   UNL     1       7.551   5.060  14.901  0.00  0.00    +0.000 A 
ATOM     14  C   UNL     1       7.048   4.444  13.764  0.00  0.00    +0.000 A 
ATOM     15  C   UNL     1       5.715   4.058  13.741  0.00  0.00    +0.000 A 
ATOM     16  F   UNL     1       5.228   3.461  12.643  0.00  0.00    +0.000 F 
ATOM     17  C   UNL     1       4.874   4.263  14.833  0.00  0.00    +0.000 A 
ENDBRANCH   8  11
BRANCH   5  18
ATOM     18  C   UNL     1       2.571   2.698  20.516  0.00  0.00    +0.000 C 
ATOM     19  F   UNL     1       1.806   2.422  21.611  0.00  0.00    +0.000 F 
ATOM     20  F   UNL     1       2.128   1.857  19.541  0.00  0.00    +0.000 F 
ATOM     21  F   UNL     1       3.828   2.288  20.829  0.00  0.00    +0.000 F 
ENDBRANCH   5  18
BRANCH   1  22
ATOM     22  C   UNL     1       0.783   7.444  21.202  0.00  0.00    +0.000 C 
BRANCH  22  27
ATOM     23  C   UNL     1      -1.632  12.238  20.580  0.00  0.00    +0.000 C 
ATOM     24  C   UNL     1      -0.615  11.130  20.712  0.00  0.00    +0.000 C 
ATOM     25  N   UNL     1      -0.338  10.429  19.679  0.00  0.00    +0.000 NA
ATOM     26  C   UNL     1       0.672   9.390  19.735  0.00  0.00    +0.000 C 
ATOM     27  N   UNL     1       1.107   8.863  21.018  0.00  0.00    +0.000 NA
ATOM     28  C   UNL     1       0.758   9.636  22.204  0.00  0.00    +0.000 C 
ATOM     29  C   UNL     1       0.002  10.939  22.055  0.00  0.00    +0.000 C 
ENDBRANCH  22  27
ENDBRANCH   1  22
TORSDOF 4
ENDMDL
MODEL 9
REMARK VINA RESULT:      -8.5      2.381      7.420
REMARK  Name = 
REMARK  5 active torsions:
REMARK  status: ('A' for Active; 'I' for Inactive)
REMARK    1  A    between atoms: C_1  and  C_2
REMARK    2  A    between atoms: N_5  and  C_6
REMARK    3  A    between atoms: C_6  and  C_7
REMARK    4  A    between atoms: C_11  and  C_12
REMARK    5  A    between atoms: N_18  and  C_19
REMARK                            x       y       z     vdW  Elec       q    Type
REMARK                         _______ _______ _______ _____ _____    ______ ____
ROOT
ATOM      1  C   UNL     1       1.802   6.302  20.306  0.00  0.00    +0.000 A 
ATOM      2  C   UNL     1       2.829   6.717  19.459  0.00  0.00    +0.000 A 
ATOM      3  C   UNL     1       3.330   5.804  18.551  0.00  0.00    +0.000 A 
ATOM      4  C   UNL     1       2.944   4.472  18.495  0.00  0.00    +0.000 A 
ATOM      5  C   UNL     1       2.006   3.997  19.407  0.00  0.00    +0.000 A 
ATOM      6  C   UNL     1       1.404   4.942  20.281  0.00  0.00    +0.000 A 
ATOM      7  C   UNL     1       3.688   3.795  17.382  0.00  0.00    +0.000 C 
ATOM      8  N   UNL     1       4.477   4.879  16.791  0.00  0.00    +0.000 N 
ATOM      9  C   UNL     1       4.302   6.069  17.499  0.00  0.00    +0.000 C 
ATOM     10  O   UNL     1       4.795   7.173  17.358  0.00  0.00    +0.000 OA
ENDROOT
BRANCH   8  11
ATOM     11  C   UNL     1       5.316   4.713  15.670  0.00  0.00    +0.000 A 
ATOM     12  C   UNL     1       6.647   5.181  15.689  0.00  0.00    +0.000 A 
ATOM     13  C   UNL     1       7.505   4.992  14.603  0.00  0.00    +0.000 A 
ATOM     14  C   UNL     1       7.048   4.337  13.468  0.00  0.00    +0.000 A 
ATOM     15  C   UNL     1       5.733   3.894  13.430  0.00  0.00    +0.000 A 
ATOM     16  F   UNL     1       5.290   3.261  12.335  0.00  0.00    +0.000 F 
ATOM     17  C   UNL     1       4.866   4.081  14.506  0.00  0.00    +0.000 A 
ENDBRANCH   8  11
BRANCH   5  18
ATOM     18  C   UNL     1       1.653   2.535  19.510  0.00  0.00    +0.000 C 
ATOM     19  F   UNL     1       2.713   1.706  19.291  0.00  0.00    +0.000 F 
ATOM     20  F   UNL     1       1.181   2.207  20.744  0.00  0.00    +0.000 F 
ATOM     21  F   UNL     1       0.696   2.155  18.623  0.00  0.00    +0.000 F 
ENDBRANCH   5  18
BRANCH   1  22
ATOM     22  C   UNL     1       1.096   7.350  21.150  0.00  0.00    +0.000 C 
BRANCH  22  27
ATOM     23  C   UNL     1      -1.554  11.928  20.043  0.00  0.00    +0.000 C 
ATOM     24  C   UNL     1      -0.485  10.887  20.268  0.00  0.00    +0.000 C 
ATOM     25  N   UNL     1      -0.212  10.075  19.319  0.00  0.00    +0.000 NA
ATOM     26  C   UNL     1       0.846   9.093  19.461  0.00  0.00    +0.000 C 
ATOM     27  N   UNL     1       1.349   8.748  20.781  0.00  0.00    +0.000 NA
ATOM     28  C   UNL     1       1.007   9.647  21.875  0.00  0.00    +0.000 C 
ATOM     29  C   UNL     1       0.187  10.889  21.599  0.00  0.00    +0.000 C 
ENDBRANCH  22  27
ENDBRANCH   1  22
TORSDOF 4
ENDMDL
