MODEL 1
REMARK VINA RESULT:      -9.9      0.000      0.000
REMARK  Name = 
REMARK  5 active torsions:
REMARK  status: ('A' for Active; 'I' for Inactive)
REMARK    1  A    between atoms: C_1  and  C_2
REMARK    2  A    between atoms: C_12  and  C_13
REMARK    3  A    between atoms: N_15  and  C_16
REMARK    4  A    between atoms: C_21  and  N_22
REMARK    5  A    between atoms: C_23  and  C_25
REMARK                            x       y       z     vdW  Elec       q    Type
REMARK                         _______ _______ _______ _____ _____    ______ ____
ROOT
ATOM      1  C   UNL     1       5.426   4.490  18.332  0.00  0.00    +0.000 C 
ATOM      2  O   UNL     1       6.226   4.372  19.252  0.00  0.00    +0.000 OA
ATOM      3  N   UNL     1       4.060   4.315  18.433  0.00  0.00    +0.000 N 
ATOM      4  H   UNL     1       3.580   4.120  17.563  0.00  0.00    +0.000 HD
ENDROOT
BRANCH   1  16
ATOM      5  C   UNL     1       7.616   6.555  17.762  0.00  0.00    +0.000 C 
ATOM      6  C   UNL     1       7.001   5.671  16.719  0.00  0.00    +0.000 A 
ATOM      7  N   UNL     1       7.538   5.820  15.475  0.00  0.00    +0.000 NA
ATOM      8  C   UNL     1       7.068   5.081  14.455  0.00  0.00    +0.000 A 
ATOM      9  C   UNL     1       7.646   5.209  13.202  0.00  0.00    +0.000 A 
ATOM     10  C   UNL     1       7.173   4.479  12.120  0.00  0.00    +0.000 A 
ATOM     11  F   UNL     1       7.752   4.622  10.920  0.00  0.00    +0.000 F 
ATOM     12  C   UNL     1       6.108   3.600  12.262  0.00  0.00    +0.000 A 
ATOM     13  C   UNL     1       5.522   3.442  13.516  0.00  0.00    +0.000 A 
ATOM     14  C   UNL     1       6.001   4.171  14.623  0.00  0.00    +0.000 A 
ATOM     15  C   UNL     1       5.461   4.028  15.906  0.00  0.00    +0.000 A 
ATOM     16  C   UNL     1       5.962   4.779  16.977  0.00  0.00    +0.000 A 
ENDBRANCH   1  16
BRANCH   3  17
ATOM     17  C   UNL     1       3.367   3.908  19.610  0.00  0.00    +0.000 A 
ATOM     18  C   UNL     1       3.456   2.526  19.878  0.00  0.00    +0.000 A 
ATOM     19  C   UNL     1       2.883   1.966  21.020  0.00  0.00    +0.000 A 
ATOM     20  C   UNL     1       2.159   2.769  21.881  0.00  0.00    +0.000 A 
ATOM     21  C   UNL     1       2.015   4.129  21.603  0.00  0.00    +0.000 A 
ATOM     22  C   UNL     1       2.627   4.740  20.488  0.00  0.00    +0.000 A 
BRANCH  22  23
ATOM     23  N   UNL     1       2.444   6.133  20.239  0.00  0.00    +0.000 N 
ATOM     24  C   UNL     1       2.125   6.702  19.015  0.00  0.00    +0.000 C 
ATOM     25  O   UNL     1       1.965   6.111  17.951  0.00  0.00    +0.000 OA
ATOM     26  H   UNL     1       2.301   6.706  21.063  0.00  0.00    +0.000 HD
BRANCH  24  27
ATOM     27  C   UNL     1       1.913   8.172  18.970  0.00  0.00    +0.000 A 
ATOM     28  C   UNL     1       2.241   8.952  17.858  0.00  0.00    +0.000 A 
ATOM     29  C   UNL     1       1.930  10.317  17.859  0.00  0.00    +0.000 A 
ATOM     30  C   UNL     1       1.294  10.900  18.959  0.00  0.00    +0.000 A 
ATOM     31  C   UNL     1       0.949  10.121  20.059  0.00  0.00    +0.000 A 
ATOM     32  C   UNL     1       1.251   8.761  20.062  0.00  0.00    +0.000 A 
ENDBRANCH  24  27
ENDBRANCH  22  23
ENDBRANCH   3  17
TORSDOF 4
ENDMDL
MODEL 2
REMARK VINA RESULT:      -9.2      4.104      8.064
REMARK  Name = 
REMARK  5 active torsions:
REMARK  status: ('A' for Active; 'I' for Inactive)
REMARK    1  A    between atoms: C_1  and  C_2
REMARK    2  A    between atoms: C_12  and  C_13
REMARK    3  A    between atoms: N_15  and  C_16
REMARK    4  A    between atoms: C_21  and  N_22
REMARK    5  A    between atoms: C_23  and  C_25
REMARK                            x       y       z     vdW  Elec       q    Type
REMARK                         _______ _______ _______ _____ _____    ______ ____
ROOT
ATOM      1  C   UNL     1       1.929   6.900  19.328  0.00  0.00    +0.000 C 
ATOM      2  O   UNL     1       2.364   6.868  18.183  0.00  0.00    +0.000 OA
ATOM      3  N   UNL     1       1.783   5.806  20.157  0.00  0.00    +0.000 N 
ATOM      4  H   UNL     1       1.125   5.923  20.920  0.00  0.00    +0.000 HD
ENDROOT
BRANCH   1  16
ATOM      5  C   UNL     1       2.124   9.542  17.789  0.00  0.00    +0.000 C 
ATOM      6  C   UNL     1       1.484   9.399  19.137  0.00  0.00    +0.000 A 
ATOM      7  N   UNL     1       0.934  10.549  19.619  0.00  0.00    +0.000 NA
ATOM      8  C   UNL     1       0.331  10.546  20.820  0.00  0.00    +0.000 A 
ATOM      9  C   UNL     1      -0.260  11.710  21.284  0.00  0.00    +0.000 A 
ATOM     10  C   UNL     1      -0.873  11.751  22.530  0.00  0.00    +0.000 A 
ATOM     11  F   UNL     1      -1.438  12.890  22.953  0.00  0.00    +0.000 F 
ATOM     12  C   UNL     1      -0.910  10.628  23.346  0.00  0.00    +0.000 A 
ATOM     13  C   UNL     1      -0.337   9.442  22.892  0.00  0.00    +0.000 A 
ATOM     14  C   UNL     1       0.279   9.387  21.625  0.00  0.00    +0.000 A 
ATOM     15  C   UNL     1       0.846   8.213  21.117  0.00  0.00    +0.000 A 
ATOM     16  C   UNL     1       1.456   8.205  19.856  0.00  0.00    +0.000 A 
ENDBRANCH   1  16
BRANCH   3  17
ATOM     17  C   UNL     1       2.053   4.454  19.794  0.00  0.00    +0.000 A 
ATOM     18  C   UNL     1       0.958   3.584  19.968  0.00  0.00    +0.000 A 
ATOM     19  C   UNL     1       1.032   2.238  19.610  0.00  0.00    +0.000 A 
ATOM     20  C   UNL     1       2.222   1.727  19.129  0.00  0.00    +0.000 A 
ATOM     21  C   UNL     1       3.332   2.562  19.000  0.00  0.00    +0.000 A 
ATOM     22  C   UNL     1       3.278   3.939  19.300  0.00  0.00    +0.000 A 
BRANCH  22  23
ATOM     23  N   UNL     1       4.443   4.753  19.162  0.00  0.00    +0.000 N 
ATOM     24  C   UNL     1       5.066   5.079  17.966  0.00  0.00    +0.000 C 
ATOM     25  O   UNL     1       4.733   4.715  16.842  0.00  0.00    +0.000 OA
ATOM     26  H   UNL     1       4.676   5.318  19.970  0.00  0.00    +0.000 HD
BRANCH  24  27
ATOM     27  C   UNL     1       6.236   5.994  18.023  0.00  0.00    +0.000 A 
ATOM     28  C   UNL     1       6.345   7.137  17.228  0.00  0.00    +0.000 A 
ATOM     29  C   UNL     1       7.436   7.995  17.403  0.00  0.00    +0.000 A 
ATOM     30  C   UNL     1       8.412   7.717  18.364  0.00  0.00    +0.000 A 
ATOM     31  C   UNL     1       8.295   6.589  19.171  0.00  0.00    +0.000 A 
ATOM     32  C   UNL     1       7.208   5.734  19.006  0.00  0.00    +0.000 A 
ENDBRANCH  24  27
ENDBRANCH  22  23
ENDBRANCH   3  17
TORSDOF 4
ENDMDL
MODEL 3
REMARK VINA RESULT:      -9.0      0.918      1.269
REMARK  Name = 
REMARK  5 active torsions:
REMARK  status: ('A' for Active; 'I' for Inactive)
REMARK    1  A    between atoms: C_1  and  C_2
REMARK    2  A    between atoms: C_12  and  C_13
REMARK    3  A    between atoms: N_15  and  C_16
REMARK    4  A    between atoms: C_21  and  N_22
REMARK    5  A    between atoms: C_23  and  C_25
REMARK                            x       y       z     vdW  Elec       q    Type
REMARK                         _______ _______ _______ _____ _____    ______ ____
ROOT
ATOM      1  C   UNL     1       5.082   5.005  18.133  0.00  0.00    +0.000 C 
ATOM      2  O   UNL     1       5.704   5.442  19.095  0.00  0.00    +0.000 OA
ATOM      3  N   UNL     1       3.850   4.385  18.193  0.00  0.00    +0.000 N 
ATOM      4  H   UNL     1       3.619   3.798  17.400  0.00  0.00    +0.000 HD
ENDROOT
BRANCH   1  16
ATOM      5  C   UNL     1       7.583   6.670  17.531  0.00  0.00    +0.000 C 
ATOM      6  C   UNL     1       6.897   5.789  16.530  0.00  0.00    +0.000 A 
ATOM      7  N   UNL     1       7.512   5.740  15.315  0.00  0.00    +0.000 NA
ATOM      8  C   UNL     1       6.990   4.984  14.334  0.00  0.00    +0.000 A 
ATOM      9  C   UNL     1       7.645   4.909  13.115  0.00  0.00    +0.000 A 
ATOM     10  C   UNL     1       7.124   4.155  12.071  0.00  0.00    +0.000 A 
ATOM     11  F   UNL     1       7.778   4.100  10.903  0.00  0.00    +0.000 F 
ATOM     12  C   UNL     1       5.933   3.457  12.219  0.00  0.00    +0.000 A 
ATOM     13  C   UNL     1       5.267   3.504  13.442  0.00  0.00    +0.000 A 
ATOM     14  C   UNL     1       5.792   4.258  14.511  0.00  0.00    +0.000 A 
ATOM     15  C   UNL     1       5.172   4.316  15.764  0.00  0.00    +0.000 A 
ATOM     16  C   UNL     1       5.724   5.085  16.796  0.00  0.00    +0.000 A 
ENDBRANCH   1  16
BRANCH   3  17
ATOM     17  C   UNL     1       3.131   4.094  19.389  0.00  0.00    +0.000 A 
ATOM     18  C   UNL     1       3.313   2.778  19.861  0.00  0.00    +0.000 A 
ATOM     19  C   UNL     1       2.726   2.342  21.049  0.00  0.00    +0.000 A 
ATOM     20  C   UNL     1       1.900   3.197  21.754  0.00  0.00    +0.000 A 
ATOM     21  C   UNL     1       1.667   4.486  21.273  0.00  0.00    +0.000 A 
ATOM     22  C   UNL     1       2.286   4.979  20.106  0.00  0.00    +0.000 A 
BRANCH  22  23
ATOM     23  N   UNL     1       2.010   6.302  19.647  0.00  0.00    +0.000 N 
ATOM     24  C   UNL     1       1.592   7.363  20.438  0.00  0.00    +0.000 C 
ATOM     25  O   UNL     1       1.377   7.336  21.647  0.00  0.00    +0.000 OA
ATOM     26  H   UNL     1       2.378   6.530  18.731  0.00  0.00    +0.000 HD
BRANCH  24  27
ATOM     27  C   UNL     1       1.415   8.685  19.785  0.00  0.00    +0.000 A 
ATOM     28  C   UNL     1       0.852   9.785  20.437  0.00  0.00    +0.000 A 
ATOM     29  C   UNL     1       0.801  11.021  19.782  0.00  0.00    +0.000 A 
ATOM     30  C   UNL     1       1.309  11.162  18.488  0.00  0.00    +0.000 A 
ATOM     31  C   UNL     1       1.889  10.072  17.844  0.00  0.00    +0.000 A 
ATOM     32  C   UNL     1       1.949   8.841  18.492  0.00  0.00    +0.000 A 
ENDBRANCH  24  27
ENDBRANCH  22  23
ENDBRANCH   3  17
TORSDOF 4
ENDMDL
MODEL 4
REMARK VINA RESULT:      -8.9      4.028      7.809
REMARK  Name = 
REMARK  5 active torsions:
REMARK  status: ('A' for Active; 'I' for Inactive)
REMARK    1  A    between atoms: C_1  and  C_2
REMARK    2  A    between atoms: C_12  and  C_13
REMARK    3  A    between atoms: N_15  and  C_16
REMARK    4  A    between atoms: C_21  and  N_22
REMARK    5  A    between atoms: C_23  and  C_25
REMARK                            x       y       z     vdW  Elec       q    Type
REMARK                         _______ _______ _______ _____ _____    ______ ____
ROOT
ATOM      1  C   UNL     1       1.876   6.081  20.383  0.00  0.00    +0.000 C 
ATOM      2  O   UNL     1       2.267   5.565  21.423  0.00  0.00    +0.000 OA
ATOM      3  N   UNL     1       1.777   5.442  19.163  0.00  0.00    +0.000 N 
ATOM      4  H   UNL     1       1.762   6.052  18.353  0.00  0.00    +0.000 HD
ENDROOT
BRANCH   1  16
ATOM      5  C   UNL     1       2.521   8.029  18.108  0.00  0.00    +0.000 C 
ATOM      6  C   UNL     1       1.773   8.406  19.351  0.00  0.00    +0.000 A 
ATOM      7  N   UNL     1       1.343   9.698  19.374  0.00  0.00    +0.000 NA
ATOM      8  C   UNL     1       0.660  10.154  20.438  0.00  0.00    +0.000 A 
ATOM      9  C   UNL     1       0.192  11.459  20.436  0.00  0.00    +0.000 A 
ATOM     10  C   UNL     1      -0.499  11.971  21.527  0.00  0.00    +0.000 A 
ATOM     11  F   UNL     1      -0.940  13.235  21.497  0.00  0.00    +0.000 F 
ATOM     12  C   UNL     1      -0.739  11.192  22.651  0.00  0.00    +0.000 A 
ATOM     13  C   UNL     1      -0.293   9.872  22.668  0.00  0.00    +0.000 A 
ATOM     14  C   UNL     1       0.400   9.340  21.562  0.00  0.00    +0.000 A 
ATOM     15  C   UNL     1       0.846   8.013  21.524  0.00  0.00    +0.000 A 
ATOM     16  C   UNL     1       1.539   7.528  20.408  0.00  0.00    +0.000 A 
ENDBRANCH   1  16
BRANCH   3  17
ATOM     17  C   UNL     1       2.175   4.099  18.901  0.00  0.00    +0.000 A 
ATOM     18  C   UNL     1       1.114   3.171  18.932  0.00  0.00    +0.000 A 
ATOM     19  C   UNL     1       1.317   1.821  18.644  0.00  0.00    +0.000 A 
ATOM     20  C   UNL     1       2.595   1.367  18.378  0.00  0.00    +0.000 A 
ATOM     21  C   UNL     1       3.665   2.263  18.395  0.00  0.00    +0.000 A 
ATOM     22  C   UNL     1       3.490   3.643  18.629  0.00  0.00    +0.000 A 
BRANCH  22  23
ATOM     23  N   UNL     1       4.616   4.519  18.646  0.00  0.00    +0.000 N 
ATOM     24  C   UNL     1       5.156   5.167  17.544  0.00  0.00    +0.000 C 
ATOM     25  O   UNL     1       4.769   5.083  16.382  0.00  0.00    +0.000 OA
ATOM     26  H   UNL     1       4.877   4.872  19.559  0.00  0.00    +0.000 HD
BRANCH  24  27
ATOM     27  C   UNL     1       6.296   6.092  17.775  0.00  0.00    +0.000 A 
ATOM     28  C   UNL     1       6.421   7.319  17.120  0.00  0.00    +0.000 A 
ATOM     29  C   UNL     1       7.478   8.174  17.457  0.00  0.00    +0.000 A 
ATOM     30  C   UNL     1       8.401   7.809  18.441  0.00  0.00    +0.000 A 
ATOM     31  C   UNL     1       8.265   6.596  19.109  0.00  0.00    +0.000 A 
ATOM     32  C   UNL     1       7.213   5.743  18.783  0.00  0.00    +0.000 A 
ENDBRANCH  24  27
ENDBRANCH  22  23
ENDBRANCH   3  17
TORSDOF 4
ENDMDL
MODEL 5
REMARK VINA RESULT:      -8.5      3.804      8.096
REMARK  Name = 
REMARK  5 active torsions:
REMARK  status: ('A' for Active; 'I' for Inactive)
REMARK    1  A    between atoms: C_1  and  C_2
REMARK    2  A    between atoms: C_12  and  C_13
REMARK    3  A    between atoms: N_15  and  C_16
REMARK    4  A    between atoms: C_21  and  N_22
REMARK    5  A    between atoms: C_23  and  C_25
REMARK                            x       y       z     vdW  Elec       q    Type
REMARK                         _______ _______ _______ _____ _____    ______ ____
ROOT
ATOM      1  C   UNL     1       3.323   7.316  17.715  0.00  0.00    +0.000 C 
ATOM      2  O   UNL     1       3.133   7.777  16.596  0.00  0.00    +0.000 OA
ATOM      3  N   UNL     1       4.268   6.363  18.037  0.00  0.00    +0.000 N 
ATOM      4  H   UNL     1       4.095   5.851  18.895  0.00  0.00    +0.000 HD
ENDROOT
BRANCH   1  16
ATOM      5  C   UNL     1       2.596   5.594  20.143  0.00  0.00    +0.000 C 
ATOM      6  C   UNL     1       2.142   7.010  19.949  0.00  0.00    +0.000 A 
ATOM      7  N   UNL     1       1.406   7.506  20.983  0.00  0.00    +0.000 NA
ATOM      8  C   UNL     1       0.941   8.766  20.925  0.00  0.00    +0.000 A 
ATOM      9  C   UNL     1       0.228   9.277  21.998  0.00  0.00    +0.000 A 
ATOM     10  C   UNL     1      -0.287  10.566  21.964  0.00  0.00    +0.000 A 
ATOM     11  F   UNL     1      -0.972  11.034  23.016  0.00  0.00    +0.000 F 
ATOM     12  C   UNL     1      -0.102  11.380  20.854  0.00  0.00    +0.000 A 
ATOM     13  C   UNL     1       0.627  10.894  19.771  0.00  0.00    +0.000 A 
ATOM     14  C   UNL     1       1.162   9.590  19.800  0.00  0.00    +0.000 A 
ATOM     15  C   UNL     1       1.921   9.068  18.746  0.00  0.00    +0.000 A 
ATOM     16  C   UNL     1       2.426   7.764  18.812  0.00  0.00    +0.000 A 
ENDBRANCH   1  16
BRANCH   3  17
ATOM     17  C   UNL     1       5.133   5.713  17.109  0.00  0.00    +0.000 A 
ATOM     18  C   UNL     1       4.702   4.425  16.730  0.00  0.00    +0.000 A 
ATOM     19  C   UNL     1       5.401   3.671  15.787  0.00  0.00    +0.000 A 
ATOM     20  C   UNL     1       6.575   4.168  15.253  0.00  0.00    +0.000 A 
ATOM     21  C   UNL     1       7.044   5.418  15.657  0.00  0.00    +0.000 A 
ATOM     22  C   UNL     1       6.336   6.232  16.566  0.00  0.00    +0.000 A 
BRANCH  22  23
ATOM     23  N   UNL     1       6.860   7.501  16.957  0.00  0.00    +0.000 N 
ATOM     24  C   UNL     1       7.796   7.717  17.958  0.00  0.00    +0.000 C 
ATOM     25  O   UNL     1       8.311   6.864  18.676  0.00  0.00    +0.000 OA
ATOM     26  H   UNL     1       6.715   8.253  16.295  0.00  0.00    +0.000 HD
BRANCH  24  27
ATOM     27  C   UNL     1       8.267   9.109  18.177  0.00  0.00    +0.000 A 
ATOM     28  C   UNL     1       7.825  10.189  17.408  0.00  0.00    +0.000 A 
ATOM     29  C   UNL     1       8.248  11.483  17.733  0.00  0.00    +0.000 A 
ATOM     30  C   UNL     1       9.104  11.700  18.817  0.00  0.00    +0.000 A 
ATOM     31  C   UNL     1       9.528  10.628  19.596  0.00  0.00    +0.000 A 
ATOM     32  C   UNL     1       9.106   9.338  19.282  0.00  0.00    +0.000 A 
ENDBRANCH  24  27
ENDBRANCH  22  23
ENDBRANCH   3  17
TORSDOF 4
ENDMDL
MODEL 6
REMARK VINA RESULT:      -8.4      3.778      8.068
REMARK  Name = 
REMARK  5 active torsions:
REMARK  status: ('A' for Active; 'I' for Inactive)
REMARK    1  A    between atoms: C_1  and  C_2
REMARK    2  A    between atoms: C_12  and  C_13
REMARK    3  A    between atoms: N_15  and  C_16
REMARK    4  A    between atoms: C_21  and  N_22
REMARK    5  A    between atoms: C_23  and  C_25
REMARK                            x       y       z     vdW  Elec       q    Type
REMARK                         _______ _______ _______ _____ _____    ______ ____
ROOT
ATOM      1  C   UNL     1       2.960   6.309  18.073  0.00  0.00    +0.000 C 
ATOM      2  O   UNL     1       2.369   5.423  17.467  0.00  0.00    +0.000 OA
ATOM      3  N   UNL     1       4.298   6.618  17.930  0.00  0.00    +0.000 N 
ATOM      4  H   UNL     1       4.712   7.125  18.704  0.00  0.00    +0.000 HD
ENDROOT
BRANCH   1  16
ATOM      5  C   UNL     1       2.172   5.197  20.817  0.00  0.00    +0.000 C 
ATOM      6  C   UNL     1       1.896   6.600  20.367  0.00  0.00    +0.000 A 
ATOM      7  N   UNL     1       1.301   7.382  21.310  0.00  0.00    +0.000 NA
ATOM      8  C   UNL     1       1.003   8.661  21.024  0.00  0.00    +0.000 A 
ATOM      9  C   UNL     1       0.434   9.461  22.002  0.00  0.00    +0.000 A 
ATOM     10  C   UNL     1       0.093  10.780  21.736  0.00  0.00    +0.000 A 
ATOM     11  F   UNL     1      -0.455  11.530  22.701  0.00  0.00    +0.000 F 
ATOM     12  C   UNL     1       0.311  11.336  20.483  0.00  0.00    +0.000 A 
ATOM     13  C   UNL     1       0.897  10.556  19.489  0.00  0.00    +0.000 A 
ATOM     14  C   UNL     1       1.257   9.218  19.752  0.00  0.00    +0.000 A 
ATOM     15  C   UNL     1       1.870   8.404  18.793  0.00  0.00    +0.000 A 
ATOM     16  C   UNL     1       2.203   7.078  19.094  0.00  0.00    +0.000 A 
ENDBRANCH   1  16
BRANCH   3  17
ATOM     17  C   UNL     1       5.223   5.915  17.104  0.00  0.00    +0.000 A 
ATOM     18  C   UNL     1       4.796   4.623  16.737  0.00  0.00    +0.000 A 
ATOM     19  C   UNL     1       5.554   3.818  15.885  0.00  0.00    +0.000 A 
ATOM     20  C   UNL     1       6.780   4.271  15.435  0.00  0.00    +0.000 A 
ATOM     21  C   UNL     1       7.242   5.526  15.831  0.00  0.00    +0.000 A 
ATOM     22  C   UNL     1       6.479   6.389  16.646  0.00  0.00    +0.000 A 
BRANCH  22  23
ATOM     23  N   UNL     1       6.997   7.661  17.033  0.00  0.00    +0.000 N 
ATOM     24  C   UNL     1       7.878   7.892  18.080  0.00  0.00    +0.000 C 
ATOM     25  O   UNL     1       8.340   7.053  18.849  0.00  0.00    +0.000 OA
ATOM     26  H   UNL     1       6.901   8.397  16.344  0.00  0.00    +0.000 HD
BRANCH  24  27
ATOM     27  C   UNL     1       8.355   9.284  18.289  0.00  0.00    +0.000 A 
ATOM     28  C   UNL     1       9.365   9.612  19.196  0.00  0.00    +0.000 A 
ATOM     29  C   UNL     1       9.820  10.933  19.271  0.00  0.00    +0.000 A 
ATOM     30  C   UNL     1       9.273  11.921  18.447  0.00  0.00    +0.000 A 
ATOM     31  C   UNL     1       8.281  11.592  17.528  0.00  0.00    +0.000 A 
ATOM     32  C   UNL     1       7.828  10.277  17.444  0.00  0.00    +0.000 A 
ENDBRANCH  24  27
ENDBRANCH  22  23
ENDBRANCH   3  17
TORSDOF 4
ENDMDL
MODEL 7
REMARK VINA RESULT:      -8.2      4.273      7.820
REMARK  Name = 
REMARK  5 active torsions:
REMARK  status: ('A' for Active; 'I' for Inactive)
REMARK    1  A    between atoms: C_1  and  C_2
REMARK    2  A    between atoms: C_12  and  C_13
REMARK    3  A    between atoms: N_15  and  C_16
REMARK    4  A    between atoms: C_21  and  N_22
REMARK    5  A    between atoms: C_23  and  C_25
REMARK                            x       y       z     vdW  Elec       q    Type
REMARK                         _______ _______ _______ _____ _____    ______ ____
ROOT
ATOM      1  C   UNL     1       1.081   9.674  21.304  0.00  0.00    +0.000 C 
ATOM      2  O   UNL     1       1.636   9.704  22.396  0.00  0.00    +0.000 OA
ATOM      3  N   UNL     1       0.095  10.544  20.885  0.00  0.00    +0.000 N 
ATOM      4  H   UNL     1      -0.487  10.210  20.125  0.00  0.00    +0.000 HD
ENDROOT
BRANCH   1  16
ATOM      5  C   UNL     1       1.687  10.084  18.329  0.00  0.00    +0.000 C 
ATOM      6  C   UNL     1       1.779   8.763  19.032  0.00  0.00    +0.000 A 
ATOM      7  N   UNL     1       2.215   7.740  18.245  0.00  0.00    +0.000 NA
ATOM      8  C   UNL     1       2.338   6.506  18.763  0.00  0.00    +0.000 A 
ATOM      9  C   UNL     1       2.820   5.480  17.965  0.00  0.00    +0.000 A 
ATOM     10  C   UNL     1       2.940   4.188  18.460  0.00  0.00    +0.000 A 
ATOM     11  F   UNL     1       3.410   3.216  17.667  0.00  0.00    +0.000 F 
ATOM     12  C   UNL     1       2.581   3.887  19.767  0.00  0.00    +0.000 A 
ATOM     13  C   UNL     1       2.111   4.906  20.592  0.00  0.00    +0.000 A 
ATOM     14  C   UNL     1       1.995   6.223  20.103  0.00  0.00    +0.000 A 
ATOM     15  C   UNL     1       1.550   7.283  20.901  0.00  0.00    +0.000 A 
ATOM     16  C   UNL     1       1.441   8.575  20.371  0.00  0.00    +0.000 A 
ENDBRANCH   1  16
BRANCH   3  17
ATOM     17  C   UNL     1      -0.482  11.580  21.677  0.00  0.00    +0.000 A 
ATOM     18  C   UNL     1      -1.521  11.143  22.524  0.00  0.00    +0.000 A 
ATOM     19  C   UNL     1      -2.157  12.015  23.407  0.00  0.00    +0.000 A 
ATOM     20  C   UNL     1      -1.806  13.351  23.414  0.00  0.00    +0.000 A 
ATOM     21  C   UNL     1      -0.817  13.812  22.545  0.00  0.00    +0.000 A 
ATOM     22  C   UNL     1      -0.114  12.949  21.678  0.00  0.00    +0.000 A 
BRANCH  22  23
ATOM     23  N   UNL     1       0.884  13.468  20.799  0.00  0.00    +0.000 N 
ATOM     24  C   UNL     1       0.646  14.122  19.599  0.00  0.00    +0.000 C 
ATOM     25  O   UNL     1      -0.449  14.347  19.091  0.00  0.00    +0.000 OA
ATOM     26  H   UNL     1       1.806  13.575  21.204  0.00  0.00    +0.000 HD
BRANCH  24  27
ATOM     27  C   UNL     1       1.819  14.647  18.852  0.00  0.00    +0.000 A 
ATOM     28  C   UNL     1       1.891  15.959  18.378  0.00  0.00    +0.000 A 
ATOM     29  C   UNL     1       3.066  16.403  17.761  0.00  0.00    +0.000 A 
ATOM     30  C   UNL     1       4.162  15.547  17.619  0.00  0.00    +0.000 A 
ATOM     31  C   UNL     1       4.099  14.246  18.109  0.00  0.00    +0.000 A 
ATOM     32  C   UNL     1       2.935  13.799  18.730  0.00  0.00    +0.000 A 
ENDBRANCH  24  27
ENDBRANCH  22  23
ENDBRANCH   3  17
TORSDOF 4
ENDMDL
MODEL 8
REMARK VINA RESULT:      -8.1      4.289      7.830
REMARK  Name = 
REMARK  5 active torsions:
REMARK  status: ('A' for Active; 'I' for Inactive)
REMARK    1  A    between atoms: C_1  and  C_2
REMARK    2  A    between atoms: C_12  and  C_13
REMARK    3  A    between atoms: N_15  and  C_16
REMARK    4  A    between atoms: C_21  and  N_22
REMARK    5  A    between atoms: C_23  and  C_25
REMARK                            x       y       z     vdW  Elec       q    Type
REMARK                         _______ _______ _______ _____ _____    ______ ____
ROOT
ATOM      1  C   UNL     1       1.120   9.631  21.282  0.00  0.00    +0.000 C 
ATOM      2  O   UNL     1       1.673   9.674  22.375  0.00  0.00    +0.000 OA
ATOM      3  N   UNL     1       0.151  10.511  20.843  0.00  0.00    +0.000 N 
ATOM      4  H   UNL     1      -0.435  10.172  20.088  0.00  0.00    +0.000 HD
ENDROOT
BRANCH   1  16
ATOM      5  C   UNL     1       1.760   9.974  18.305  0.00  0.00    +0.000 C 
ATOM      6  C   UNL     1       1.816   8.665  19.033  0.00  0.00    +0.000 A 
ATOM      7  N   UNL     1       2.235   7.618  18.267  0.00  0.00    +0.000 NA
ATOM      8  C   UNL     1       2.327   6.391  18.808  0.00  0.00    +0.000 A 
ATOM      9  C   UNL     1       2.792   5.341  18.033  0.00  0.00    +0.000 A 
ATOM     10  C   UNL     1       2.879   4.056  18.552  0.00  0.00    +0.000 A 
ATOM     11  F   UNL     1       3.332   3.059  17.780  0.00  0.00    +0.000 F 
ATOM     12  C   UNL     1       2.502   3.786  19.861  0.00  0.00    +0.000 A 
ATOM     13  C   UNL     1       2.048   4.830  20.663  0.00  0.00    +0.000 A 
ATOM     14  C   UNL     1       1.966   6.140  20.150  0.00  0.00    +0.000 A 
ATOM     15  C   UNL     1       1.539   7.224  20.925  0.00  0.00    +0.000 A 
ATOM     16  C   UNL     1       1.463   8.508  20.372  0.00  0.00    +0.000 A 
ENDBRANCH   1  16
BRANCH   3  17
ATOM     17  C   UNL     1      -0.409  11.572  21.613  0.00  0.00    +0.000 A 
ATOM     18  C   UNL     1      -1.427  11.162  22.498  0.00  0.00    +0.000 A 
ATOM     19  C   UNL     1      -2.045  12.063  23.366  0.00  0.00    +0.000 A 
ATOM     20  C   UNL     1      -1.697  13.399  23.320  0.00  0.00    +0.000 A 
ATOM     21  C   UNL     1      -0.729  13.831  22.413  0.00  0.00    +0.000 A 
ATOM     22  C   UNL     1      -0.044  12.941  21.559  0.00  0.00    +0.000 A 
BRANCH  22  23
ATOM     23  N   UNL     1       0.932  13.431  20.640  0.00  0.00    +0.000 N 
ATOM     24  C   UNL     1       2.150  14.003  20.980  0.00  0.00    +0.000 C 
ATOM     25  O   UNL     1       2.578  14.195  22.115  0.00  0.00    +0.000 OA
ATOM     26  H   UNL     1       0.825  13.115  19.684  0.00  0.00    +0.000 HD
BRANCH  24  27
ATOM     27  C   UNL     1       3.062  14.396  19.876  0.00  0.00    +0.000 A 
ATOM     28  C   UNL     1       2.643  14.504  18.547  0.00  0.00    +0.000 A 
ATOM     29  C   UNL     1       3.540  14.966  17.578  0.00  0.00    +0.000 A 
ATOM     30  C   UNL     1       4.846  15.320  17.930  0.00  0.00    +0.000 A 
ATOM     31  C   UNL     1       5.259  15.232  19.256  0.00  0.00    +0.000 A 
ATOM     32  C   UNL     1       4.369  14.779  20.226  0.00  0.00    +0.000 A 
ENDBRANCH  24  27
ENDBRANCH  22  23
ENDBRANCH   3  17
TORSDOF 4
ENDMDL
MODEL 9
REMARK VINA RESULT:      -8.1      4.872      9.003
REMARK  Name = 
REMARK  5 active torsions:
REMARK  status: ('A' for Active; 'I' for Inactive)
REMARK    1  A    between atoms: C_1  and  C_2
REMARK    2  A    between atoms: C_12  and  C_13
REMARK    3  A    between atoms: N_15  and  C_16
REMARK    4  A    between atoms: C_21  and  N_22
REMARK    5  A    between atoms: C_23  and  C_25
REMARK                            x       y       z     vdW  Elec       q    Type
REMARK                         _______ _______ _______ _____ _____    ______ ____
ROOT
ATOM      1  C   UNL     1       0.896  11.111  19.361  0.00  0.00    +0.000 C 
ATOM      2  O   UNL     1      -0.140  11.292  18.733  0.00  0.00    +0.000 OA
ATOM      3  N   UNL     1       1.799  12.094  19.714  0.00  0.00    +0.000 N 
ATOM      4  H   UNL     1       2.735  11.769  19.927  0.00  0.00    +0.000 HD
ENDROOT
BRANCH   1  16
ATOM      5  C   UNL     1       0.266   9.827  22.071  0.00  0.00    +0.000 C 
ATOM      6  C   UNL     1       0.916   9.105  20.929  0.00  0.00    +0.000 A 
ATOM      7  N   UNL     1       1.165   7.788  21.170  0.00  0.00    +0.000 NA
ATOM      8  C   UNL     1       1.747   7.035  20.220  0.00  0.00    +0.000 A 
ATOM      9  C   UNL     1       1.960   5.687  20.460  0.00  0.00    +0.000 A 
ATOM     10  C   UNL     1       2.578   4.883  19.511  0.00  0.00    +0.000 A 
ATOM     11  F   UNL     1       2.771   3.582  19.768  0.00  0.00    +0.000 F 
ATOM     12  C   UNL     1       3.000   5.406  18.296  0.00  0.00    +0.000 A 
ATOM     13  C   UNL     1       2.780   6.755  18.027  0.00  0.00    +0.000 A 
ATOM     14  C   UNL     1       2.145   7.578  18.979  0.00  0.00    +0.000 A 
ATOM     15  C   UNL     1       1.881   8.932  18.744  0.00  0.00    +0.000 A 
ATOM     16  C   UNL     1       1.255   9.715  19.722  0.00  0.00    +0.000 A 
ENDBRANCH   1  16
BRANCH   3  17
ATOM     17  C   UNL     1       1.705  13.469  19.350  0.00  0.00    +0.000 A 
ATOM     18  C   UNL     1       2.746  13.911  18.508  0.00  0.00    +0.000 A 
ATOM     19  C   UNL     1       2.778  15.214  18.010  0.00  0.00    +0.000 A 
ATOM     20  C   UNL     1       1.802  16.113  18.396  0.00  0.00    +0.000 A 
ATOM     21  C   UNL     1       0.794  15.707  19.272  0.00  0.00    +0.000 A 
ATOM     22  C   UNL     1       0.698  14.384  19.750  0.00  0.00    +0.000 A 
BRANCH  22  23
ATOM     23  N   UNL     1      -0.345  14.017  20.652  0.00  0.00    +0.000 N 
ATOM     24  C   UNL     1      -0.289  14.106  22.035  0.00  0.00    +0.000 C 
ATOM     25  O   UNL     1       0.662  14.495  22.707  0.00  0.00    +0.000 OA
ATOM     26  H   UNL     1      -1.264  13.918  20.236  0.00  0.00    +0.000 HD
BRANCH  24  27
ATOM     27  C   UNL     1      -1.506  13.734  22.802  0.00  0.00    +0.000 A 
ATOM     28  C   UNL     1      -2.157  12.508  22.645  0.00  0.00    +0.000 A 
ATOM     29  C   UNL     1      -3.246  12.196  23.467  0.00  0.00    +0.000 A 
ATOM     30  C   UNL     1      -3.681  13.098  24.442  0.00  0.00    +0.000 A 
ATOM     31  C   UNL     1      -3.021  14.311  24.615  0.00  0.00    +0.000 A 
ATOM     32  C   UNL     1      -1.933  14.625  23.803  0.00  0.00    +0.000 A 
ENDBRANCH  24  27
ENDBRANCH  22  23
ENDBRANCH   3  17
TORSDOF 4
ENDMDL
