MODEL 1
REMARK VINA RESULT:      -9.7      0.000      0.000
REMARK  Name = 
REMARK  3 active torsions:
REMARK  status: ('A' for Active; 'I' for Inactive)
REMARK    1  A    between atoms: C_2  and  C_13
REMARK    2  A    between atoms: N_3  and  C_4
REMARK    3  A    between atoms: C_16  and  N_17
REMARK                            x       y       z     vdW  Elec       q    Type
REMARK                         _______ _______ _______ _____ _____    ______ ____
ROOT
ATOM      1  C   UNL     1       2.794   7.692  18.410  0.00  0.00    +0.000 A 
ATOM      2  C   UNL     1       2.784   6.837  19.517  0.00  0.00    +0.000 A 
ATOM      3  C   UNL     1       3.530   5.662  19.495  0.00  0.00    +0.000 A 
ATOM      4  C   UNL     1       4.240   5.309  18.336  0.00  0.00    +0.000 A 
ATOM      5  C   UNL     1       4.430   6.288  17.340  0.00  0.00    +0.000 A 
ATOM      6  C   UNL     1       3.686   7.470  17.363  0.00  0.00    +0.000 A 
ENDROOT
BRANCH   4   7
ATOM      7  N   UNL     1       4.505   3.897  18.056  0.00  0.00    +0.000 N 
ATOM      8  C   UNL     1       3.758   3.391  17.012  0.00  0.00    +0.000 A 
ATOM      9  N   UNL     1       2.572   2.885  17.160  0.00  0.00    +0.000 NA
ATOM     10  C   UNL     1       2.097   2.854  18.491  0.00  0.00    +0.000 A 
ATOM     11  C   UNL     1       0.739   2.964  18.773  0.00  0.00    +0.000 A 
ATOM     12  C   UNL     1       0.304   3.026  20.103  0.00  0.00    +0.000 A 
ATOM     13  C   UNL     1       1.219   2.922  21.157  0.00  0.00    +0.000 A 
ATOM     14  C   UNL     1       2.582   2.805  20.893  0.00  0.00    +0.000 A 
ATOM     15  C   UNL     1       2.998   2.816  19.562  0.00  0.00    +0.000 A 
ATOM     16  C   UNL     1       4.408   3.086  19.189  0.00  0.00    +0.000 A 
ATOM     17  O   UNL     1       5.347   2.669  19.855  0.00  0.00    +0.000 OA
ENDBRANCH   4   7
BRANCH   1  19
ATOM     18  O   UNL     1       1.874   9.564  17.434  0.00  0.00    +0.000 OA
ATOM     19  C   UNL     1       1.802   8.788  18.377  0.00  0.00    +0.000 C 
ATOM     20  N   UNL     1       0.974   8.890  19.482  0.00  0.00    +0.000 N 
ATOM     21  H   UNL     1       1.144   8.256  20.257  0.00  0.00    +0.000 HD
BRANCH  20  22
ATOM     22  C   UNL     1       0.059   9.940  19.740  0.00  0.00    +0.000 A 
ATOM     23  C   UNL     1      -0.851  10.391  18.764  0.00  0.00    +0.000 A 
ATOM     24  C   UNL     1      -1.700  11.471  18.997  0.00  0.00    +0.000 A 
ATOM     25  C   UNL     1      -1.654  12.082  20.230  0.00  0.00    +0.000 A 
ATOM     26  C   UNL     1      -0.777  11.637  21.223  0.00  0.00    +0.000 A 
ATOM     27  C   UNL     1       0.085  10.566  20.996  0.00  0.00    +0.000 A 
ATOM     28  C   UNL     1      -0.896  12.506  22.440  0.00  0.00    +0.000 C 
ATOM     29  C   UNL     1      -2.259  13.180  22.198  0.00  0.00    +0.000 C 
ATOM     30  C   UNL     1      -2.431  13.278  20.679  0.00  0.00    +0.000 C 
ENDBRANCH  20  22
ENDBRANCH   1  19
TORSDOF 3
ENDMDL
MODEL 2
REMARK VINA RESULT:      -9.5      1.559      2.427
REMARK  Name = 
REMARK  3 active torsions:
REMARK  status: ('A' for Active; 'I' for Inactive)
REMARK    1  A    between atoms: C_2  and  C_13
REMARK    2  A    between atoms: N_3  and  C_4
REMARK    3  A    between atoms: C_16  and  N_17
REMARK                            x       y       z     vdW  Elec       q    Type
REMARK                         _______ _______ _______ _____ _____    ______ ____
ROOT
ATOM      1  C   UNL     1       2.187   7.978  18.993  0.00  0.00    +0.000 A 
ATOM      2  C   UNL     1       2.528   7.039  19.973  0.00  0.00    +0.000 A 
ATOM      3  C   UNL     1       3.412   6.008  19.669  0.00  0.00    +0.000 A 
ATOM      4  C   UNL     1       3.909   5.878  18.362  0.00  0.00    +0.000 A 
ATOM      5  C   UNL     1       3.748   6.957  17.472  0.00  0.00    +0.000 A 
ATOM      6  C   UNL     1       2.865   7.996  17.776  0.00  0.00    +0.000 A 
ENDROOT
BRANCH   4   7
ATOM      7  N   UNL     1       4.308   4.558  17.871  0.00  0.00    +0.000 N 
ATOM      8  C   UNL     1       3.498   4.076  16.863  0.00  0.00    +0.000 A 
ATOM      9  N   UNL     1       2.413   3.396  17.080  0.00  0.00    +0.000 NA
ATOM     10  C   UNL     1       2.126   3.147  18.440  0.00  0.00    +0.000 A 
ATOM     11  C   UNL     1       0.813   3.034  18.888  0.00  0.00    +0.000 A 
ATOM     12  C   UNL     1       0.553   2.883  20.256  0.00  0.00    +0.000 A 
ATOM     13  C   UNL     1       1.604   2.787  21.176  0.00  0.00    +0.000 A 
ATOM     14  C   UNL     1       2.924   2.892  20.743  0.00  0.00    +0.000 A 
ATOM     15  C   UNL     1       3.157   3.113  19.387  0.00  0.00    +0.000 A 
ATOM     16  C   UNL     1       4.461   3.616  18.892  0.00  0.00    +0.000 A 
ATOM     17  O   UNL     1       5.524   3.260  19.385  0.00  0.00    +0.000 OA
ENDBRANCH   4   7
BRANCH   1  19
ATOM     18  O   UNL     1       0.756   9.033  20.457  0.00  0.00    +0.000 OA
ATOM     19  C   UNL     1       1.065   8.897  19.281  0.00  0.00    +0.000 C 
ATOM     20  N   UNL     1       0.403   9.411  18.178  0.00  0.00    +0.000 N 
ATOM     21  H   UNL     1       0.687   9.077  17.262  0.00  0.00    +0.000 HD
BRANCH  20  22
ATOM     22  C   UNL     1      -0.783  10.184  18.208  0.00  0.00    +0.000 A 
ATOM     23  C   UNL     1      -1.006  11.169  19.190  0.00  0.00    +0.000 A 
ATOM     24  C   UNL     1      -2.204  11.877  19.258  0.00  0.00    +0.000 A 
ATOM     25  C   UNL     1      -3.172  11.613  18.316  0.00  0.00    +0.000 A 
ATOM     26  C   UNL     1      -2.964  10.657  17.317  0.00  0.00    +0.000 A 
ATOM     27  C   UNL     1      -1.775   9.935  17.246  0.00  0.00    +0.000 A 
ATOM     28  C   UNL     1      -4.190  10.535  16.460  0.00  0.00    +0.000 C 
ATOM     29  C   UNL     1      -4.921  11.850  16.789  0.00  0.00    +0.000 C 
ATOM     30  C   UNL     1      -4.540  12.210  18.228  0.00  0.00    +0.000 C 
ENDBRANCH  20  22
ENDBRANCH   1  19
TORSDOF 3
ENDMDL
MODEL 3
REMARK VINA RESULT:      -9.3      5.513      7.482
REMARK  Name = 
REMARK  3 active torsions:
REMARK  status: ('A' for Active; 'I' for Inactive)
REMARK    1  A    between atoms: C_2  and  C_13
REMARK    2  A    between atoms: N_3  and  C_4
REMARK    3  A    between atoms: C_16  and  N_17
REMARK                            x       y       z     vdW  Elec       q    Type
REMARK                         _______ _______ _______ _____ _____    ______ ____
ROOT
ATOM      1  C   UNL     1       7.749   7.386  17.926  0.00  0.00    +0.000 A 
ATOM      2  C   UNL     1       7.858   6.487  18.992  0.00  0.00    +0.000 A 
ATOM      3  C   UNL     1       7.382   5.187  18.855  0.00  0.00    +0.000 A 
ATOM      4  C   UNL     1       6.735   4.802  17.669  0.00  0.00    +0.000 A 
ATOM      5  C   UNL     1       6.853   5.635  16.539  0.00  0.00    +0.000 A 
ATOM      6  C   UNL     1       7.336   6.939  16.673  0.00  0.00    +0.000 A 
ENDROOT
BRANCH   4   7
ATOM      7  N   UNL     1       5.738   3.731  17.707  0.00  0.00    +0.000 N 
ATOM      8  C   UNL     1       4.944   3.676  16.580  0.00  0.00    +0.000 A 
ATOM      9  N   UNL     1       3.847   4.358  16.443  0.00  0.00    +0.000 NA
ATOM     10  C   UNL     1       3.494   5.152  17.557  0.00  0.00    +0.000 A 
ATOM     11  C   UNL     1       2.800   6.347  17.398  0.00  0.00    +0.000 A 
ATOM     12  C   UNL     1       2.546   7.161  18.509  0.00  0.00    +0.000 A 
ATOM     13  C   UNL     1       2.934   6.758  19.792  0.00  0.00    +0.000 A 
ATOM     14  C   UNL     1       3.623   5.560  19.971  0.00  0.00    +0.000 A 
ATOM     15  C   UNL     1       3.927   4.800  18.842  0.00  0.00    +0.000 A 
ATOM     16  C   UNL     1       4.965   3.742  18.872  0.00  0.00    +0.000 A 
ATOM     17  O   UNL     1       5.127   3.018  19.845  0.00  0.00    +0.000 OA
ENDBRANCH   4   7
BRANCH   1  19
ATOM     18  O   UNL     1       7.485   9.628  17.470  0.00  0.00    +0.000 OA
ATOM     19  C   UNL     1       8.036   8.812  18.195  0.00  0.00    +0.000 C 
ATOM     20  N   UNL     1       8.993   9.065  19.163  0.00  0.00    +0.000 N 
ATOM     21  H   UNL     1       9.473   8.268  19.570  0.00  0.00    +0.000 HD
BRANCH  20  22
ATOM     22  C   UNL     1       9.535  10.335  19.482  0.00  0.00    +0.000 A 
ATOM     23  C   UNL     1       9.420  10.893  20.770  0.00  0.00    +0.000 A 
ATOM     24  C   UNL     1       9.892  12.171  21.060  0.00  0.00    +0.000 A 
ATOM     25  C   UNL     1      10.509  12.881  20.055  0.00  0.00    +0.000 A 
ATOM     26  C   UNL     1      10.657  12.339  18.775  0.00  0.00    +0.000 A 
ATOM     27  C   UNL     1      10.179  11.066  18.471  0.00  0.00    +0.000 A 
ATOM     28  C   UNL     1      11.315  13.337  17.868  0.00  0.00    +0.000 C 
ATOM     29  C   UNL     1      11.943  14.305  18.888  0.00  0.00    +0.000 C 
ATOM     30  C   UNL     1      11.041  14.277  20.126  0.00  0.00    +0.000 C 
ENDBRANCH  20  22
ENDBRANCH   1  19
TORSDOF 3
ENDMDL
MODEL 4
REMARK VINA RESULT:      -9.3      2.414      4.281
REMARK  Name = 
REMARK  3 active torsions:
REMARK  status: ('A' for Active; 'I' for Inactive)
REMARK    1  A    between atoms: C_2  and  C_13
REMARK    2  A    between atoms: N_3  and  C_4
REMARK    3  A    between atoms: C_16  and  N_17
REMARK                            x       y       z     vdW  Elec       q    Type
REMARK                         _______ _______ _______ _____ _____    ______ ____
ROOT
ATOM      1  C   UNL     1       1.555   8.475  19.312  0.00  0.00    +0.000 A 
ATOM      2  C   UNL     1       1.912   7.365  20.085  0.00  0.00    +0.000 A 
ATOM      3  C   UNL     1       2.854   6.459  19.605  0.00  0.00    +0.000 A 
ATOM      4  C   UNL     1       3.393   6.629  18.320  0.00  0.00    +0.000 A 
ATOM      5  C   UNL     1       3.205   7.865  17.670  0.00  0.00    +0.000 A 
ATOM      6  C   UNL     1       2.265   8.778  18.152  0.00  0.00    +0.000 A 
ENDROOT
BRANCH   4   7
ATOM      7  N   UNL     1       3.869   5.460  17.578  0.00  0.00    +0.000 N 
ATOM      8  C   UNL     1       4.157   4.376  18.381  0.00  0.00    +0.000 A 
ATOM      9  N   UNL     1       5.313   4.186  18.940  0.00  0.00    +0.000 NA
ATOM     10  C   UNL     1       6.289   5.163  18.641  0.00  0.00    +0.000 A 
ATOM     11  C   UNL     1       7.281   5.493  19.559  0.00  0.00    +0.000 A 
ATOM     12  C   UNL     1       8.178   6.531  19.275  0.00  0.00    +0.000 A 
ATOM     13  C   UNL     1       8.123   7.206  18.050  0.00  0.00    +0.000 A 
ATOM     14  C   UNL     1       7.140   6.883  17.117  0.00  0.00    +0.000 A 
ATOM     15  C   UNL     1       6.215   5.895  17.449  0.00  0.00    +0.000 A 
ATOM     16  C   UNL     1       4.932   5.752  16.720  0.00  0.00    +0.000 A 
ATOM     17  O   UNL     1       4.850   5.927  15.510  0.00  0.00    +0.000 OA
ENDBRANCH   4   7
BRANCH   1  19
ATOM     18  O   UNL     1      -0.068   9.017  20.854  0.00  0.00    +0.000 OA
ATOM     19  C   UNL     1       0.381   9.266  19.744  0.00  0.00    +0.000 C 
ATOM     20  N   UNL     1      -0.158  10.118  18.795  0.00  0.00    +0.000 N 
ATOM     21  H   UNL     1       0.242  10.097  17.862  0.00  0.00    +0.000 HD
BRANCH  20  22
ATOM     22  C   UNL     1      -1.360  10.855  18.930  0.00  0.00    +0.000 A 
ATOM     23  C   UNL     1      -1.513  11.860  19.905  0.00  0.00    +0.000 A 
ATOM     24  C   UNL     1      -2.720  12.533  20.080  0.00  0.00    +0.000 A 
ATOM     25  C   UNL     1      -3.771  12.213  19.251  0.00  0.00    +0.000 A 
ATOM     26  C   UNL     1      -3.636  11.237  18.260  0.00  0.00    +0.000 A 
ATOM     27  C   UNL     1      -2.437  10.550  18.083  0.00  0.00    +0.000 A 
ATOM     28  C   UNL     1      -4.940  11.053  17.539  0.00  0.00    +0.000 C 
ATOM     29  C   UNL     1      -5.676  12.354  17.910  0.00  0.00    +0.000 C 
ATOM     30  C   UNL     1      -5.160  12.766  19.292  0.00  0.00    +0.000 C 
ENDBRANCH  20  22
ENDBRANCH   1  19
TORSDOF 3
ENDMDL
MODEL 5
REMARK VINA RESULT:      -9.2      0.494      1.320
REMARK  Name = 
REMARK  3 active torsions:
REMARK  status: ('A' for Active; 'I' for Inactive)
REMARK    1  A    between atoms: C_2  and  C_13
REMARK    2  A    between atoms: N_3  and  C_4
REMARK    3  A    between atoms: C_16  and  N_17
REMARK                            x       y       z     vdW  Elec       q    Type
REMARK                         _______ _______ _______ _____ _____    ______ ____
ROOT
ATOM      1  C   UNL     1       2.926   7.509  18.442  0.00  0.00    +0.000 A 
ATOM      2  C   UNL     1       3.062   6.710  19.583  0.00  0.00    +0.000 A 
ATOM      3  C   UNL     1       3.777   5.518  19.515  0.00  0.00    +0.000 A 
ATOM      4  C   UNL     1       4.303   5.090  18.286  0.00  0.00    +0.000 A 
ATOM      5  C   UNL     1       4.364   6.012  17.223  0.00  0.00    +0.000 A 
ATOM      6  C   UNL     1       3.652   7.212  17.290  0.00  0.00    +0.000 A 
ENDROOT
BRANCH   4   7
ATOM      7  N   UNL     1       4.500   3.660  18.045  0.00  0.00    +0.000 N 
ATOM      8  C   UNL     1       3.716   3.158  17.026  0.00  0.00    +0.000 A 
ATOM      9  N   UNL     1       2.510   2.712  17.205  0.00  0.00    +0.000 NA
ATOM     10  C   UNL     1       2.053   2.742  18.542  0.00  0.00    +0.000 A 
ATOM     11  C   UNL     1       0.706   2.923  18.837  0.00  0.00    +0.000 A 
ATOM     12  C   UNL     1       0.293   3.044  20.170  0.00  0.00    +0.000 A 
ATOM     13  C   UNL     1       1.216   2.930  21.216  0.00  0.00    +0.000 A 
ATOM     14  C   UNL     1       2.568   2.742  20.938  0.00  0.00    +0.000 A 
ATOM     15  C   UNL     1       2.967   2.694  19.603  0.00  0.00    +0.000 A 
ATOM     16  C   UNL     1       4.381   2.887  19.204  0.00  0.00    +0.000 A 
ATOM     17  O   UNL     1       5.310   2.447  19.870  0.00  0.00    +0.000 OA
ENDBRANCH   4   7
BRANCH   1  19
ATOM     18  O   UNL     1       1.894   9.342  17.505  0.00  0.00    +0.000 OA
ATOM     19  C   UNL     1       1.960   8.627  18.495  0.00  0.00    +0.000 C 
ATOM     20  N   UNL     1       1.319   8.817  19.708  0.00  0.00    +0.000 N 
ATOM     21  H   UNL     1       1.598   8.227  20.485  0.00  0.00    +0.000 HD
BRANCH  20  22
ATOM     22  C   UNL     1       0.473   9.905  20.038  0.00  0.00    +0.000 A 
ATOM     23  C   UNL     1       0.694  10.702  21.178  0.00  0.00    +0.000 A 
ATOM     24  C   UNL     1      -0.181  11.725  21.537  0.00  0.00    +0.000 A 
ATOM     25  C   UNL     1      -1.269  11.966  20.729  0.00  0.00    +0.000 A 
ATOM     26  C   UNL     1      -1.496  11.204  19.579  0.00  0.00    +0.000 A 
ATOM     27  C   UNL     1      -0.634  10.172  19.216  0.00  0.00    +0.000 A 
ATOM     28  C   UNL     1      -2.769  11.642  18.916  0.00  0.00    +0.000 C 
ATOM     29  C   UNL     1      -2.975  13.032  19.546  0.00  0.00    +0.000 C 
ATOM     30  C   UNL     1      -2.355  12.970  20.946  0.00  0.00    +0.000 C 
ENDBRANCH  20  22
ENDBRANCH   1  19
TORSDOF 3
ENDMDL
MODEL 6
REMARK VINA RESULT:      -9.2      1.768      3.241
REMARK  Name = 
REMARK  3 active torsions:
REMARK  status: ('A' for Active; 'I' for Inactive)
REMARK    1  A    between atoms: C_2  and  C_13
REMARK    2  A    between atoms: N_3  and  C_4
REMARK    3  A    between atoms: C_16  and  N_17
REMARK                            x       y       z     vdW  Elec       q    Type
REMARK                         _______ _______ _______ _____ _____    ______ ____
ROOT
ATOM      1  C   UNL     1       1.855   8.414  19.059  0.00  0.00    +0.000 A 
ATOM      2  C   UNL     1       1.951   7.660  20.233  0.00  0.00    +0.000 A 
ATOM      3  C   UNL     1       2.523   6.392  20.200  0.00  0.00    +0.000 A 
ATOM      4  C   UNL     1       2.944   5.849  18.975  0.00  0.00    +0.000 A 
ATOM      5  C   UNL     1       3.060   6.708  17.864  0.00  0.00    +0.000 A 
ATOM      6  C   UNL     1       2.491   7.983  17.897  0.00  0.00    +0.000 A 
ENDROOT
BRANCH   4   7
ATOM      7  N   UNL     1       2.968   4.396  18.800  0.00  0.00    +0.000 N 
ATOM      8  C   UNL     1       3.846   3.753  19.649  0.00  0.00    +0.000 A 
ATOM      9  N   UNL     1       5.099   3.561  19.371  0.00  0.00    +0.000 NA
ATOM     10  C   UNL     1       5.510   4.033  18.104  0.00  0.00    +0.000 A 
ATOM     11  C   UNL     1       6.807   4.489  17.892  0.00  0.00    +0.000 A 
ATOM     12  C   UNL     1       7.160   5.040  16.653  0.00  0.00    +0.000 A 
ATOM     13  C   UNL     1       6.236   5.085  15.603  0.00  0.00    +0.000 A 
ATOM     14  C   UNL     1       4.934   4.626  15.797  0.00  0.00    +0.000 A 
ATOM     15  C   UNL     1       4.585   4.147  17.058  0.00  0.00    +0.000 A 
ATOM     16  C   UNL     1       3.168   4.006  17.474  0.00  0.00    +0.000 A 
ATOM     17  O   UNL     1       2.298   3.636  16.696  0.00  0.00    +0.000 OA
ENDBRANCH   4   7
BRANCH   1  19
ATOM     18  O   UNL     1       1.320  10.523  18.303  0.00  0.00    +0.000 OA
ATOM     19  C   UNL     1       1.023   9.637  19.092  0.00  0.00    +0.000 C 
ATOM     20  N   UNL     1       0.072   9.696  20.096  0.00  0.00    +0.000 N 
ATOM     21  H   UNL     1       0.053   8.938  20.771  0.00  0.00    +0.000 HD
BRANCH  20  22
ATOM     22  C   UNL     1      -0.730  10.819  20.414  0.00  0.00    +0.000 A 
ATOM     23  C   UNL     1      -1.651  11.363  19.496  0.00  0.00    +0.000 A 
ATOM     24  C   UNL     1      -2.385  12.510  19.788  0.00  0.00    +0.000 A 
ATOM     25  C   UNL     1      -2.214  13.098  21.020  0.00  0.00    +0.000 A 
ATOM     26  C   UNL     1      -1.326  12.563  21.957  0.00  0.00    +0.000 A 
ATOM     27  C   UNL     1      -0.578  11.423  21.673  0.00  0.00    +0.000 A 
ATOM     28  C   UNL     1      -1.298  13.423  23.187  0.00  0.00    +0.000 C 
ATOM     29  C   UNL     1      -2.607  14.219  23.029  0.00  0.00    +0.000 C 
ATOM     30  C   UNL     1      -2.855  14.352  21.523  0.00  0.00    +0.000 C 
ENDBRANCH  20  22
ENDBRANCH   1  19
TORSDOF 3
ENDMDL
MODEL 7
REMARK VINA RESULT:      -9.2      0.931      1.542
REMARK  Name = 
REMARK  3 active torsions:
REMARK  status: ('A' for Active; 'I' for Inactive)
REMARK    1  A    between atoms: C_2  and  C_13
REMARK    2  A    between atoms: N_3  and  C_4
REMARK    3  A    between atoms: C_16  and  N_17
REMARK                            x       y       z     vdW  Elec       q    Type
REMARK                         _______ _______ _______ _____ _____    ______ ____
ROOT
ATOM      1  C   UNL     1       2.170   8.016  19.054  0.00  0.00    +0.000 A 
ATOM      2  C   UNL     1       2.446   7.030  20.007  0.00  0.00    +0.000 A 
ATOM      3  C   UNL     1       3.276   5.962  19.681  0.00  0.00    +0.000 A 
ATOM      4  C   UNL     1       3.782   5.844  18.377  0.00  0.00    +0.000 A 
ATOM      5  C   UNL     1       3.692   6.958  17.518  0.00  0.00    +0.000 A 
ATOM      6  C   UNL     1       2.863   8.033  17.845  0.00  0.00    +0.000 A 
ENDROOT
BRANCH   4   7
ATOM      7  N   UNL     1       4.114   4.520  17.849  0.00  0.00    +0.000 N 
ATOM      8  C   UNL     1       3.172   4.022  16.972  0.00  0.00    +0.000 A 
ATOM      9  N   UNL     1       2.132   3.342  17.348  0.00  0.00    +0.000 NA
ATOM     10  C   UNL     1       2.042   3.108  18.739  0.00  0.00    +0.000 A 
ATOM     11  C   UNL     1       0.807   2.996  19.370  0.00  0.00    +0.000 A 
ATOM     12  C   UNL     1       0.744   2.861  20.763  0.00  0.00    +0.000 A 
ATOM     13  C   UNL     1       1.916   2.780  21.525  0.00  0.00    +0.000 A 
ATOM     14  C   UNL     1       3.160   2.884  20.908  0.00  0.00    +0.000 A 
ATOM     15  C   UNL     1       3.198   3.089  19.529  0.00  0.00    +0.000 A 
ATOM     16  C   UNL     1       4.415   3.591  18.849  0.00  0.00    +0.000 A 
ATOM     17  O   UNL     1       5.539   3.245  19.190  0.00  0.00    +0.000 OA
ENDBRANCH   4   7
BRANCH   1  19
ATOM     18  O   UNL     1       0.653   9.627  18.414  0.00  0.00    +0.000 OA
ATOM     19  C   UNL     1       1.096   8.986  19.358  0.00  0.00    +0.000 C 
ATOM     20  N   UNL     1       0.791   9.153  20.698  0.00  0.00    +0.000 N 
ATOM     21  H   UNL     1       1.360   8.655  21.375  0.00  0.00    +0.000 HD
BRANCH  20  22
ATOM     22  C   UNL     1      -0.087  10.126  21.234  0.00  0.00    +0.000 A 
ATOM     23  C   UNL     1      -0.406  10.169  22.606  0.00  0.00    +0.000 A 
ATOM     24  C   UNL     1      -1.325  11.082  23.116  0.00  0.00    +0.000 A 
ATOM     25  C   UNL     1      -1.906  11.977  22.247  0.00  0.00    +0.000 A 
ATOM     26  C   UNL     1      -1.587  11.972  20.886  0.00  0.00    +0.000 A 
ATOM     27  C   UNL     1      -0.678  11.055  20.362  0.00  0.00    +0.000 A 
ATOM     28  C   UNL     1      -2.395  13.011  20.166  0.00  0.00    +0.000 C 
ATOM     29  C   UNL     1      -2.842  13.910  21.333  0.00  0.00    +0.000 C 
ATOM     30  C   UNL     1      -2.947  13.004  22.564  0.00  0.00    +0.000 C 
ENDBRANCH  20  22
ENDBRANCH   1  19
TORSDOF 3
ENDMDL
MODEL 8
REMARK VINA RESULT:      -9.1      2.004      3.487
REMARK  Name = 
REMARK  3 active torsions:
REMARK  status: ('A' for Active; 'I' for Inactive)
REMARK    1  A    between atoms: C_2  and  C_13
REMARK    2  A    between atoms: N_3  and  C_4
REMARK    3  A    between atoms: C_16  and  N_17
REMARK                            x       y       z     vdW  Elec       q    Type
REMARK                         _______ _______ _______ _____ _____    ______ ____
ROOT
ATOM      1  C   UNL     1       1.666   8.240  19.535  0.00  0.00    +0.000 A 
ATOM      2  C   UNL     1       1.927   7.412  20.631  0.00  0.00    +0.000 A 
ATOM      3  C   UNL     1       2.546   6.180  20.440  0.00  0.00    +0.000 A 
ATOM      4  C   UNL     1       2.848   5.747  19.138  0.00  0.00    +0.000 A 
ATOM      5  C   UNL     1       2.800   6.686  18.089  0.00  0.00    +0.000 A 
ATOM      6  C   UNL     1       2.184   7.925  18.281  0.00  0.00    +0.000 A 
ENDROOT
BRANCH   4   7
ATOM      7  N   UNL     1       2.915   4.312  18.854  0.00  0.00    +0.000 N 
ATOM      8  C   UNL     1       3.804   3.631  19.660  0.00  0.00    +0.000 A 
ATOM      9  N   UNL     1       5.064   3.495  19.379  0.00  0.00    +0.000 NA
ATOM     10  C   UNL     1       5.470   4.074  18.156  0.00  0.00    +0.000 A 
ATOM     11  C   UNL     1       6.756   4.581  17.992  0.00  0.00    +0.000 A 
ATOM     12  C   UNL     1       7.102   5.234  16.802  0.00  0.00    +0.000 A 
ATOM     13  C   UNL     1       6.184   5.334  15.750  0.00  0.00    +0.000 A 
ATOM     14  C   UNL     1       4.895   4.826  15.896  0.00  0.00    +0.000 A 
ATOM     15  C   UNL     1       4.550   4.243  17.114  0.00  0.00    +0.000 A 
ATOM     16  C   UNL     1       3.136   4.031  17.503  0.00  0.00    +0.000 A 
ATOM     17  O   UNL     1       2.281   3.697  16.692  0.00  0.00    +0.000 OA
ENDBRANCH   4   7
BRANCH   1  19
ATOM     18  O   UNL     1       0.311   9.930  18.751  0.00  0.00    +0.000 OA
ATOM     19  C   UNL     1       0.792   9.413  19.751  0.00  0.00    +0.000 C 
ATOM     20  N   UNL     1       0.708   9.876  21.053  0.00  0.00    +0.000 N 
ATOM     21  H   UNL     1       1.293   9.426  21.750  0.00  0.00    +0.000 HD
BRANCH  20  22
ATOM     22  C   UNL     1       0.058  11.063  21.472  0.00  0.00    +0.000 A 
ATOM     23  C   UNL     1       0.556  12.340  21.148  0.00  0.00    +0.000 A 
ATOM     24  C   UNL     1      -0.046  13.503  21.622  0.00  0.00    +0.000 A 
ATOM     25  C   UNL     1      -1.173  13.382  22.403  0.00  0.00    +0.000 A 
ATOM     26  C   UNL     1      -1.701  12.127  22.717  0.00  0.00    +0.000 A 
ATOM     27  C   UNL     1      -1.100  10.956  22.259  0.00  0.00    +0.000 A 
ATOM     28  C   UNL     1      -2.892  12.281  23.617  0.00  0.00    +0.000 C 
ATOM     29  C   UNL     1      -3.256  13.760  23.384  0.00  0.00    +0.000 C 
ATOM     30  C   UNL     1      -1.947  14.483  23.056  0.00  0.00    +0.000 C 
ENDBRANCH  20  22
ENDBRANCH   1  19
TORSDOF 3
ENDMDL
MODEL 9
REMARK VINA RESULT:      -9.1      2.552      3.817
REMARK  Name = 
REMARK  3 active torsions:
REMARK  status: ('A' for Active; 'I' for Inactive)
REMARK    1  A    between atoms: C_2  and  C_13
REMARK    2  A    between atoms: N_3  and  C_4
REMARK    3  A    between atoms: C_16  and  N_17
REMARK                            x       y       z     vdW  Elec       q    Type
REMARK                         _______ _______ _______ _____ _____    ______ ____
ROOT
ATOM      1  C   UNL     1       1.891   8.455  18.798  0.00  0.00    +0.000 A 
ATOM      2  C   UNL     1       1.831   7.750  20.005  0.00  0.00    +0.000 A 
ATOM      3  C   UNL     1       2.394   6.481  20.098  0.00  0.00    +0.000 A 
ATOM      4  C   UNL     1       2.964   5.887  18.961  0.00  0.00    +0.000 A 
ATOM      5  C   UNL     1       3.227   6.698  17.839  0.00  0.00    +0.000 A 
ATOM      6  C   UNL     1       2.667   7.974  17.746  0.00  0.00    +0.000 A 
ENDROOT
BRANCH   4   7
ATOM      7  N   UNL     1       3.001   4.428  18.852  0.00  0.00    +0.000 N 
ATOM      8  C   UNL     1       3.903   3.832  19.710  0.00  0.00    +0.000 A 
ATOM      9  N   UNL     1       5.152   3.641  19.415  0.00  0.00    +0.000 NA
ATOM     10  C   UNL     1       5.531   4.058  18.119  0.00  0.00    +0.000 A 
ATOM     11  C   UNL     1       6.819   4.517  17.859  0.00  0.00    +0.000 A 
ATOM     12  C   UNL     1       7.140   5.015  16.590  0.00  0.00    +0.000 A 
ATOM     13  C   UNL     1       6.193   5.003  15.559  0.00  0.00    +0.000 A 
ATOM     14  C   UNL     1       4.901   4.540  15.800  0.00  0.00    +0.000 A 
ATOM     15  C   UNL     1       4.583   4.116  17.089  0.00  0.00    +0.000 A 
ATOM     16  C   UNL     1       3.178   3.980  17.540  0.00  0.00    +0.000 A 
ATOM     17  O   UNL     1       2.295   3.566  16.799  0.00  0.00    +0.000 OA
ENDBRANCH   4   7
BRANCH   1  19
ATOM     18  O   UNL     1       0.210   9.675  17.803  0.00  0.00    +0.000 OA
ATOM     19  C   UNL     1       1.070   9.678  18.673  0.00  0.00    +0.000 C 
ATOM     20  N   UNL     1       1.443  10.744  19.475  0.00  0.00    +0.000 N 
ATOM     21  H   UNL     1       2.281  10.637  20.038  0.00  0.00    +0.000 HD
BRANCH  20  22
ATOM     22  C   UNL     1       0.904  12.053  19.419  0.00  0.00    +0.000 A 
ATOM     23  C   UNL     1      -0.458  12.310  19.669  0.00  0.00    +0.000 A 
ATOM     24  C   UNL     1      -0.997  13.588  19.544  0.00  0.00    +0.000 A 
ATOM     25  C   UNL     1      -0.156  14.619  19.193  0.00  0.00    +0.000 A 
ATOM     26  C   UNL     1       1.205  14.393  18.964  0.00  0.00    +0.000 A 
ATOM     27  C   UNL     1       1.753  13.117  19.076  0.00  0.00    +0.000 A 
ATOM     28  C   UNL     1       1.875  15.671  18.551  0.00  0.00    +0.000 C 
ATOM     29  C   UNL     1       0.853  16.718  19.032  0.00  0.00    +0.000 C 
ATOM     30  C   UNL     1      -0.523  16.049  18.954  0.00  0.00    +0.000 C 
ENDBRANCH  20  22
ENDBRANCH   1  19
TORSDOF 3
ENDMDL
