MODEL 1
REMARK VINA RESULT:      -9.0      0.000      0.000
REMARK  Name = 
REMARK  7 active torsions:
REMARK  status: ('A' for Active; 'I' for Inactive)
REMARK    1  A    between atoms: C_1  and  N_2
REMARK    2  A    between atoms: C_6  and  C_7
REMARK    3  A    between atoms: C_7  and  C_8
REMARK    4  A    between atoms: C_8  and  C_9
REMARK    5  A    between atoms: C_13  and  N_14
REMARK    6  A    between atoms: C_17  and  C_18
REMARK    7  A    between atoms: C_18  and  C_19
REMARK                            x       y       z     vdW  Elec       q    Type
REMARK                         _______ _______ _______ _____ _____    ______ ____
ROOT
ATOM      1  C   UNL     1       4.509   4.850  17.188  0.00  0.00    +0.000 A 
ATOM      2  C   UNL     1       3.673   3.731  17.042  0.00  0.00    +0.000 A 
ATOM      3  C   UNL     1       2.373   3.720  17.546  0.00  0.00    +0.000 A 
ATOM      4  C   UNL     1       1.862   4.842  18.204  0.00  0.00    +0.000 A 
ATOM      5  C   UNL     1       2.635   5.994  18.343  0.00  0.00    +0.000 A 
ATOM      6  C   UNL     1       3.940   5.969  17.829  0.00  0.00    +0.000 A 
ENDROOT
BRANCH   5   7
ATOM      7  N   UNL     1       2.159   7.164  18.992  0.00  0.00    +0.000 N 
ATOM      8  C   UNL     1       1.823   7.172  20.395  0.00  0.00    +0.000 C 
ATOM      9  C   UNL     1       1.331   8.557  20.587  0.00  0.00    +0.000 C 
ATOM     10  C   UNL     1       1.394   9.280  19.464  0.00  0.00    +0.000 C 
ATOM     11  C   UNL     1       1.973   8.424  18.422  0.00  0.00    +0.000 C 
ATOM     12  O   UNL     1       2.201   8.808  17.289  0.00  0.00    +0.000 OA
BRANCH  10  13
ATOM     13  C   UNL     1       0.941  10.659  19.186  0.00  0.00    +0.000 C 
ATOM     14  C   UNL     1       0.487  11.407  20.429  0.00  0.00    +0.000 C 
ATOM     15  F   UNL     1       1.962  11.383  18.634  0.00  0.00    +0.000 F 
ATOM     16  F   UNL     1      -0.054  10.680  18.258  0.00  0.00    +0.000 F 
ENDBRANCH  10  13
ENDBRANCH   5   7
BRANCH   1  17
ATOM     17  C   UNL     1       6.051   4.860  16.723  0.00  0.00    +0.000 C 
ATOM     18  C   UNL     1       6.755   6.248  16.637  0.00  0.00    +0.000 C 
ATOM     19  O   UNL     1       7.718   5.892  17.651  0.00  0.00    +0.000 OA
ATOM     20  C   UNL     1       7.074   4.628  17.875  0.00  0.00    +0.000 C 
BRANCH  17  21
ATOM     21  C   UNL     1       6.296   3.930  15.507  0.00  0.00    +0.000 C 
BRANCH  21  27
ATOM     22  C   UNL     1       5.870   3.300  12.408  0.00  0.00    +0.000 C 
ATOM     23  N   UNL     1       6.754   4.264  12.997  0.00  0.00    +0.000 N 
ATOM     24  C   UNL     1       7.606   5.062  12.283  0.00  0.00    +0.000 A 
ATOM     25  N   UNL     1       8.303   5.808  13.107  0.00  0.00    +0.000 NA
ATOM     26  N   UNL     1       7.913   5.489  14.385  0.00  0.00    +0.000 NA
ATOM     27  C   UNL     1       6.967   4.574  14.326  0.00  0.00    +0.000 A 
ENDBRANCH  21  27
ENDBRANCH  17  21
ENDBRANCH   1  17
TORSDOF 5
ENDMDL
MODEL 2
REMARK VINA RESULT:      -9.0      1.493      1.812
REMARK  Name = 
REMARK  7 active torsions:
REMARK  status: ('A' for Active; 'I' for Inactive)
REMARK    1  A    between atoms: C_1  and  N_2
REMARK    2  A    between atoms: C_6  and  C_7
REMARK    3  A    between atoms: C_7  and  C_8
REMARK    4  A    between atoms: C_8  and  C_9
REMARK    5  A    between atoms: C_13  and  N_14
REMARK    6  A    between atoms: C_17  and  C_18
REMARK    7  A    between atoms: C_18  and  C_19
REMARK                            x       y       z     vdW  Elec       q    Type
REMARK                         _______ _______ _______ _____ _____    ______ ____
ROOT
ATOM      1  C   UNL     1       4.658   4.833  17.099  0.00  0.00    +0.000 A 
ATOM      2  C   UNL     1       3.866   3.678  16.988  0.00  0.00    +0.000 A 
ATOM      3  C   UNL     1       2.551   3.648  17.452  0.00  0.00    +0.000 A 
ATOM      4  C   UNL     1       1.981   4.783  18.031  0.00  0.00    +0.000 A 
ATOM      5  C   UNL     1       2.708   5.968  18.131  0.00  0.00    +0.000 A 
ATOM      6  C   UNL     1       4.030   5.964  17.660  0.00  0.00    +0.000 A 
ENDROOT
BRANCH   5   7
ATOM      7  N   UNL     1       2.171   7.153  18.700  0.00  0.00    +0.000 N 
ATOM      8  C   UNL     1       2.017   8.364  17.931  0.00  0.00    +0.000 C 
ATOM      9  C   UNL     1       1.493   9.310  18.944  0.00  0.00    +0.000 C 
ATOM     10  C   UNL     1       1.329   8.736  20.141  0.00  0.00    +0.000 C 
ATOM     11  C   UNL     1       1.711   7.325  20.007  0.00  0.00    +0.000 C 
ATOM     12  O   UNL     1       1.633   6.520  20.917  0.00  0.00    +0.000 OA
BRANCH  10  13
ATOM     13  C   UNL     1       0.913   9.318  21.434  0.00  0.00    +0.000 C 
ATOM     14  C   UNL     1       0.551  10.791  21.344  0.00  0.00    +0.000 C 
ATOM     15  F   UNL     1      -0.190   8.662  21.906  0.00  0.00    +0.000 F 
ATOM     16  F   UNL     1       1.867   9.145  22.389  0.00  0.00    +0.000 F 
ENDBRANCH  10  13
ENDBRANCH   5   7
BRANCH   1  17
ATOM     17  C   UNL     1       6.213   4.874  16.683  0.00  0.00    +0.000 C 
ATOM     18  C   UNL     1       6.881   6.279  16.581  0.00  0.00    +0.000 C 
ATOM     19  O   UNL     1       7.821   5.976  17.634  0.00  0.00    +0.000 OA
ATOM     20  C   UNL     1       7.205   4.701  17.872  0.00  0.00    +0.000 C 
BRANCH  17  21
ATOM     21  C   UNL     1       6.523   3.920  15.500  0.00  0.00    +0.000 C 
BRANCH  21  27
ATOM     22  C   UNL     1       5.799   3.298  12.455  0.00  0.00    +0.000 C 
ATOM     23  N   UNL     1       6.725   4.272  12.959  0.00  0.00    +0.000 N 
ATOM     24  C   UNL     1       7.490   5.085  12.170  0.00  0.00    +0.000 A 
ATOM     25  N   UNL     1       8.256   5.837  12.925  0.00  0.00    +0.000 NA
ATOM     26  N   UNL     1       7.999   5.507  14.233  0.00  0.00    +0.000 NA
ATOM     27  C   UNL     1       7.064   4.578  14.262  0.00  0.00    +0.000 A 
ENDBRANCH  21  27
ENDBRANCH  17  21
ENDBRANCH   1  17
TORSDOF 5
ENDMDL
MODEL 3
REMARK VINA RESULT:      -8.6      4.175      5.769
REMARK  Name = 
REMARK  7 active torsions:
REMARK  status: ('A' for Active; 'I' for Inactive)
REMARK    1  A    between atoms: C_1  and  N_2
REMARK    2  A    between atoms: C_6  and  C_7
REMARK    3  A    between atoms: C_7  and  C_8
REMARK    4  A    between atoms: C_8  and  C_9
REMARK    5  A    between atoms: C_13  and  N_14
REMARK    6  A    between atoms: C_17  and  C_18
REMARK    7  A    between atoms: C_18  and  C_19
REMARK                            x       y       z     vdW  Elec       q    Type
REMARK                         _______ _______ _______ _____ _____    ______ ____
ROOT
ATOM      1  C   UNL     1       2.485   7.418  18.678  0.00  0.00    +0.000 A 
ATOM      2  C   UNL     1       2.664   8.276  17.580  0.00  0.00    +0.000 A 
ATOM      3  C   UNL     1       2.128   9.563  17.565  0.00  0.00    +0.000 A 
ATOM      4  C   UNL     1       1.405  10.040  18.660  0.00  0.00    +0.000 A 
ATOM      5  C   UNL     1       1.229   9.245  19.792  0.00  0.00    +0.000 A 
ATOM      6  C   UNL     1       1.776   7.953  19.773  0.00  0.00    +0.000 A 
ENDROOT
BRANCH   5   7
ATOM      7  N   UNL     1       0.513   9.685  20.936  0.00  0.00    +0.000 N 
ATOM      8  C   UNL     1       0.546   8.957  22.182  0.00  0.00    +0.000 C 
ATOM      9  C   UNL     1      -0.376   9.750  23.028  0.00  0.00    +0.000 C 
ATOM     10  C   UNL     1      -0.865  10.817  22.389  0.00  0.00    +0.000 C 
ATOM     11  C   UNL     1      -0.271  10.835  21.047  0.00  0.00    +0.000 C 
ATOM     12  O   UNL     1      -0.485  11.713  20.230  0.00  0.00    +0.000 OA
BRANCH  10  13
ATOM     13  C   UNL     1      -1.863  11.819  22.819  0.00  0.00    +0.000 C 
ATOM     14  C   UNL     1      -1.249  13.153  23.210  0.00  0.00    +0.000 C 
ATOM     15  F   UNL     1      -2.744  12.066  21.802  0.00  0.00    +0.000 F 
ATOM     16  F   UNL     1      -2.625  11.355  23.846  0.00  0.00    +0.000 F 
ENDBRANCH  10  13
ENDBRANCH   5   7
BRANCH   1  17
ATOM     17  C   UNL     1       2.986   5.888  18.687  0.00  0.00    +0.000 C 
ATOM     18  C   UNL     1       3.837   5.415  17.470  0.00  0.00    +0.000 C 
ATOM     19  O   UNL     1       4.983   5.135  18.301  0.00  0.00    +0.000 OA
ATOM     20  C   UNL     1       4.315   5.648  19.464  0.00  0.00    +0.000 C 
BRANCH  17  21
ATOM     21  C   UNL     1       1.860   4.910  19.111  0.00  0.00    +0.000 C 
BRANCH  21  27
ATOM     22  C   UNL     1       3.178   2.015  18.863  0.00  0.00    +0.000 C 
ATOM     23  N   UNL     1       2.782   2.702  20.058  0.00  0.00    +0.000 N 
ATOM     24  C   UNL     1       2.885   2.177  21.316  0.00  0.00    +0.000 A 
ATOM     25  N   UNL     1       2.410   3.032  22.190  0.00  0.00    +0.000 NA
ATOM     26  N   UNL     1       1.977   4.136  21.496  0.00  0.00    +0.000 NA
ATOM     27  C   UNL     1       2.215   3.952  20.213  0.00  0.00    +0.000 A 
ENDBRANCH  21  27
ENDBRANCH  17  21
ENDBRANCH   1  17
TORSDOF 5
ENDMDL
MODEL 4
REMARK VINA RESULT:      -8.6      3.322      4.740
REMARK  Name = 
REMARK  7 active torsions:
REMARK  status: ('A' for Active; 'I' for Inactive)
REMARK    1  A    between atoms: C_1  and  N_2
REMARK    2  A    between atoms: C_6  and  C_7
REMARK    3  A    between atoms: C_7  and  C_8
REMARK    4  A    between atoms: C_8  and  C_9
REMARK    5  A    between atoms: C_13  and  N_14
REMARK    6  A    between atoms: C_17  and  C_18
REMARK    7  A    between atoms: C_18  and  C_19
REMARK                            x       y       z     vdW  Elec       q    Type
REMARK                         _______ _______ _______ _____ _____    ______ ____
ROOT
ATOM      1  C   UNL     1       2.507   6.724  18.918  0.00  0.00    +0.000 A 
ATOM      2  C   UNL     1       2.764   7.460  17.749  0.00  0.00    +0.000 A 
ATOM      3  C   UNL     1       2.354   8.787  17.617  0.00  0.00    +0.000 A 
ATOM      4  C   UNL     1       1.683   9.425  18.662  0.00  0.00    +0.000 A 
ATOM      5  C   UNL     1       1.435   8.755  19.859  0.00  0.00    +0.000 A 
ATOM      6  C   UNL     1       1.856   7.419  19.957  0.00  0.00    +0.000 A 
ENDROOT
BRANCH   5   7
ATOM      7  N   UNL     1       0.768   9.361  20.956  0.00  0.00    +0.000 N 
ATOM      8  C   UNL     1       0.917   8.869  22.304  0.00  0.00    +0.000 C 
ATOM      9  C   UNL     1       0.006   9.760  23.060  0.00  0.00    +0.000 C 
ATOM     10  C   UNL     1      -0.578  10.674  22.280  0.00  0.00    +0.000 C 
ATOM     11  C   UNL     1      -0.070  10.477  20.917  0.00  0.00    +0.000 C 
ATOM     12  O   UNL     1      -0.381  11.185  19.976  0.00  0.00    +0.000 OA
BRANCH  10  13
ATOM     13  C   UNL     1      -1.601  11.693  22.597  0.00  0.00    +0.000 C 
ATOM     14  C   UNL     1      -1.014  13.056  22.925  0.00  0.00    +0.000 C 
ATOM     15  F   UNL     1      -2.436  11.864  21.527  0.00  0.00    +0.000 F 
ATOM     16  F   UNL     1      -2.406  11.291  23.617  0.00  0.00    +0.000 F 
ENDBRANCH  10  13
ENDBRANCH   5   7
BRANCH   1  17
ATOM     17  C   UNL     1       2.860   5.160  19.065  0.00  0.00    +0.000 C 
ATOM     18  C   UNL     1       2.898   4.577  20.510  0.00  0.00    +0.000 C 
ATOM     19  O   UNL     1       1.817   3.661  20.236  0.00  0.00    +0.000 OA
ATOM     20  C   UNL     1       1.637   4.205  18.919  0.00  0.00    +0.000 C 
BRANCH  17  21
ATOM     21  C   UNL     1       4.053   4.747  18.165  0.00  0.00    +0.000 C 
BRANCH  21  27
ATOM     22  C   UNL     1       6.107   6.779  16.811  0.00  0.00    +0.000 C 
ATOM     23  N   UNL     1       6.270   6.047  18.034  0.00  0.00    +0.000 N 
ATOM     24  C   UNL     1       7.395   6.089  18.811  0.00  0.00    +0.000 A 
ATOM     25  N   UNL     1       7.250   5.287  19.839  0.00  0.00    +0.000 NA
ATOM     26  N   UNL     1       6.014   4.698  19.733  0.00  0.00    +0.000 NA
ATOM     27  C   UNL     1       5.410   5.165  18.658  0.00  0.00    +0.000 A 
ENDBRANCH  21  27
ENDBRANCH  17  21
ENDBRANCH   1  17
TORSDOF 5
ENDMDL
MODEL 5
REMARK VINA RESULT:      -8.6      4.299      5.788
REMARK  Name = 
REMARK  7 active torsions:
REMARK  status: ('A' for Active; 'I' for Inactive)
REMARK    1  A    between atoms: C_1  and  N_2
REMARK    2  A    between atoms: C_6  and  C_7
REMARK    3  A    between atoms: C_7  and  C_8
REMARK    4  A    between atoms: C_8  and  C_9
REMARK    5  A    between atoms: C_13  and  N_14
REMARK    6  A    between atoms: C_17  and  C_18
REMARK    7  A    between atoms: C_18  and  C_19
REMARK                            x       y       z     vdW  Elec       q    Type
REMARK                         _______ _______ _______ _____ _____    ______ ____
ROOT
ATOM      1  C   UNL     1       2.426   7.503  18.995  0.00  0.00    +0.000 A 
ATOM      2  C   UNL     1       2.542   8.289  17.836  0.00  0.00    +0.000 A 
ATOM      3  C   UNL     1       1.931   9.538  17.738  0.00  0.00    +0.000 A 
ATOM      4  C   UNL     1       1.193  10.049  18.808  0.00  0.00    +0.000 A 
ATOM      5  C   UNL     1       1.078   9.329  19.996  0.00  0.00    +0.000 A 
ATOM      6  C   UNL     1       1.700   8.073  20.060  0.00  0.00    +0.000 A 
ENDROOT
BRANCH   5   7
ATOM      7  N   UNL     1       0.350   9.808  21.117  0.00  0.00    +0.000 N 
ATOM      8  C   UNL     1       0.364   9.119  22.385  0.00  0.00    +0.000 C 
ATOM      9  C   UNL     1      -0.564   9.942  23.195  0.00  0.00    +0.000 C 
ATOM     10  C   UNL     1      -1.040  10.991  22.516  0.00  0.00    +0.000 C 
ATOM     11  C   UNL     1      -0.430  10.964  21.182  0.00  0.00    +0.000 C 
ATOM     12  O   UNL     1      -0.630  11.817  20.335  0.00  0.00    +0.000 OA
BRANCH  10  13
ATOM     13  C   UNL     1      -2.039  12.010  22.903  0.00  0.00    +0.000 C 
ATOM     14  C   UNL     1      -1.420  13.340  23.299  0.00  0.00    +0.000 C 
ATOM     15  F   UNL     1      -2.882  12.257  21.855  0.00  0.00    +0.000 F 
ATOM     16  F   UNL     1      -2.840  11.567  23.909  0.00  0.00    +0.000 F 
ENDBRANCH  10  13
ENDBRANCH   5   7
BRANCH   1  17
ATOM     17  C   UNL     1       3.017   6.009  19.105  0.00  0.00    +0.000 C 
ATOM     18  C   UNL     1       3.288   5.255  17.768  0.00  0.00    +0.000 C 
ATOM     19  O   UNL     1       4.702   5.158  18.037  0.00  0.00    +0.000 OA
ATOM     20  C   UNL     1       4.568   5.935  19.236  0.00  0.00    +0.000 C 
BRANCH  17  21
ATOM     21  C   UNL     1       2.284   5.173  20.186  0.00  0.00    +0.000 C 
BRANCH  21  27
ATOM     22  C   UNL     1       3.882   2.410  20.161  0.00  0.00    +0.000 C 
ATOM     23  N   UNL     1       2.531   2.650  19.742  0.00  0.00    +0.000 N 
ATOM     24  C   UNL     1       1.709   1.692  19.215  0.00  0.00    +0.000 A 
ATOM     25  N   UNL     1       0.553   2.229  18.901  0.00  0.00    +0.000 NA
ATOM     26  N   UNL     1       0.618   3.564  19.215  0.00  0.00    +0.000 NA
ATOM     27  C   UNL     1       1.800   3.822  19.740  0.00  0.00    +0.000 A 
ENDBRANCH  21  27
ENDBRANCH  17  21
ENDBRANCH   1  17
TORSDOF 5
ENDMDL
MODEL 6
REMARK VINA RESULT:      -8.5      2.799      4.088
REMARK  Name = 
REMARK  7 active torsions:
REMARK  status: ('A' for Active; 'I' for Inactive)
REMARK    1  A    between atoms: C_1  and  N_2
REMARK    2  A    between atoms: C_6  and  C_7
REMARK    3  A    between atoms: C_7  and  C_8
REMARK    4  A    between atoms: C_8  and  C_9
REMARK    5  A    between atoms: C_13  and  N_14
REMARK    6  A    between atoms: C_17  and  C_18
REMARK    7  A    between atoms: C_18  and  C_19
REMARK                            x       y       z     vdW  Elec       q    Type
REMARK                         _______ _______ _______ _____ _____    ______ ____
ROOT
ATOM      1  C   UNL     1       3.006   5.793  18.614  0.00  0.00    +0.000 A 
ATOM      2  C   UNL     1       3.480   6.451  17.467  0.00  0.00    +0.000 A 
ATOM      3  C   UNL     1       3.231   7.805  17.246  0.00  0.00    +0.000 A 
ATOM      4  C   UNL     1       2.507   8.550  18.179  0.00  0.00    +0.000 A 
ATOM      5  C   UNL     1       2.045   7.958  19.354  0.00  0.00    +0.000 A 
ATOM      6  C   UNL     1       2.309   6.593  19.542  0.00  0.00    +0.000 A 
ENDROOT
BRANCH   5   7
ATOM      7  N   UNL     1       1.315   8.673  20.339  0.00  0.00    +0.000 N 
ATOM      8  C   UNL     1       1.076   8.128  21.654  0.00  0.00    +0.000 C 
ATOM      9  C   UNL     1       0.245   9.184  22.279  0.00  0.00    +0.000 C 
ATOM     10  C   UNL     1       0.044  10.225  21.465  0.00  0.00    +0.000 C 
ATOM     11  C   UNL     1       0.765   9.951  20.216  0.00  0.00    +0.000 C 
ATOM     12  O   UNL     1       0.813  10.732  19.283  0.00  0.00    +0.000 OA
BRANCH  10  13
ATOM     13  C   UNL     1      -0.777  11.440  21.647  0.00  0.00    +0.000 C 
ATOM     14  C   UNL     1      -1.503  11.483  22.982  0.00  0.00    +0.000 C 
ATOM     15  F   UNL     1       0.018  12.552  21.587  0.00  0.00    +0.000 F 
ATOM     16  F   UNL     1      -1.678  11.590  20.638  0.00  0.00    +0.000 F 
ENDBRANCH  10  13
ENDBRANCH   5   7
BRANCH   1  17
ATOM     17  C   UNL     1       3.172   4.209  18.849  0.00  0.00    +0.000 C 
ATOM     18  C   UNL     1       2.833   3.666  20.270  0.00  0.00    +0.000 C 
ATOM     19  O   UNL     1       1.762   2.840  19.767  0.00  0.00    +0.000 OA
ATOM     20  C   UNL     1       1.930   3.361  18.439  0.00  0.00    +0.000 C 
BRANCH  17  21
ATOM     21  C   UNL     1       4.493   3.668  18.245  0.00  0.00    +0.000 C 
BRANCH  21  27
ATOM     22  C   UNL     1       6.901   4.567  16.353  0.00  0.00    +0.000 C 
ATOM     23  N   UNL     1       6.757   4.793  17.763  0.00  0.00    +0.000 N 
ATOM     24  C   UNL     1       7.690   5.424  18.538  0.00  0.00    +0.000 A 
ATOM     25  N   UNL     1       7.283   5.444  19.786  0.00  0.00    +0.000 NA
ATOM     26  N   UNL     1       6.067   4.807  19.835  0.00  0.00    +0.000 NA
ATOM     27  C   UNL     1       5.735   4.429  18.617  0.00  0.00    +0.000 A 
ENDBRANCH  21  27
ENDBRANCH  17  21
ENDBRANCH   1  17
TORSDOF 5
ENDMDL
MODEL 7
REMARK VINA RESULT:      -8.5      0.918      1.027
REMARK  Name = 
REMARK  7 active torsions:
REMARK  status: ('A' for Active; 'I' for Inactive)
REMARK    1  A    between atoms: C_1  and  N_2
REMARK    2  A    between atoms: C_6  and  C_7
REMARK    3  A    between atoms: C_7  and  C_8
REMARK    4  A    between atoms: C_8  and  C_9
REMARK    5  A    between atoms: C_13  and  N_14
REMARK    6  A    between atoms: C_17  and  C_18
REMARK    7  A    between atoms: C_18  and  C_19
REMARK                            x       y       z     vdW  Elec       q    Type
REMARK                         _______ _______ _______ _____ _____    ______ ____
ROOT
ATOM      1  C   UNL     1       4.961   5.429  17.527  0.00  0.00    +0.000 A 
ATOM      2  C   UNL     1       4.247   4.266  17.195  0.00  0.00    +0.000 A 
ATOM      3  C   UNL     1       2.888   4.138  17.478  0.00  0.00    +0.000 A 
ATOM      4  C   UNL     1       2.194   5.182  18.093  0.00  0.00    +0.000 A 
ATOM      5  C   UNL     1       2.843   6.374  18.410  0.00  0.00    +0.000 A 
ATOM      6  C   UNL     1       4.213   6.468  18.116  0.00  0.00    +0.000 A 
ENDROOT
BRANCH   5   7
ATOM      7  N   UNL     1       2.182   7.470  19.024  0.00  0.00    +0.000 N 
ATOM      8  C   UNL     1       1.794   7.442  20.414  0.00  0.00    +0.000 C 
ATOM      9  C   UNL     1       1.103   8.744  20.568  0.00  0.00    +0.000 C 
ATOM     10  C   UNL     1       1.106   9.460  19.439  0.00  0.00    +0.000 C 
ATOM     11  C   UNL     1       1.841   8.686  18.430  0.00  0.00    +0.000 C 
ATOM     12  O   UNL     1       2.056   9.089  17.301  0.00  0.00    +0.000 OA
BRANCH  10  13
ATOM     13  C   UNL     1       0.473  10.758  19.125  0.00  0.00    +0.000 C 
ATOM     14  C   UNL     1       1.475  11.872  18.868  0.00  0.00    +0.000 C 
ATOM     15  F   UNL     1      -0.294  10.641  17.998  0.00  0.00    +0.000 F 
ATOM     16  F   UNL     1      -0.388  11.143  20.105  0.00  0.00    +0.000 F 
ENDBRANCH  10  13
ENDBRANCH   5   7
BRANCH   1  17
ATOM     17  C   UNL     1       6.552   5.571  17.323  0.00  0.00    +0.000 C 
ATOM     18  C   UNL     1       7.106   7.002  17.052  0.00  0.00    +0.000 C 
ATOM     19  O   UNL     1       7.897   6.992  18.259  0.00  0.00    +0.000 OA
ATOM     20  C   UNL     1       7.363   5.716  18.646  0.00  0.00    +0.000 C 
BRANCH  17  21
ATOM     21  C   UNL     1       7.118   4.468  16.392  0.00  0.00    +0.000 C 
BRANCH  21  27
ATOM     22  C   UNL     1       5.407   3.628  13.833  0.00  0.00    +0.000 C 
ATOM     23  N   UNL     1       6.560   4.481  13.879  0.00  0.00    +0.000 N 
ATOM     24  C   UNL     1       7.138   5.052  12.780  0.00  0.00    +0.000 A 
ATOM     25  N   UNL     1       8.191   5.744  13.146  0.00  0.00    +0.000 NA
ATOM     26  N   UNL     1       8.315   5.618  14.508  0.00  0.00    +0.000 NA
ATOM     27  C   UNL     1       7.325   4.874  14.960  0.00  0.00    +0.000 A 
ENDBRANCH  21  27
ENDBRANCH  17  21
ENDBRANCH   1  17
TORSDOF 5
ENDMDL
MODEL 8
REMARK VINA RESULT:      -8.5      1.651      2.144
REMARK  Name = 
REMARK  7 active torsions:
REMARK  status: ('A' for Active; 'I' for Inactive)
REMARK    1  A    between atoms: C_1  and  N_2
REMARK    2  A    between atoms: C_6  and  C_7
REMARK    3  A    between atoms: C_7  and  C_8
REMARK    4  A    between atoms: C_8  and  C_9
REMARK    5  A    between atoms: C_13  and  N_14
REMARK    6  A    between atoms: C_17  and  C_18
REMARK    7  A    between atoms: C_18  and  C_19
REMARK                            x       y       z     vdW  Elec       q    Type
REMARK                         _______ _______ _______ _____ _____    ______ ____
ROOT
ATOM      1  C   UNL     1       5.435   5.486  18.680  0.00  0.00    +0.000 A 
ATOM      2  C   UNL     1       4.937   4.304  19.255  0.00  0.00    +0.000 A 
ATOM      3  C   UNL     1       3.627   4.215  19.724  0.00  0.00    +0.000 A 
ATOM      4  C   UNL     1       2.765   5.309  19.620  0.00  0.00    +0.000 A 
ATOM      5  C   UNL     1       3.193   6.494  19.024  0.00  0.00    +0.000 A 
ATOM      6  C   UNL     1       4.519   6.552  18.567  0.00  0.00    +0.000 A 
ENDROOT
BRANCH   5   7
ATOM      7  N   UNL     1       2.354   7.630  18.882  0.00  0.00    +0.000 N 
ATOM      8  C   UNL     1       2.192   8.304  17.616  0.00  0.00    +0.000 C 
ATOM      9  C   UNL     1       1.298   9.429  17.977  0.00  0.00    +0.000 C 
ATOM     10  C   UNL     1       0.951   9.411  19.268  0.00  0.00    +0.000 C 
ATOM     11  C   UNL     1       1.577   8.230  19.874  0.00  0.00    +0.000 C 
ATOM     12  O   UNL     1       1.416   7.909  21.038  0.00  0.00    +0.000 OA
BRANCH  10  13
ATOM     13  C   UNL     1       0.153  10.371  20.059  0.00  0.00    +0.000 C 
ATOM     14  C   UNL     1       0.978  11.154  21.068  0.00  0.00    +0.000 C 
ATOM     15  F   UNL     1      -0.435  11.284  19.228  0.00  0.00    +0.000 F 
ATOM     16  F   UNL     1      -0.877   9.756  20.700  0.00  0.00    +0.000 F 
ENDBRANCH  10  13
ENDBRANCH   5   7
BRANCH   1  17
ATOM     17  C   UNL     1       6.971   5.666  18.234  0.00  0.00    +0.000 C 
ATOM     18  C   UNL     1       7.414   7.089  17.779  0.00  0.00    +0.000 C 
ATOM     19  O   UNL     1       8.371   7.202  18.854  0.00  0.00    +0.000 OA
ATOM     20  C   UNL     1       7.957   5.944  19.408  0.00  0.00    +0.000 C 
BRANCH  17  21
ATOM     21  C   UNL     1       7.446   4.513  17.312  0.00  0.00    +0.000 C 
BRANCH  21  27
ATOM     22  C   UNL     1       4.809   3.341  15.950  0.00  0.00    +0.000 C 
ATOM     23  N   UNL     1       5.866   4.085  15.326  0.00  0.00    +0.000 N 
ATOM     24  C   UNL     1       5.913   4.381  13.992  0.00  0.00    +0.000 A 
ATOM     25  N   UNL     1       7.018   5.039  13.727  0.00  0.00    +0.000 NA
ATOM     26  N   UNL     1       7.714   5.170  14.904  0.00  0.00    +0.000 NA
ATOM     27  C   UNL     1       7.018   4.614  15.875  0.00  0.00    +0.000 A 
ENDBRANCH  21  27
ENDBRANCH  17  21
ENDBRANCH   1  17
TORSDOF 5
ENDMDL
MODEL 9
REMARK VINA RESULT:      -8.4      1.806      2.974
REMARK  Name = 
REMARK  7 active torsions:
REMARK  status: ('A' for Active; 'I' for Inactive)
REMARK    1  A    between atoms: C_1  and  N_2
REMARK    2  A    between atoms: C_6  and  C_7
REMARK    3  A    between atoms: C_7  and  C_8
REMARK    4  A    between atoms: C_8  and  C_9
REMARK    5  A    between atoms: C_13  and  N_14
REMARK    6  A    between atoms: C_17  and  C_18
REMARK    7  A    between atoms: C_18  and  C_19
REMARK                            x       y       z     vdW  Elec       q    Type
REMARK                         _______ _______ _______ _____ _____    ______ ____
ROOT
ATOM      1  C   UNL     1       4.238   4.508  16.986  0.00  0.00    +0.000 A 
ATOM      2  C   UNL     1       3.473   3.344  17.169  0.00  0.00    +0.000 A 
ATOM      3  C   UNL     1       2.322   3.343  17.955  0.00  0.00    +0.000 A 
ATOM      4  C   UNL     1       1.891   4.518  18.576  0.00  0.00    +0.000 A 
ATOM      5  C   UNL     1       2.590   5.711  18.398  0.00  0.00    +0.000 A 
ATOM      6  C   UNL     1       3.747   5.676  17.604  0.00  0.00    +0.000 A 
ENDROOT
BRANCH   5   7
ATOM      7  N   UNL     1       2.188   6.934  18.996  0.00  0.00    +0.000 N 
ATOM      8  C   UNL     1       1.892   7.030  20.405  0.00  0.00    +0.000 C 
ATOM      9  C   UNL     1       1.470   8.445  20.536  0.00  0.00    +0.000 C 
ATOM     10  C   UNL     1       1.535   9.106  19.376  0.00  0.00    +0.000 C 
ATOM     11  C   UNL     1       2.044   8.171  18.366  0.00  0.00    +0.000 C 
ATOM     12  O   UNL     1       2.258   8.485  17.208  0.00  0.00    +0.000 OA
BRANCH  10  13
ATOM     13  C   UNL     1       1.139  10.489  19.037  0.00  0.00    +0.000 C 
ATOM     14  C   UNL     1       0.775  11.327  20.252  0.00  0.00    +0.000 C 
ATOM     15  F   UNL     1       2.170  11.127  18.404  0.00  0.00    +0.000 F 
ATOM     16  F   UNL     1       0.108  10.510  18.149  0.00  0.00    +0.000 F 
ENDBRANCH  10  13
ENDBRANCH   5   7
BRANCH   1  17
ATOM     17  C   UNL     1       5.633   4.524  16.182  0.00  0.00    +0.000 C 
ATOM     18  C   UNL     1       5.784   3.512  15.007  0.00  0.00    +0.000 C 
ATOM     19  O   UNL     1       5.937   4.567  14.035  0.00  0.00    +0.000 OA
ATOM     20  C   UNL     1       5.705   5.574  15.032  0.00  0.00    +0.000 C 
BRANCH  17  21
ATOM     21  C   UNL     1       6.853   4.598  17.137  0.00  0.00    +0.000 C 
BRANCH  21  27
ATOM     22  C   UNL     1       8.083   5.687  19.873  0.00  0.00    +0.000 C 
ATOM     23  N   UNL     1       7.870   6.412  18.653  0.00  0.00    +0.000 N 
ATOM     24  C   UNL     1       8.142   7.743  18.493  0.00  0.00    +0.000 A 
ATOM     25  N   UNL     1       7.807   8.117  17.280  0.00  0.00    +0.000 NA
ATOM     26  N   UNL     1       7.296   7.018  16.634  0.00  0.00    +0.000 NA
ATOM     27  C   UNL     1       7.348   5.983  17.449  0.00  0.00    +0.000 A 
ENDBRANCH  21  27
ENDBRANCH  17  21
ENDBRANCH   1  17
TORSDOF 5
ENDMDL
