MODEL 1
REMARK VINA RESULT:      -8.4      0.000      0.000
REMARK  Name = 
REMARK  4 active torsions:
REMARK  status: ('A' for Active; 'I' for Inactive)
REMARK    1  A    between atoms: C_1  and  C_2
REMARK    2  A    between atoms: C_6  and  N_7
REMARK    3  A    between atoms: C_14  and  N_15
REMARK    4  A    between atoms: N_21  and  C_22
REMARK                            x       y       z     vdW  Elec       q    Type
REMARK                         _______ _______ _______ _____ _____    ______ ____
ROOT
ATOM      1  N   UNL     1       3.582   3.232  17.228  0.00  0.00    +0.000 N 
ATOM      2  C   UNL     1       2.666   4.391  17.337  0.00  0.00    +0.000 C 
ATOM      3  C   UNL     1       2.409   4.475  18.811  0.00  0.00    +0.000 A 
ATOM      4  C   UNL     1       2.604   3.192  19.332  0.00  0.00    +0.000 A 
ATOM      5  C   UNL     1       2.634   2.919  20.684  0.00  0.00    +0.000 A 
ATOM      6  C   UNL     1       2.503   4.003  21.540  0.00  0.00    +0.000 A 
ATOM      7  C   UNL     1       2.330   5.305  21.025  0.00  0.00    +0.000 A 
ATOM      8  C   UNL     1       2.240   5.576  19.643  0.00  0.00    +0.000 A 
ATOM      9  C   UNL     1       3.211   2.353  18.273  0.00  0.00    +0.000 C 
ATOM     10  O   UNL     1       3.493   1.176  18.414  0.00  0.00    +0.000 OA
ENDROOT
BRANCH   8  11
ATOM     11  N   UNL     1       2.157   6.904  19.149  0.00  0.00    +0.000 N 
ATOM     12  F   UNL     1       1.561   6.811  17.843  0.00  0.00    +0.000 F 
ATOM     13  C   UNL     1       1.582   7.959  19.790  0.00  0.00    +0.000 A 
ATOM     14  N   UNL     1       1.059   8.045  21.000  0.00  0.00    +0.000 NA
ATOM     15  N   UNL     1       0.667   9.339  21.231  0.00  0.00    +0.000 NA
ATOM     16  C   UNL     1       0.971  10.034  20.162  0.00  0.00    +0.000 A 
ATOM     17  N   UNL     1       1.536   9.216  19.231  0.00  0.00    +0.000 N 
ATOM     18  C   UNL     1       2.029   9.634  17.946  0.00  0.00    +0.000 C 
ENDBRANCH   8  11
BRANCH   1  24
ATOM     19  C   UNL     1       7.285   5.046  14.579  0.00  0.00    +0.000 C 
ATOM     20  C   UNL     1       6.634   4.807  15.906  0.00  0.00    +0.000 A 
ATOM     21  C   UNL     1       7.005   5.559  17.027  0.00  0.00    +0.000 A 
ATOM     22  C   UNL     1       6.459   5.280  18.276  0.00  0.00    +0.000 A 
ATOM     23  C   UNL     1       5.480   4.300  18.398  0.00  0.00    +0.000 A 
ATOM     24  C   UNL     1       4.963   3.679  17.250  0.00  0.00    +0.000 A 
ATOM     25  C   UNL     1       5.623   3.846  16.029  0.00  0.00    +0.000 A 
ENDBRANCH   1  24
TORSDOF 2
ENDMDL
MODEL 2
REMARK VINA RESULT:      -8.3      1.893      2.810
REMARK  Name = 
REMARK  4 active torsions:
REMARK  status: ('A' for Active; 'I' for Inactive)
REMARK    1  A    between atoms: C_1  and  C_2
REMARK    2  A    between atoms: C_6  and  N_7
REMARK    3  A    between atoms: C_14  and  N_15
REMARK    4  A    between atoms: N_21  and  C_22
REMARK                            x       y       z     vdW  Elec       q    Type
REMARK                         _______ _______ _______ _____ _____    ______ ____
ROOT
ATOM      1  N   UNL     1       6.037   5.430  15.788  0.00  0.00    +0.000 N 
ATOM      2  C   UNL     1       4.815   6.241  15.994  0.00  0.00    +0.000 C 
ATOM      3  C   UNL     1       4.020   5.407  16.952  0.00  0.00    +0.000 A 
ATOM      4  C   UNL     1       4.426   4.081  16.772  0.00  0.00    +0.000 A 
ATOM      5  C   UNL     1       4.045   3.051  17.606  0.00  0.00    +0.000 A 
ATOM      6  C   UNL     1       3.252   3.392  18.693  0.00  0.00    +0.000 A 
ATOM      7  C   UNL     1       2.856   4.731  18.898  0.00  0.00    +0.000 A 
ATOM      8  C   UNL     1       3.197   5.775  18.011  0.00  0.00    +0.000 A 
ATOM      9  C   UNL     1       5.625   4.082  15.901  0.00  0.00    +0.000 C 
ATOM     10  O   UNL     1       6.211   3.073  15.549  0.00  0.00    +0.000 OA
ENDROOT
BRANCH   8  11
ATOM     11  N   UNL     1       2.863   7.126  18.289  0.00  0.00    +0.000 N 
ATOM     12  F   UNL     1       2.215   7.630  17.108  0.00  0.00    +0.000 F 
ATOM     13  C   UNL     1       2.157   7.568  19.367  0.00  0.00    +0.000 A 
ATOM     14  N   UNL     1       1.701   6.913  20.418  0.00  0.00    +0.000 NA
ATOM     15  N   UNL     1       1.111   7.801  21.282  0.00  0.00    +0.000 NA
ATOM     16  C   UNL     1       1.229   8.994  20.753  0.00  0.00    +0.000 A 
ATOM     17  N   UNL     1       1.867   8.900  19.553  0.00  0.00    +0.000 N 
ATOM     18  C   UNL     1       2.206  10.009  18.701  0.00  0.00    +0.000 C 
ENDBRANCH   8  11
BRANCH   1  24
ATOM     19  C   UNL     1       8.197   9.232  18.003  0.00  0.00    +0.000 C 
ATOM     20  C   UNL     1       7.897   7.766  17.940  0.00  0.00    +0.000 A 
ATOM     21  C   UNL     1       8.050   6.958  19.072  0.00  0.00    +0.000 A 
ATOM     22  C   UNL     1       7.852   5.584  18.991  0.00  0.00    +0.000 A 
ATOM     23  C   UNL     1       7.421   5.018  17.795  0.00  0.00    +0.000 A 
ATOM     24  C   UNL     1       7.076   5.844  16.713  0.00  0.00    +0.000 A 
ATOM     25  C   UNL     1       7.430   7.196  16.749  0.00  0.00    +0.000 A 
ENDBRANCH   1  24
TORSDOF 2
ENDMDL
MODEL 3
REMARK VINA RESULT:      -8.2      3.057      6.595
REMARK  Name = 
REMARK  4 active torsions:
REMARK  status: ('A' for Active; 'I' for Inactive)
REMARK    1  A    between atoms: C_1  and  C_2
REMARK    2  A    between atoms: C_6  and  N_7
REMARK    3  A    between atoms: C_14  and  N_15
REMARK    4  A    between atoms: N_21  and  C_22
REMARK                            x       y       z     vdW  Elec       q    Type
REMARK                         _______ _______ _______ _____ _____    ______ ____
ROOT
ATOM      1  N   UNL     1       3.004   5.491  17.802  0.00  0.00    +0.000 N 
ATOM      2  C   UNL     1       3.838   5.641  16.588  0.00  0.00    +0.000 C 
ATOM      3  C   UNL     1       5.222   5.383  17.101  0.00  0.00    +0.000 A 
ATOM      4  C   UNL     1       5.218   5.701  18.463  0.00  0.00    +0.000 A 
ATOM      5  C   UNL     1       6.267   5.417  19.312  0.00  0.00    +0.000 A 
ATOM      6  C   UNL     1       7.347   4.743  18.761  0.00  0.00    +0.000 A 
ATOM      7  C   UNL     1       7.353   4.395  17.393  0.00  0.00    +0.000 A 
ATOM      8  C   UNL     1       6.304   4.738  16.512  0.00  0.00    +0.000 A 
ATOM      9  C   UNL     1       3.813   5.922  18.878  0.00  0.00    +0.000 C 
ATOM     10  O   UNL     1       3.478   6.228  20.010  0.00  0.00    +0.000 OA
ENDROOT
BRANCH   8  11
ATOM     11  N   UNL     1       6.293   4.298  15.163  0.00  0.00    +0.000 N 
ATOM     12  F   UNL     1       4.916   4.316  14.747  0.00  0.00    +0.000 F 
ATOM     13  C   UNL     1       7.037   4.817  14.148  0.00  0.00    +0.000 A 
ATOM     14  N   UNL     1       7.972   5.750  14.161  0.00  0.00    +0.000 NA
ATOM     15  N   UNL     1       8.493   5.885  12.899  0.00  0.00    +0.000 NA
ATOM     16  C   UNL     1       7.879   5.019  12.130  0.00  0.00    +0.000 A 
ATOM     17  N   UNL     1       6.955   4.335  12.861  0.00  0.00    +0.000 N 
ATOM     18  C   UNL     1       6.115   3.279  12.362  0.00  0.00    +0.000 C 
ENDBRANCH   8  11
BRANCH   1  24
ATOM     19  C   UNL     1       4.153   0.827  18.781  0.00  0.00    +0.000 C 
ATOM     20  C   UNL     1       3.128   1.911  18.651  0.00  0.00    +0.000 A 
ATOM     21  C   UNL     1       1.868   1.775  19.245  0.00  0.00    +0.000 A 
ATOM     22  C   UNL     1       0.889   2.745  19.053  0.00  0.00    +0.000 A 
ATOM     23  C   UNL     1       1.190   3.897  18.333  0.00  0.00    +0.000 A 
ATOM     24  C   UNL     1       2.505   4.131  17.903  0.00  0.00    +0.000 A 
ATOM     25  C   UNL     1       3.435   3.088  17.957  0.00  0.00    +0.000 A 
ENDBRANCH   1  24
TORSDOF 2
ENDMDL
MODEL 4
REMARK VINA RESULT:      -8.0      2.515      5.771
REMARK  Name = 
REMARK  4 active torsions:
REMARK  status: ('A' for Active; 'I' for Inactive)
REMARK    1  A    between atoms: C_1  and  C_2
REMARK    2  A    between atoms: C_6  and  N_7
REMARK    3  A    between atoms: C_14  and  N_15
REMARK    4  A    between atoms: N_21  and  C_22
REMARK                            x       y       z     vdW  Elec       q    Type
REMARK                         _______ _______ _______ _____ _____    ______ ____
ROOT
ATOM      1  N   UNL     1       2.233   5.215  20.780  0.00  0.00    +0.000 N 
ATOM      2  C   UNL     1       3.642   5.183  20.325  0.00  0.00    +0.000 C 
ATOM      3  C   UNL     1       3.564   4.391  19.055  0.00  0.00    +0.000 A 
ATOM      4  C   UNL     1       2.436   3.570  19.156  0.00  0.00    +0.000 A 
ATOM      5  C   UNL     1       1.939   2.832  18.102  0.00  0.00    +0.000 A 
ATOM      6  C   UNL     1       2.592   2.968  16.886  0.00  0.00    +0.000 A 
ATOM      7  C   UNL     1       3.717   3.811  16.766  0.00  0.00    +0.000 A 
ATOM      8  C   UNL     1       4.261   4.521  17.859  0.00  0.00    +0.000 A 
ATOM      9  C   UNL     1       1.664   3.995  20.347  0.00  0.00    +0.000 C 
ATOM     10  O   UNL     1       0.630   3.464  20.712  0.00  0.00    +0.000 OA
ENDROOT
BRANCH   8  11
ATOM     11  N   UNL     1       5.336   5.433  17.692  0.00  0.00    +0.000 N 
ATOM     12  F   UNL     1       4.739   6.728  17.511  0.00  0.00    +0.000 F 
ATOM     13  C   UNL     1       6.394   5.581  18.537  0.00  0.00    +0.000 A 
ATOM     14  N   UNL     1       6.728   4.902  19.619  0.00  0.00    +0.000 NA
ATOM     15  N   UNL     1       7.925   5.373  20.096  0.00  0.00    +0.000 NA
ATOM     16  C   UNL     1       8.317   6.328  19.288  0.00  0.00    +0.000 A 
ATOM     17  N   UNL     1       7.391   6.501  18.304  0.00  0.00    +0.000 N 
ATOM     18  C   UNL     1       7.498   7.435  17.215  0.00  0.00    +0.000 C 
ENDBRANCH   8  11
BRANCH   1  24
ATOM     19  C   UNL     1      -0.102   9.335  22.046  0.00  0.00    +0.000 C 
ATOM     20  C   UNL     1       0.666   8.535  21.039  0.00  0.00    +0.000 A 
ATOM     21  C   UNL     1       1.287   9.164  19.954  0.00  0.00    +0.000 A 
ATOM     22  C   UNL     1       1.928   8.412  18.975  0.00  0.00    +0.000 A 
ATOM     23  C   UNL     1       2.023   7.032  19.116  0.00  0.00    +0.000 A 
ATOM     24  C   UNL     1       1.576   6.416  20.296  0.00  0.00    +0.000 A 
ATOM     25  C   UNL     1       0.794   7.149  21.193  0.00  0.00    +0.000 A 
ENDBRANCH   1  24
TORSDOF 2
ENDMDL
MODEL 5
REMARK VINA RESULT:      -8.0      2.154      5.880
REMARK  Name = 
REMARK  4 active torsions:
REMARK  status: ('A' for Active; 'I' for Inactive)
REMARK    1  A    between atoms: C_1  and  C_2
REMARK    2  A    between atoms: C_6  and  N_7
REMARK    3  A    between atoms: C_14  and  N_15
REMARK    4  A    between atoms: N_21  and  C_22
REMARK                            x       y       z     vdW  Elec       q    Type
REMARK                         _______ _______ _______ _____ _____    ______ ____
ROOT
ATOM      1  N   UNL     1       3.224   5.679  20.358  0.00  0.00    +0.000 N 
ATOM      2  C   UNL     1       4.259   5.185  19.421  0.00  0.00    +0.000 C 
ATOM      3  C   UNL     1       3.651   3.923  18.888  0.00  0.00    +0.000 A 
ATOM      4  C   UNL     1       2.754   3.463  19.858  0.00  0.00    +0.000 A 
ATOM      5  C   UNL     1       1.873   2.424  19.643  0.00  0.00    +0.000 A 
ATOM      6  C   UNL     1       1.875   1.859  18.376  0.00  0.00    +0.000 A 
ATOM      7  C   UNL     1       2.759   2.331  17.382  0.00  0.00    +0.000 A 
ATOM      8  C   UNL     1       3.702   3.354  17.621  0.00  0.00    +0.000 A 
ATOM      9  C   UNL     1       2.599   4.524  20.880  0.00  0.00    +0.000 C 
ATOM     10  O   UNL     1       1.889   4.421  21.865  0.00  0.00    +0.000 OA
ENDROOT
BRANCH   8  11
ATOM     11  N   UNL     1       4.516   3.873  16.580  0.00  0.00    +0.000 N 
ATOM     12  F   UNL     1       3.825   5.024  16.065  0.00  0.00    +0.000 F 
ATOM     13  C   UNL     1       5.835   4.196  16.684  0.00  0.00    +0.000 A 
ATOM     14  N   UNL     1       6.677   4.043  17.690  0.00  0.00    +0.000 NA
ATOM     15  N   UNL     1       7.926   4.453  17.298  0.00  0.00    +0.000 NA
ATOM     16  C   UNL     1       7.835   4.838  16.048  0.00  0.00    +0.000 A 
ATOM     17  N   UNL     1       6.548   4.705  15.623  0.00  0.00    +0.000 N 
ATOM     18  C   UNL     1       6.076   4.996  14.296  0.00  0.00    +0.000 C 
ENDBRANCH   8  11
BRANCH   1  24
ATOM     19  C   UNL     1       0.487   9.717  20.840  0.00  0.00    +0.000 C 
ATOM     20  C   UNL     1       1.231   8.749  19.972  0.00  0.00    +0.000 A 
ATOM     21  C   UNL     1       1.612   9.105  18.673  0.00  0.00    +0.000 A 
ATOM     22  C   UNL     1       2.229   8.178  17.840  0.00  0.00    +0.000 A 
ATOM     23  C   UNL     1       2.543   6.913  18.327  0.00  0.00    +0.000 A 
ATOM     24  C   UNL     1       2.343   6.615  19.684  0.00  0.00    +0.000 A 
ATOM     25  C   UNL     1       1.580   7.487  20.467  0.00  0.00    +0.000 A 
ENDBRANCH   1  24
TORSDOF 2
ENDMDL
MODEL 6
REMARK VINA RESULT:      -8.0      6.289      8.519
REMARK  Name = 
REMARK  4 active torsions:
REMARK  status: ('A' for Active; 'I' for Inactive)
REMARK    1  A    between atoms: C_1  and  C_2
REMARK    2  A    between atoms: C_6  and  N_7
REMARK    3  A    between atoms: C_14  and  N_15
REMARK    4  A    between atoms: N_21  and  C_22
REMARK                            x       y       z     vdW  Elec       q    Type
REMARK                         _______ _______ _______ _____ _____    ______ ____
ROOT
ATOM      1  N   UNL     1      -0.328  11.339  18.463  0.00  0.00    +0.000 N 
ATOM      2  C   UNL     1      -1.376  11.374  19.508  0.00  0.00    +0.000 C 
ATOM      3  C   UNL     1      -0.766  10.572  20.618  0.00  0.00    +0.000 A 
ATOM      4  C   UNL     1       0.154   9.698  20.031  0.00  0.00    +0.000 A 
ATOM      5  C   UNL     1       1.041   8.931  20.757  0.00  0.00    +0.000 A 
ATOM      6  C   UNL     1       1.019   9.092  22.135  0.00  0.00    +0.000 A 
ATOM      7  C   UNL     1       0.111   9.990  22.737  0.00  0.00    +0.000 A 
ATOM      8  C   UNL     1      -0.836  10.730  21.998  0.00  0.00    +0.000 A 
ATOM      9  C   UNL     1       0.319  10.090  18.612  0.00  0.00    +0.000 C 
ATOM     10  O   UNL     1       1.049   9.511  17.826  0.00  0.00    +0.000 OA
ENDROOT
BRANCH   8  11
ATOM     11  N   UNL     1      -1.675  11.692  22.618  0.00  0.00    +0.000 N 
ATOM     12  F   UNL     1      -2.244  11.046  23.770  0.00  0.00    +0.000 F 
ATOM     13  C   UNL     1      -1.308  12.950  22.990  0.00  0.00    +0.000 A 
ATOM     14  N   UNL     1      -0.174  13.601  22.806  0.00  0.00    +0.000 NA
ATOM     15  N   UNL     1      -0.302  14.876  23.295  0.00  0.00    +0.000 NA
ATOM     16  C   UNL     1      -1.522  14.995  23.757  0.00  0.00    +0.000 A 
ATOM     17  N   UNL     1      -2.187  13.817  23.598  0.00  0.00    +0.000 N 
ATOM     18  C   UNL     1      -3.560  13.582  23.956  0.00  0.00    +0.000 C 
ENDBRANCH   8  11
BRANCH   1  24
ATOM     19  C   UNL     1      -0.135  16.142  19.421  0.00  0.00    +0.000 C 
ATOM     20  C   UNL     1       0.545  14.812  19.311  0.00  0.00    +0.000 A 
ATOM     21  C   UNL     1       1.781  14.591  19.929  0.00  0.00    +0.000 A 
ATOM     22  C   UNL     1       2.450  13.384  19.757  0.00  0.00    +0.000 A 
ATOM     23  C   UNL     1       1.851  12.360  19.030  0.00  0.00    +0.000 A 
ATOM     24  C   UNL     1       0.531  12.504  18.574  0.00  0.00    +0.000 A 
ATOM     25  C   UNL     1      -0.068  13.766  18.610  0.00  0.00    +0.000 A 
ENDBRANCH   1  24
TORSDOF 2
ENDMDL
MODEL 7
REMARK VINA RESULT:      -7.9      6.460     10.110
REMARK  Name = 
REMARK  4 active torsions:
REMARK  status: ('A' for Active; 'I' for Inactive)
REMARK    1  A    between atoms: C_1  and  C_2
REMARK    2  A    between atoms: C_6  and  N_7
REMARK    3  A    between atoms: C_14  and  N_15
REMARK    4  A    between atoms: N_21  and  C_22
REMARK                            x       y       z     vdW  Elec       q    Type
REMARK                         _______ _______ _______ _____ _____    ______ ____
ROOT
ATOM      1  N   UNL     1      -1.319  11.922  19.726  0.00  0.00    +0.000 N 
ATOM      2  C   UNL     1      -2.269  12.972  20.160  0.00  0.00    +0.000 C 
ATOM      3  C   UNL     1      -3.575  12.490  19.605  0.00  0.00    +0.000 A 
ATOM      4  C   UNL     1      -3.275  11.684  18.501  0.00  0.00    +0.000 A 
ATOM      5  C   UNL     1      -4.215  10.918  17.845  0.00  0.00    +0.000 A 
ATOM      6  C   UNL     1      -5.503  10.939  18.359  0.00  0.00    +0.000 A 
ATOM      7  C   UNL     1      -5.812  11.729  19.487  0.00  0.00    +0.000 A 
ATOM      8  C   UNL     1      -4.863  12.560  20.122  0.00  0.00    +0.000 A 
ATOM      9  C   UNL     1      -1.813  11.448  18.489  0.00  0.00    +0.000 C 
ATOM     10  O   UNL     1      -1.237  10.788  17.641  0.00  0.00    +0.000 OA
ENDROOT
BRANCH   8  11
ATOM     11  N   UNL     1      -5.176  13.274  21.308  0.00  0.00    +0.000 N 
ATOM     12  F   UNL     1      -5.513  14.610  20.895  0.00  0.00    +0.000 F 
ATOM     13  C   UNL     1      -6.080  12.894  22.253  0.00  0.00    +0.000 A 
ATOM     14  N   UNL     1      -6.797  11.790  22.358  0.00  0.00    +0.000 NA
ATOM     15  N   UNL     1      -7.516  11.828  23.526  0.00  0.00    +0.000 NA
ATOM     16  C   UNL     1      -7.216  12.952  24.131  0.00  0.00    +0.000 A 
ATOM     17  N   UNL     1      -6.330  13.656  23.371  0.00  0.00    +0.000 N 
ATOM     18  C   UNL     1      -5.748  14.921  23.731  0.00  0.00    +0.000 C 
ENDBRANCH   8  11
BRANCH   1  24
ATOM     19  C   UNL     1       1.195   7.987  21.217  0.00  0.00    +0.000 C 
ATOM     20  C   UNL     1       0.295   9.144  21.523  0.00  0.00    +0.000 A 
ATOM     21  C   UNL     1       0.158   9.612  22.834  0.00  0.00    +0.000 A 
ATOM     22  C   UNL     1      -0.740  10.633  23.129  0.00  0.00    +0.000 A 
ATOM     23  C   UNL     1      -1.449  11.247  22.101  0.00  0.00    +0.000 A 
ATOM     24  C   UNL     1      -1.172  10.918  20.765  0.00  0.00    +0.000 A 
ATOM     25  C   UNL     1      -0.394   9.790  20.489  0.00  0.00    +0.000 A 
ENDBRANCH   1  24
TORSDOF 2
ENDMDL
MODEL 8
REMARK VINA RESULT:      -7.9      2.195      5.885
REMARK  Name = 
REMARK  4 active torsions:
REMARK  status: ('A' for Active; 'I' for Inactive)
REMARK    1  A    between atoms: C_1  and  C_2
REMARK    2  A    between atoms: C_6  and  N_7
REMARK    3  A    between atoms: C_14  and  N_15
REMARK    4  A    between atoms: N_21  and  C_22
REMARK                            x       y       z     vdW  Elec       q    Type
REMARK                         _______ _______ _______ _____ _____    ______ ____
ROOT
ATOM      1  N   UNL     1       2.696   6.525  20.150  0.00  0.00    +0.000 N 
ATOM      2  C   UNL     1       3.829   5.792  19.540  0.00  0.00    +0.000 C 
ATOM      3  C   UNL     1       3.175   4.556  19.002  0.00  0.00    +0.000 A 
ATOM      4  C   UNL     1       2.025   4.337  19.768  0.00  0.00    +0.000 A 
ATOM      5  C   UNL     1       1.070   3.394  19.450  0.00  0.00    +0.000 A 
ATOM      6  C   UNL     1       1.271   2.675  18.281  0.00  0.00    +0.000 A 
ATOM      7  C   UNL     1       2.415   2.904  17.487  0.00  0.00    +0.000 A 
ATOM      8  C   UNL     1       3.422   3.827  17.844  0.00  0.00    +0.000 A 
ATOM      9  C   UNL     1       1.805   5.531  20.617  0.00  0.00    +0.000 C 
ATOM     10  O   UNL     1       0.885   5.643  21.408  0.00  0.00    +0.000 OA
ENDROOT
BRANCH   8  11
ATOM     11  N   UNL     1       4.516   4.104  16.983  0.00  0.00    +0.000 N 
ATOM     12  F   UNL     1       4.120   5.229  16.180  0.00  0.00    +0.000 F 
ATOM     13  C   UNL     1       5.805   4.307  17.372  0.00  0.00    +0.000 A 
ATOM     14  N   UNL     1       6.364   4.222  18.565  0.00  0.00    +0.000 NA
ATOM     15  N   UNL     1       7.713   4.445  18.449  0.00  0.00    +0.000 NA
ATOM     16  C   UNL     1       7.965   4.649  17.179  0.00  0.00    +0.000 A 
ATOM     17  N   UNL     1       6.806   4.582  16.467  0.00  0.00    +0.000 N 
ATOM     18  C   UNL     1       6.697   4.720  15.039  0.00  0.00    +0.000 C 
ENDBRANCH   8  11
BRANCH   1  24
ATOM     19  C   UNL     1       0.259  10.741  19.592  0.00  0.00    +0.000 C 
ATOM     20  C   UNL     1       1.157   9.678  19.038  0.00  0.00    +0.000 A 
ATOM     21  C   UNL     1       1.942   9.927  17.907  0.00  0.00    +0.000 A 
ATOM     22  C   UNL     1       2.712   8.913  17.346  0.00  0.00    +0.000 A 
ATOM     23  C   UNL     1       2.764   7.665  17.958  0.00  0.00    +0.000 A 
ATOM     24  C   UNL     1       2.137   7.467  19.198  0.00  0.00    +0.000 A 
ATOM     25  C   UNL     1       1.240   8.431  19.670  0.00  0.00    +0.000 A 
ENDBRANCH   1  24
TORSDOF 2
ENDMDL
MODEL 9
REMARK VINA RESULT:      -7.9      1.176      2.138
REMARK  Name = 
REMARK  4 active torsions:
REMARK  status: ('A' for Active; 'I' for Inactive)
REMARK    1  A    between atoms: C_1  and  C_2
REMARK    2  A    between atoms: C_6  and  N_7
REMARK    3  A    between atoms: C_14  and  N_15
REMARK    4  A    between atoms: N_21  and  C_22
REMARK                            x       y       z     vdW  Elec       q    Type
REMARK                         _______ _______ _______ _____ _____    ______ ____
ROOT
ATOM      1  N   UNL     1       3.046   3.657  17.079  0.00  0.00    +0.000 N 
ATOM      2  C   UNL     1       1.995   4.575  17.575  0.00  0.00    +0.000 C 
ATOM      3  C   UNL     1       2.037   4.359  19.058  0.00  0.00    +0.000 A 
ATOM      4  C   UNL     1       2.543   3.072  19.267  0.00  0.00    +0.000 A 
ATOM      5  C   UNL     1       2.896   2.589  20.510  0.00  0.00    +0.000 A 
ATOM      6  C   UNL     1       2.768   3.467  21.577  0.00  0.00    +0.000 A 
ATOM      7  C   UNL     1       2.281   4.776  21.374  0.00  0.00    +0.000 A 
ATOM      8  C   UNL     1       1.865   5.249  20.111  0.00  0.00    +0.000 A 
ATOM      9  C   UNL     1       3.048   2.560  17.972  0.00  0.00    +0.000 C 
ATOM     10  O   UNL     1       3.543   1.457  17.822  0.00  0.00    +0.000 OA
ENDROOT
BRANCH   8  11
ATOM     11  N   UNL     1       1.465   6.598  19.918  0.00  0.00    +0.000 N 
ATOM     12  F   UNL     1       1.459   7.205  21.221  0.00  0.00    +0.000 F 
ATOM     13  C   UNL     1       2.033   7.482  19.053  0.00  0.00    +0.000 A 
ATOM     14  N   UNL     1       2.989   7.311  18.158  0.00  0.00    +0.000 NA
ATOM     15  N   UNL     1       3.175   8.482  17.467  0.00  0.00    +0.000 NA
ATOM     16  C   UNL     1       2.317   9.353  17.940  0.00  0.00    +0.000 A 
ATOM     17  N   UNL     1       1.588   8.779  18.937  0.00  0.00    +0.000 N 
ATOM     18  C   UNL     1       0.525   9.420  19.665  0.00  0.00    +0.000 C 
ENDBRANCH   8  11
BRANCH   1  24
ATOM     19  C   UNL     1       6.968   5.379  19.462  0.00  0.00    +0.000 C 
ATOM     20  C   UNL     1       6.311   4.943  18.188  0.00  0.00    +0.000 A 
ATOM     21  C   UNL     1       7.081   4.602  17.071  0.00  0.00    +0.000 A 
ATOM     22  C   UNL     1       6.468   4.277  15.865  0.00  0.00    +0.000 A 
ATOM     23  C   UNL     1       5.081   4.213  15.790  0.00  0.00    +0.000 A 
ATOM     24  C   UNL     1       4.309   4.361  16.953  0.00  0.00    +0.000 A 
ATOM     25  C   UNL     1       4.916   4.844  18.117  0.00  0.00    +0.000 A 
ENDBRANCH   1  24
TORSDOF 2
ENDMDL
