MODEL 1
REMARK VINA RESULT:      -8.8      0.000      0.000
REMARK  Name = 
REMARK  7 active torsions:
REMARK  status: ('A' for Active; 'I' for Inactive)
REMARK    1  A    between atoms: N_1  and  S_2
REMARK    2  A    between atoms: S_2  and  C_5
REMARK    3  A    between atoms: C_8  and  C_9
REMARK    4  A    between atoms: C_9  and  C_10
REMARK    5  A    between atoms: C_10  and  N_11
REMARK    6  A    between atoms: N_11  and  C_12
REMARK    7  A    between atoms: N_20  and  C_21
REMARK                            x       y       z     vdW  Elec       q    Type
REMARK                         _______ _______ _______ _____ _____    ______ ____
ROOT
ATOM      1  N   UNL     1       8.212   8.131  17.286  0.00  0.00    +0.000 N 
ATOM      2  H   UNL     1       9.183   7.897  17.117  0.00  0.00    +0.000 HD
ENDROOT
BRANCH   1   3
ATOM      3  C   UNL     1       7.518   7.092  17.914  0.00  0.00    +0.000 A 
ATOM      4  N   UNL     1       8.074   6.457  18.972  0.00  0.00    +0.000 NA
ATOM      5  C   UNL     1       7.399   5.457  19.565  0.00  0.00    +0.000 A 
ATOM      6  N   UNL     1       6.195   4.978  19.236  0.00  0.00    +0.000 NA
ATOM      7  C   UNL     1       5.654   5.620  18.180  0.00  0.00    +0.000 A 
ATOM      8  C   UNL     1       6.250   6.663  17.490  0.00  0.00    +0.000 A 
ATOM      9  C   UNL     1       5.330   6.985  16.479  0.00  0.00    +0.000 A 
ATOM     10  N   UNL     1       4.243   6.212  16.490  0.00  0.00    +0.000 NA
ATOM     11  N   UNL     1       4.432   5.372  17.555  0.00  0.00    +0.000 N 
BRANCH  11  12
ATOM     12  C   UNL     1       3.448   4.385  17.872  0.00  0.00    +0.000 A 
ATOM     13  C   UNL     1       2.233   4.778  18.462  0.00  0.00    +0.000 A 
ATOM     14  C   UNL     1       1.249   3.826  18.749  0.00  0.00    +0.000 A 
ATOM     15  C   UNL     1       1.480   2.486  18.462  0.00  0.00    +0.000 A 
ATOM     16  F   UNL     1       0.534   1.577  18.732  0.00  0.00    +0.000 F 
ATOM     17  C   UNL     1       2.679   2.077  17.898  0.00  0.00    +0.000 A 
ATOM     18  C   UNL     1       3.664   3.024  17.604  0.00  0.00    +0.000 A 
ENDBRANCH  11  12
ENDBRANCH   1   3
BRANCH   1  19
ATOM     19  C   UNL     1       8.001   9.452  17.882  0.00  0.00    +0.000 C 
BRANCH  19  20
ATOM     20  C   UNL     1       9.157   9.781  18.833  0.00  0.00    +0.000 C 
BRANCH  20  24
ATOM     21  C   UNL     1      10.720  13.767  18.349  0.00  0.00    +0.000 A 
ATOM     22  C   UNL     1       9.450  13.463  17.851  0.00  0.00    +0.000 A 
ATOM     23  C   UNL     1       8.946  12.168  18.001  0.00  0.00    +0.000 A 
ATOM     24  C   UNL     1       9.702  11.177  18.646  0.00  0.00    +0.000 A 
ATOM     25  C   UNL     1      10.984  11.496  19.120  0.00  0.00    +0.000 A 
ATOM     26  C   UNL     1      11.490  12.788  18.977  0.00  0.00    +0.000 A 
BRANCH  21  27
ATOM     27  S   UNL     1      11.358  15.410  18.210  0.00  0.00    +0.000 S 
ATOM     28  O   UNL     1      10.267  16.346  18.312  0.00  0.00    +0.000 OA
ATOM     29  O   UNL     1      12.333  15.456  17.140  0.00  0.00    +0.000 OA
BRANCH  27  30
ATOM     30  N   UNL     1      12.260  15.566  19.622  0.00  0.00    +0.000 NA
ATOM     31  H   UNL     1      13.206  15.870  19.378  0.00  0.00    +0.000 HD
ATOM     32  H   UNL     1      12.238  14.694  20.147  0.00  0.00    +0.000 HD
ENDBRANCH  27  30
ENDBRANCH  21  27
ENDBRANCH  20  24
ENDBRANCH  19  20
ENDBRANCH   1  19
TORSDOF 7
ENDMDL
MODEL 2
REMARK VINA RESULT:      -8.6      0.846      1.475
REMARK  Name = 
REMARK  7 active torsions:
REMARK  status: ('A' for Active; 'I' for Inactive)
REMARK    1  A    between atoms: N_1  and  S_2
REMARK    2  A    between atoms: S_2  and  C_5
REMARK    3  A    between atoms: C_8  and  C_9
REMARK    4  A    between atoms: C_9  and  C_10
REMARK    5  A    between atoms: C_10  and  N_11
REMARK    6  A    between atoms: N_11  and  C_12
REMARK    7  A    between atoms: N_20  and  C_21
REMARK                            x       y       z     vdW  Elec       q    Type
REMARK                         _______ _______ _______ _____ _____    ______ ____
ROOT
ATOM      1  N   UNL     1       8.247   8.107  17.360  0.00  0.00    +0.000 N 
ATOM      2  H   UNL     1       9.210   7.850  17.179  0.00  0.00    +0.000 HD
ENDROOT
BRANCH   1   3
ATOM      3  C   UNL     1       7.528   7.075  17.970  0.00  0.00    +0.000 A 
ATOM      4  N   UNL     1       8.081   6.386  18.995  0.00  0.00    +0.000 NA
ATOM      5  C   UNL     1       7.382   5.393  19.571  0.00  0.00    +0.000 A 
ATOM      6  N   UNL     1       6.154   4.970  19.254  0.00  0.00    +0.000 NA
ATOM      7  C   UNL     1       5.616   5.665  18.231  0.00  0.00    +0.000 A 
ATOM      8  C   UNL     1       6.236   6.707  17.560  0.00  0.00    +0.000 A 
ATOM      9  C   UNL     1       5.308   7.094  16.581  0.00  0.00    +0.000 A 
ATOM     10  N   UNL     1       4.193   6.362  16.591  0.00  0.00    +0.000 NA
ATOM     11  N   UNL     1       4.373   5.482  17.625  0.00  0.00    +0.000 N 
BRANCH  11  12
ATOM     12  C   UNL     1       3.360   4.522  17.933  0.00  0.00    +0.000 A 
ATOM     13  C   UNL     1       3.441   3.226  17.390  0.00  0.00    +0.000 A 
ATOM     14  C   UNL     1       2.474   2.267  17.708  0.00  0.00    +0.000 A 
ATOM     15  C   UNL     1       1.421   2.602  18.552  0.00  0.00    +0.000 A 
ATOM     16  F   UNL     1       0.499   1.680  18.860  0.00  0.00    +0.000 F 
ATOM     17  C   UNL     1       1.314   3.879  19.081  0.00  0.00    +0.000 A 
ATOM     18  C   UNL     1       2.280   4.839  18.771  0.00  0.00    +0.000 A 
ENDBRANCH  11  12
ENDBRANCH   1   3
BRANCH   1  19
ATOM     19  C   UNL     1       8.077   9.421  17.986  0.00  0.00    +0.000 C 
BRANCH  19  20
ATOM     20  C   UNL     1       9.178   9.641  19.030  0.00  0.00    +0.000 C 
BRANCH  20  24
ATOM     21  C   UNL     1      10.870  13.602  18.899  0.00  0.00    +0.000 A 
ATOM     22  C   UNL     1      10.715  12.963  20.132  0.00  0.00    +0.000 A 
ATOM     23  C   UNL     1      10.159  11.681  20.176  0.00  0.00    +0.000 A 
ATOM     24  C   UNL     1       9.759  11.035  18.996  0.00  0.00    +0.000 A 
ATOM     25  C   UNL     1       9.902  11.702  17.770  0.00  0.00    +0.000 A 
ATOM     26  C   UNL     1      10.461  12.979  17.719  0.00  0.00    +0.000 A 
BRANCH  21  27
ATOM     27  S   UNL     1      11.612  15.204  18.817  0.00  0.00    +0.000 S 
ATOM     28  O   UNL     1      12.295  15.340  17.556  0.00  0.00    +0.000 OA
ATOM     29  O   UNL     1      12.243  15.505  20.086  0.00  0.00    +0.000 OA
BRANCH  27  30
ATOM     30  N   UNL     1      10.271  16.219  18.751  0.00  0.00    +0.000 NA
ATOM     31  H   UNL     1       9.672  15.925  17.976  0.00  0.00    +0.000 HD
ATOM     32  H   UNL     1      10.572  17.189  18.685  0.00  0.00    +0.000 HD
ENDBRANCH  27  30
ENDBRANCH  21  27
ENDBRANCH  20  24
ENDBRANCH  19  20
ENDBRANCH   1  19
TORSDOF 7
ENDMDL
MODEL 3
REMARK VINA RESULT:      -8.4      1.062      2.275
REMARK  Name = 
REMARK  7 active torsions:
REMARK  status: ('A' for Active; 'I' for Inactive)
REMARK    1  A    between atoms: N_1  and  S_2
REMARK    2  A    between atoms: S_2  and  C_5
REMARK    3  A    between atoms: C_8  and  C_9
REMARK    4  A    between atoms: C_9  and  C_10
REMARK    5  A    between atoms: C_10  and  N_11
REMARK    6  A    between atoms: N_11  and  C_12
REMARK    7  A    between atoms: N_20  and  C_21
REMARK                            x       y       z     vdW  Elec       q    Type
REMARK                         _______ _______ _______ _____ _____    ______ ____
ROOT
ATOM      1  N   UNL     1       8.172   7.630  17.936  0.00  0.00    +0.000 N 
ATOM      2  H   UNL     1       8.528   7.235  18.798  0.00  0.00    +0.000 HD
ENDROOT
BRANCH   1   3
ATOM      3  C   UNL     1       6.972   7.036  17.536  0.00  0.00    +0.000 A 
ATOM      4  N   UNL     1       6.392   7.412  16.371  0.00  0.00    +0.000 NA
ATOM      5  C   UNL     1       5.236   6.837  15.998  0.00  0.00    +0.000 A 
ATOM      6  N   UNL     1       4.544   5.899  16.652  0.00  0.00    +0.000 NA
ATOM      7  C   UNL     1       5.133   5.535  17.810  0.00  0.00    +0.000 A 
ATOM      8  C   UNL     1       6.322   6.053  18.298  0.00  0.00    +0.000 A 
ATOM      9  C   UNL     1       6.516   5.389  19.520  0.00  0.00    +0.000 A 
ATOM     10  N   UNL     1       5.538   4.534  19.818  0.00  0.00    +0.000 NA
ATOM     11  N   UNL     1       4.683   4.609  18.751  0.00  0.00    +0.000 N 
BRANCH  11  12
ATOM     12  C   UNL     1       3.494   3.815  18.728  0.00  0.00    +0.000 A 
ATOM     13  C   UNL     1       3.480   2.605  18.011  0.00  0.00    +0.000 A 
ATOM     14  C   UNL     1       2.334   1.802  18.006  0.00  0.00    +0.000 A 
ATOM     15  C   UNL     1       1.202   2.211  18.701  0.00  0.00    +0.000 A 
ATOM     16  F   UNL     1       0.108   1.438  18.701  0.00  0.00    +0.000 F 
ATOM     17  C   UNL     1       1.191   3.409  19.398  0.00  0.00    +0.000 A 
ATOM     18  C   UNL     1       2.334   4.212  19.412  0.00  0.00    +0.000 A 
ENDBRANCH  11  12
ENDBRANCH   1   3
BRANCH   1  19
ATOM     19  C   UNL     1       8.171   9.094  17.894  0.00  0.00    +0.000 C 
BRANCH  19  20
ATOM     20  C   UNL     1       9.158   9.641  18.932  0.00  0.00    +0.000 C 
BRANCH  20  24
ATOM     21  C   UNL     1      10.309  13.716  18.131  0.00  0.00    +0.000 A 
ATOM     22  C   UNL     1      11.216  12.858  18.759  0.00  0.00    +0.000 A 
ATOM     23  C   UNL     1      10.840  11.538  19.027  0.00  0.00    +0.000 A 
ATOM     24  C   UNL     1       9.566  11.072  18.668  0.00  0.00    +0.000 A 
ATOM     25  C   UNL     1       8.662  11.954  18.057  0.00  0.00    +0.000 A 
ATOM     26  C   UNL     1       9.033  13.271  17.784  0.00  0.00    +0.000 A 
BRANCH  21  27
ATOM     27  S   UNL     1      10.780  15.375  17.744  0.00  0.00    +0.000 S 
ATOM     28  O   UNL     1      11.994  15.695  18.450  0.00  0.00    +0.000 OA
ATOM     29  O   UNL     1       9.607  16.225  17.776  0.00  0.00    +0.000 OA
BRANCH  27  30
ATOM     30  N   UNL     1      11.185  15.263  16.114  0.00  0.00    +0.000 NA
ATOM     31  H   UNL     1      12.031  14.695  16.022  0.00  0.00    +0.000 HD
ATOM     32  H   UNL     1      11.278  16.194  15.714  0.00  0.00    +0.000 HD
ENDBRANCH  27  30
ENDBRANCH  21  27
ENDBRANCH  20  24
ENDBRANCH  19  20
ENDBRANCH   1  19
TORSDOF 7
ENDMDL
MODEL 4
REMARK VINA RESULT:      -8.4      6.955      9.581
REMARK  Name = 
REMARK  7 active torsions:
REMARK  status: ('A' for Active; 'I' for Inactive)
REMARK    1  A    between atoms: N_1  and  S_2
REMARK    2  A    between atoms: S_2  and  C_5
REMARK    3  A    between atoms: C_8  and  C_9
REMARK    4  A    between atoms: C_9  and  C_10
REMARK    5  A    between atoms: C_10  and  N_11
REMARK    6  A    between atoms: N_11  and  C_12
REMARK    7  A    between atoms: N_20  and  C_21
REMARK                            x       y       z     vdW  Elec       q    Type
REMARK                         _______ _______ _______ _____ _____    ______ ____
ROOT
ATOM      1  N   UNL     1       2.122   6.038  20.911  0.00  0.00    +0.000 N 
ATOM      2  H   UNL     1       3.072   5.929  21.244  0.00  0.00    +0.000 HD
ENDROOT
BRANCH   1   3
ATOM      3  C   UNL     1       1.977   7.150  20.076  0.00  0.00    +0.000 A 
ATOM      4  N   UNL     1       2.314   7.055  18.768  0.00  0.00    +0.000 NA
ATOM      5  C   UNL     1       2.174   8.131  17.975  0.00  0.00    +0.000 A 
ATOM      6  N   UNL     1       1.727   9.344  18.317  0.00  0.00    +0.000 NA
ATOM      7  C   UNL     1       1.395   9.423  19.622  0.00  0.00    +0.000 A 
ATOM      8  C   UNL     1       1.493   8.385  20.535  0.00  0.00    +0.000 A 
ATOM      9  C   UNL     1       1.059   8.944  21.748  0.00  0.00    +0.000 A 
ATOM     10  N   UNL     1       0.728  10.232  21.647  0.00  0.00    +0.000 NA
ATOM     11  N   UNL     1       0.921  10.531  20.325  0.00  0.00    +0.000 N 
BRANCH  11  12
ATOM     12  C   UNL     1       0.664  11.853  19.844  0.00  0.00    +0.000 A 
ATOM     13  C   UNL     1       1.553  12.895  20.167  0.00  0.00    +0.000 A 
ATOM     14  C   UNL     1       1.332  14.187  19.678  0.00  0.00    +0.000 A 
ATOM     15  C   UNL     1       0.221  14.442  18.882  0.00  0.00    +0.000 A 
ATOM     16  F   UNL     1       0.014  15.678  18.409  0.00  0.00    +0.000 F 
ATOM     17  C   UNL     1      -0.676  13.432  18.569  0.00  0.00    +0.000 A 
ATOM     18  C   UNL     1      -0.457  12.139  19.050  0.00  0.00    +0.000 A 
ENDBRANCH  11  12
ENDBRANCH   1   3
BRANCH   1  19
ATOM     19  C   UNL     1       1.513   4.808  20.400  0.00  0.00    +0.000 C 
BRANCH  19  20
ATOM     20  C   UNL     1       2.565   3.695  20.344  0.00  0.00    +0.000 C 
BRANCH  20  24
ATOM     21  C   UNL     1       5.384   4.229  17.129  0.00  0.00    +0.000 A 
ATOM     22  C   UNL     1       4.111   3.727  16.848  0.00  0.00    +0.000 A 
ATOM     23  C   UNL     1       3.199   3.546  17.892  0.00  0.00    +0.000 A 
ATOM     24  C   UNL     1       3.551   3.865  19.213  0.00  0.00    +0.000 A 
ATOM     25  C   UNL     1       4.842   4.348  19.478  0.00  0.00    +0.000 A 
ATOM     26  C   UNL     1       5.755   4.534  18.440  0.00  0.00    +0.000 A 
BRANCH  21  27
ATOM     27  S   UNL     1       6.537   4.508  15.819  0.00  0.00    +0.000 S 
ATOM     28  O   UNL     1       6.175   3.685  14.693  0.00  0.00    +0.000 OA
ATOM     29  O   UNL     1       7.880   4.545  16.362  0.00  0.00    +0.000 OA
BRANCH  27  30
ATOM     30  N   UNL     1       6.206   6.098  15.381  0.00  0.00    +0.000 NA
ATOM     31  H   UNL     1       5.923   6.619  16.214  0.00  0.00    +0.000 HD
ATOM     32  H   UNL     1       5.512   6.117  14.637  0.00  0.00    +0.000 HD
ENDBRANCH  27  30
ENDBRANCH  21  27
ENDBRANCH  20  24
ENDBRANCH  19  20
ENDBRANCH   1  19
TORSDOF 7
ENDMDL
MODEL 5
REMARK VINA RESULT:      -8.3      6.957      9.600
REMARK  Name = 
REMARK  7 active torsions:
REMARK  status: ('A' for Active; 'I' for Inactive)
REMARK    1  A    between atoms: N_1  and  S_2
REMARK    2  A    between atoms: S_2  and  C_5
REMARK    3  A    between atoms: C_8  and  C_9
REMARK    4  A    between atoms: C_9  and  C_10
REMARK    5  A    between atoms: C_10  and  N_11
REMARK    6  A    between atoms: N_11  and  C_12
REMARK    7  A    between atoms: N_20  and  C_21
REMARK                            x       y       z     vdW  Elec       q    Type
REMARK                         _______ _______ _______ _____ _____    ______ ____
ROOT
ATOM      1  N   UNL     1       2.139   6.047  20.926  0.00  0.00    +0.000 N 
ATOM      2  H   UNL     1       3.081   5.962  21.287  0.00  0.00    +0.000 HD
ENDROOT
BRANCH   1   3
ATOM      3  C   UNL     1       1.991   7.152  20.083  0.00  0.00    +0.000 A 
ATOM      4  N   UNL     1       2.328   7.049  18.776  0.00  0.00    +0.000 NA
ATOM      5  C   UNL     1       2.186   8.120  17.976  0.00  0.00    +0.000 A 
ATOM      6  N   UNL     1       1.737   9.334  18.309  0.00  0.00    +0.000 NA
ATOM      7  C   UNL     1       1.406   9.422  19.614  0.00  0.00    +0.000 A 
ATOM      8  C   UNL     1       1.506   8.390  20.534  0.00  0.00    +0.000 A 
ATOM      9  C   UNL     1       1.072   8.957  21.743  0.00  0.00    +0.000 A 
ATOM     10  N   UNL     1       0.739  10.243  21.634  0.00  0.00    +0.000 NA
ATOM     11  N   UNL     1       0.930  10.533  20.309  0.00  0.00    +0.000 N 
BRANCH  11  12
ATOM     12  C   UNL     1       0.671  11.852  19.820  0.00  0.00    +0.000 A 
ATOM     13  C   UNL     1      -0.559  12.134  19.197  0.00  0.00    +0.000 A 
ATOM     14  C   UNL     1      -0.838  13.427  18.742  0.00  0.00    +0.000 A 
ATOM     15  C   UNL     1       0.111  14.431  18.894  0.00  0.00    +0.000 A 
ATOM     16  F   UNL     1      -0.161  15.670  18.463  0.00  0.00    +0.000 F 
ATOM     17  C   UNL     1       1.335  14.168  19.488  0.00  0.00    +0.000 A 
ATOM     18  C   UNL     1       1.618  12.880  19.949  0.00  0.00    +0.000 A 
ENDBRANCH  11  12
ENDBRANCH   1   3
BRANCH   1  19
ATOM     19  C   UNL     1       1.576   4.801  20.401  0.00  0.00    +0.000 C 
BRANCH  19  20
ATOM     20  C   UNL     1       2.670   3.730  20.328  0.00  0.00    +0.000 C 
BRANCH  20  24
ATOM     21  C   UNL     1       5.410   4.284  17.048  0.00  0.00    +0.000 A 
ATOM     22  C   UNL     1       5.826   4.586  18.347  0.00  0.00    +0.000 A 
ATOM     23  C   UNL     1       4.935   4.414  19.411  0.00  0.00    +0.000 A 
ATOM     24  C   UNL     1       3.633   3.941  19.183  0.00  0.00    +0.000 A 
ATOM     25  C   UNL     1       3.227   3.664  17.869  0.00  0.00    +0.000 A 
ATOM     26  C   UNL     1       4.113   3.830  16.805  0.00  0.00    +0.000 A 
BRANCH  21  27
ATOM     27  S   UNL     1       6.534   4.452  15.695  0.00  0.00    +0.000 S 
ATOM     28  O   UNL     1       6.148   3.538  14.649  0.00  0.00    +0.000 OA
ATOM     29  O   UNL     1       7.887   4.534  16.204  0.00  0.00    +0.000 OA
BRANCH  27  30
ATOM     30  N   UNL     1       6.191   6.000  15.132  0.00  0.00    +0.000 NA
ATOM     31  H   UNL     1       5.701   6.518  15.865  0.00  0.00    +0.000 HD
ATOM     32  H   UNL     1       5.670   5.946  14.259  0.00  0.00    +0.000 HD
ENDBRANCH  27  30
ENDBRANCH  21  27
ENDBRANCH  20  24
ENDBRANCH  19  20
ENDBRANCH   1  19
TORSDOF 7
ENDMDL
MODEL 6
REMARK VINA RESULT:      -8.2      6.888      9.521
REMARK  Name = 
REMARK  7 active torsions:
REMARK  status: ('A' for Active; 'I' for Inactive)
REMARK    1  A    between atoms: N_1  and  S_2
REMARK    2  A    between atoms: S_2  and  C_5
REMARK    3  A    between atoms: C_8  and  C_9
REMARK    4  A    between atoms: C_9  and  C_10
REMARK    5  A    between atoms: C_10  and  N_11
REMARK    6  A    between atoms: N_11  and  C_12
REMARK    7  A    between atoms: N_20  and  C_21
REMARK                            x       y       z     vdW  Elec       q    Type
REMARK                         _______ _______ _______ _____ _____    ______ ____
ROOT
ATOM      1  N   UNL     1       2.240   5.966  20.935  0.00  0.00    +0.000 N 
ATOM      2  H   UNL     1       3.216   5.816  21.161  0.00  0.00    +0.000 HD
ENDROOT
BRANCH   1   3
ATOM      3  C   UNL     1       2.054   7.065  20.092  0.00  0.00    +0.000 A 
ATOM      4  N   UNL     1       2.428   6.986  18.793  0.00  0.00    +0.000 NA
ATOM      5  C   UNL     1       2.248   8.051  17.993  0.00  0.00    +0.000 A 
ATOM      6  N   UNL     1       1.725   9.238  18.319  0.00  0.00    +0.000 NA
ATOM      7  C   UNL     1       1.358   9.301  19.615  0.00  0.00    +0.000 A 
ATOM      8  C   UNL     1       1.491   8.273  20.534  0.00  0.00    +0.000 A 
ATOM      9  C   UNL     1       0.996   8.810  21.734  0.00  0.00    +0.000 A 
ATOM     10  N   UNL     1       0.597  10.077  21.620  0.00  0.00    +0.000 NA
ATOM     11  N   UNL     1       0.805  10.383  20.301  0.00  0.00    +0.000 N 
BRANCH  11  12
ATOM     12  C   UNL     1       0.487  11.687  19.810  0.00  0.00    +0.000 A 
ATOM     13  C   UNL     1      -0.828  12.173  19.926  0.00  0.00    +0.000 A 
ATOM     14  C   UNL     1      -1.146  13.460  19.478  0.00  0.00    +0.000 A 
ATOM     15  C   UNL     1      -0.160  14.253  18.903  0.00  0.00    +0.000 A 
ATOM     16  F   UNL     1      -0.465  15.488  18.480  0.00  0.00    +0.000 F 
ATOM     17  C   UNL     1       1.137  13.784  18.763  0.00  0.00    +0.000 A 
ATOM     18  C   UNL     1       1.462  12.503  19.213  0.00  0.00    +0.000 A 
ENDBRANCH  11  12
ENDBRANCH   1   3
BRANCH   1  19
ATOM     19  C   UNL     1       1.518   4.758  20.528  0.00  0.00    +0.000 C 
BRANCH  19  20
ATOM     20  C   UNL     1       2.512   3.609  20.321  0.00  0.00    +0.000 C 
BRANCH  20  24
ATOM     21  C   UNL     1       5.209   4.314  17.035  0.00  0.00    +0.000 A 
ATOM     22  C   UNL     1       3.907   3.882  16.773  0.00  0.00    +0.000 A 
ATOM     23  C   UNL     1       3.034   3.645  17.838  0.00  0.00    +0.000 A 
ATOM     24  C   UNL     1       3.454   3.840  19.163  0.00  0.00    +0.000 A 
ATOM     25  C   UNL     1       4.772   4.253  19.408  0.00  0.00    +0.000 A 
ATOM     26  C   UNL     1       5.647   4.495  18.348  0.00  0.00    +0.000 A 
BRANCH  21  27
ATOM     27  S   UNL     1       6.315   4.662  15.701  0.00  0.00    +0.000 S 
ATOM     28  O   UNL     1       6.183   6.049  15.332  0.00  0.00    +0.000 OA
ATOM     29  O   UNL     1       6.254   3.585  14.735  0.00  0.00    +0.000 OA
BRANCH  27  30
ATOM     30  N   UNL     1       7.823   4.500  16.432  0.00  0.00    +0.000 NA
ATOM     31  H   UNL     1       8.535   4.404  15.704  0.00  0.00    +0.000 HD
ATOM     32  H   UNL     1       7.809   3.723  17.089  0.00  0.00    +0.000 HD
ENDBRANCH  27  30
ENDBRANCH  21  27
ENDBRANCH  20  24
ENDBRANCH  19  20
ENDBRANCH   1  19
TORSDOF 7
ENDMDL
MODEL 7
REMARK VINA RESULT:      -8.1      7.107      9.608
REMARK  Name = 
REMARK  7 active torsions:
REMARK  status: ('A' for Active; 'I' for Inactive)
REMARK    1  A    between atoms: N_1  and  S_2
REMARK    2  A    between atoms: S_2  and  C_5
REMARK    3  A    between atoms: C_8  and  C_9
REMARK    4  A    between atoms: C_9  and  C_10
REMARK    5  A    between atoms: C_10  and  N_11
REMARK    6  A    between atoms: N_11  and  C_12
REMARK    7  A    between atoms: N_20  and  C_21
REMARK                            x       y       z     vdW  Elec       q    Type
REMARK                         _______ _______ _______ _____ _____    ______ ____
ROOT
ATOM      1  N   UNL     1       2.634   6.142  20.504  0.00  0.00    +0.000 N 
ATOM      2  H   UNL     1       3.582   5.913  20.229  0.00  0.00    +0.000 HD
ENDROOT
BRANCH   1   3
ATOM      3  C   UNL     1       2.168   7.305  19.884  0.00  0.00    +0.000 A 
ATOM      4  N   UNL     1       2.309   7.455  18.546  0.00  0.00    +0.000 NA
ATOM      5  C   UNL     1       1.860   8.579  17.961  0.00  0.00    +0.000 A 
ATOM      6  N   UNL     1       1.265   9.623  18.548  0.00  0.00    +0.000 NA
ATOM      7  C   UNL     1       1.132   9.459  19.881  0.00  0.00    +0.000 A 
ATOM      8  C   UNL     1       1.552   8.348  20.594  0.00  0.00    +0.000 A 
ATOM      9  C   UNL     1       1.221   8.642  21.927  0.00  0.00    +0.000 A 
ATOM     10  N   UNL     1       0.657   9.842  22.077  0.00  0.00    +0.000 NA
ATOM     11  N   UNL     1       0.586  10.347  20.807  0.00  0.00    +0.000 N 
BRANCH  11  12
ATOM     12  C   UNL     1       0.030  11.645  20.583  0.00  0.00    +0.000 A 
ATOM     13  C   UNL     1      -1.339  11.773  20.283  0.00  0.00    +0.000 A 
ATOM     14  C   UNL     1      -1.903  13.039  20.093  0.00  0.00    +0.000 A 
ATOM     15  C   UNL     1      -1.103  14.172  20.185  0.00  0.00    +0.000 A 
ATOM     16  F   UNL     1      -1.646  15.384  20.009  0.00  0.00    +0.000 F 
ATOM     17  C   UNL     1       0.252  14.065  20.461  0.00  0.00    +0.000 A 
ATOM     18  C   UNL     1       0.819  12.804  20.658  0.00  0.00    +0.000 A 
ENDBRANCH  11  12
ENDBRANCH   1   3
BRANCH   1  19
ATOM     19  C   UNL     1       1.701   5.014  20.463  0.00  0.00    +0.000 C 
BRANCH  19  20
ATOM     20  C   UNL     1       2.454   3.734  20.082  0.00  0.00    +0.000 C 
BRANCH  20  24
ATOM     21  C   UNL     1       5.409   4.399  17.017  0.00  0.00    +0.000 A 
ATOM     22  C   UNL     1       4.090   4.122  16.649  0.00  0.00    +0.000 A 
ATOM     23  C   UNL     1       3.132   3.898  17.643  0.00  0.00    +0.000 A 
ATOM     24  C   UNL     1       3.486   3.952  19.000  0.00  0.00    +0.000 A 
ATOM     25  C   UNL     1       4.820   4.210  19.350  0.00  0.00    +0.000 A 
ATOM     26  C   UNL     1       5.778   4.439  18.362  0.00  0.00    +0.000 A 
BRANCH  21  27
ATOM     27  S   UNL     1       6.625   4.729  15.777  0.00  0.00    +0.000 S 
ATOM     28  O   UNL     1       7.933   4.474  16.325  0.00  0.00    +0.000 OA
ATOM     29  O   UNL     1       6.288   5.960  15.092  0.00  0.00    +0.000 OA
BRANCH  27  30
ATOM     30  N   UNL     1       6.329   3.514  14.651  0.00  0.00    +0.000 NA
ATOM     31  H   UNL     1       6.645   2.621  15.037  0.00  0.00    +0.000 HD
ATOM     32  H   UNL     1       6.769   3.749  13.763  0.00  0.00    +0.000 HD
ENDBRANCH  27  30
ENDBRANCH  21  27
ENDBRANCH  20  24
ENDBRANCH  19  20
ENDBRANCH   1  19
TORSDOF 7
ENDMDL
MODEL 8
REMARK VINA RESULT:      -8.1      9.000     11.327
REMARK  Name = 
REMARK  7 active torsions:
REMARK  status: ('A' for Active; 'I' for Inactive)
REMARK    1  A    between atoms: N_1  and  S_2
REMARK    2  A    between atoms: S_2  and  C_5
REMARK    3  A    between atoms: C_8  and  C_9
REMARK    4  A    between atoms: C_9  and  C_10
REMARK    5  A    between atoms: C_10  and  N_11
REMARK    6  A    between atoms: N_11  and  C_12
REMARK    7  A    between atoms: N_20  and  C_21
REMARK                            x       y       z     vdW  Elec       q    Type
REMARK                         _______ _______ _______ _____ _____    ______ ____
ROOT
ATOM      1  N   UNL     1       1.570   8.953  19.345  0.00  0.00    +0.000 N 
ATOM      2  H   UNL     1       2.455   9.003  19.837  0.00  0.00    +0.000 HD
ENDROOT
BRANCH   1   3
ATOM      3  C   UNL     1       0.749  10.051  19.619  0.00  0.00    +0.000 A 
ATOM      4  N   UNL     1       0.400  10.894  18.619  0.00  0.00    +0.000 NA
ATOM      5  C   UNL     1      -0.386  11.949  18.894  0.00  0.00    +0.000 A 
ATOM      6  N   UNL     1      -0.895  12.300  20.080  0.00  0.00    +0.000 NA
ATOM      7  C   UNL     1      -0.538  11.451  21.066  0.00  0.00    +0.000 A 
ATOM      8  C   UNL     1       0.263  10.333  20.906  0.00  0.00    +0.000 A 
ATOM      9  C   UNL     1       0.367   9.788  22.196  0.00  0.00    +0.000 A 
ATOM     10  N   UNL     1      -0.286  10.494  23.120  0.00  0.00    +0.000 NA
ATOM     11  N   UNL     1      -0.863  11.521  22.421  0.00  0.00    +0.000 N 
BRANCH  11  12
ATOM     12  C   UNL     1      -1.652  12.498  23.104  0.00  0.00    +0.000 A 
ATOM     13  C   UNL     1      -2.967  12.183  23.491  0.00  0.00    +0.000 A 
ATOM     14  C   UNL     1      -3.740  13.119  24.188  0.00  0.00    +0.000 A 
ATOM     15  C   UNL     1      -3.208  14.369  24.484  0.00  0.00    +0.000 A 
ATOM     16  F   UNL     1      -3.947  15.261  25.157  0.00  0.00    +0.000 F 
ATOM     17  C   UNL     1      -1.921  14.704  24.093  0.00  0.00    +0.000 A 
ATOM     18  C   UNL     1      -1.143  13.772  23.403  0.00  0.00    +0.000 A 
ENDBRANCH  11  12
ENDBRANCH   1   3
BRANCH   1  19
ATOM     19  C   UNL     1       1.683   8.617  17.924  0.00  0.00    +0.000 C 
BRANCH  19  20
ATOM     20  C   UNL     1       3.080   8.056  17.636  0.00  0.00    +0.000 C 
BRANCH  20  24
ATOM     21  C   UNL     1       3.497   3.945  18.856  0.00  0.00    +0.000 A 
ATOM     22  C   UNL     1       4.621   4.775  18.850  0.00  0.00    +0.000 A 
ATOM     23  C   UNL     1       4.487   6.107  18.446  0.00  0.00    +0.000 A 
ATOM     24  C   UNL     1       3.239   6.612  18.052  0.00  0.00    +0.000 A 
ATOM     25  C   UNL     1       2.127   5.758  18.044  0.00  0.00    +0.000 A 
ATOM     26  C   UNL     1       2.253   4.429  18.450  0.00  0.00    +0.000 A 
BRANCH  21  27
ATOM     27  S   UNL     1       3.635   2.270  19.406  0.00  0.00    +0.000 S 
ATOM     28  O   UNL     1       2.335   1.803  19.816  0.00  0.00    +0.000 OA
ATOM     29  O   UNL     1       4.815   2.133  20.234  0.00  0.00    +0.000 OA
BRANCH  27  30
ATOM     30  N   UNL     1       4.012   1.455  17.982  0.00  0.00    +0.000 NA
ATOM     31  H   UNL     1       4.938   1.752  17.666  0.00  0.00    +0.000 HD
ATOM     32  H   UNL     1       3.280   1.606  17.291  0.00  0.00    +0.000 HD
ENDBRANCH  27  30
ENDBRANCH  21  27
ENDBRANCH  20  24
ENDBRANCH  19  20
ENDBRANCH   1  19
TORSDOF 7
ENDMDL
MODEL 9
REMARK VINA RESULT:      -8.1      7.756     10.049
REMARK  Name = 
REMARK  7 active torsions:
REMARK  status: ('A' for Active; 'I' for Inactive)
REMARK    1  A    between atoms: N_1  and  S_2
REMARK    2  A    between atoms: S_2  and  C_5
REMARK    3  A    between atoms: C_8  and  C_9
REMARK    4  A    between atoms: C_9  and  C_10
REMARK    5  A    between atoms: C_10  and  N_11
REMARK    6  A    between atoms: N_11  and  C_12
REMARK    7  A    between atoms: N_20  and  C_21
REMARK                            x       y       z     vdW  Elec       q    Type
REMARK                         _______ _______ _______ _____ _____    ______ ____
ROOT
ATOM      1  N   UNL     1       1.894   7.335  21.096  0.00  0.00    +0.000 N 
ATOM      2  H   UNL     1       2.904   7.422  21.106  0.00  0.00    +0.000 HD
ENDROOT
BRANCH   1   3
ATOM      3  C   UNL     1       1.262   8.538  20.767  0.00  0.00    +0.000 A 
ATOM      4  N   UNL     1       1.294   8.986  19.490  0.00  0.00    +0.000 NA
ATOM      5  C   UNL     1       0.686  10.146  19.186  0.00  0.00    +0.000 A 
ATOM      6  N   UNL     1       0.022  10.960  20.013  0.00  0.00    +0.000 NA
ATOM      7  C   UNL     1      -0.001  10.501  21.282  0.00  0.00    +0.000 A 
ATOM      8  C   UNL     1       0.586   9.323  21.715  0.00  0.00    +0.000 A 
ATOM      9  C   UNL     1       0.316   9.284  23.092  0.00  0.00    +0.000 A 
ATOM     10  N   UNL     1      -0.363  10.345  23.527  0.00  0.00    +0.000 NA
ATOM     11  N   UNL     1      -0.576  11.098  22.403  0.00  0.00    +0.000 N 
BRANCH  11  12
ATOM     12  C   UNL     1      -1.285  12.336  22.493  0.00  0.00    +0.000 A 
ATOM     13  C   UNL     1      -2.683  12.328  22.649  0.00  0.00    +0.000 A 
ATOM     14  C   UNL     1      -3.386  13.531  22.771  0.00  0.00    +0.000 A 
ATOM     15  C   UNL     1      -2.700  14.739  22.722  0.00  0.00    +0.000 A 
ATOM     16  F   UNL     1      -3.374  15.890  22.845  0.00  0.00    +0.000 F 
ATOM     17  C   UNL     1      -1.325  14.768  22.550  0.00  0.00    +0.000 A 
ATOM     18  C   UNL     1      -0.617  13.569  22.434  0.00  0.00    +0.000 A 
ENDBRANCH  11  12
ENDBRANCH   1   3
BRANCH   1  19
ATOM     19  C   UNL     1       1.393   6.166  20.370  0.00  0.00    +0.000 C 
BRANCH  19  20
ATOM     20  C   UNL     1       2.446   5.052  20.396  0.00  0.00    +0.000 C 
BRANCH  20  24
ATOM     21  C   UNL     1       5.583   5.625  17.497  0.00  0.00    +0.000 A 
ATOM     22  C   UNL     1       5.867   4.959  18.691  0.00  0.00    +0.000 A 
ATOM     23  C   UNL     1       4.852   4.780  19.636  0.00  0.00    +0.000 A 
ATOM     24  C   UNL     1       3.556   5.261  19.391  0.00  0.00    +0.000 A 
ATOM     25  C   UNL     1       3.295   5.946  18.196  0.00  0.00    +0.000 A 
ATOM     26  C   UNL     1       4.303   6.124  17.248  0.00  0.00    +0.000 A 
BRANCH  21  27
ATOM     27  S   UNL     1       6.840   5.823  16.270  0.00  0.00    +0.000 S 
ATOM     28  O   UNL     1       7.666   6.950  16.622  0.00  0.00    +0.000 OA
ATOM     29  O   UNL     1       6.256   5.660  14.955  0.00  0.00    +0.000 OA
BRANCH  27  30
ATOM     30  N   UNL     1       7.782   4.447  16.496  0.00  0.00    +0.000 NA
ATOM     31  H   UNL     1       7.960   4.015  15.586  0.00  0.00    +0.000 HD
ATOM     32  H   UNL     1       7.330   3.821  17.159  0.00  0.00    +0.000 HD
ENDBRANCH  27  30
ENDBRANCH  21  27
ENDBRANCH  20  24
ENDBRANCH  19  20
ENDBRANCH   1  19
TORSDOF 7
ENDMDL
