MODEL 1
REMARK VINA RESULT:      -8.2      0.000      0.000
REMARK  Name = 
REMARK  6 active torsions:
REMARK  status: ('A' for Active; 'I' for Inactive)
REMARK    1  A    between atoms: C_1  and  C_2
REMARK    2  A    between atoms: C_2  and  C_3
REMARK    3  A    between atoms: C_7  and  N_8
REMARK    4  A    between atoms: C_13  and  C_14
REMARK    5  A    between atoms: C_14  and  N_15
REMARK    6  A    between atoms: C_18  and  C_19
REMARK                            x       y       z     vdW  Elec       q    Type
REMARK                         _______ _______ _______ _____ _____    ______ ____
ROOT
ATOM      1  N   UNL     1       3.653   5.184  19.239  0.00  0.00    +0.000 N 
ATOM      2  C   UNL     1       5.055   5.667  19.348  0.00  0.00    +0.000 C 
ATOM      3  C   UNL     1       5.623   5.307  18.014  0.00  0.00    +0.000 A 
ATOM      4  C   UNL     1       4.894   4.219  17.526  0.00  0.00    +0.000 A 
ATOM      5  C   UNL     1       5.081   3.689  16.262  0.00  0.00    +0.000 A 
ATOM      6  C   UNL     1       6.046   4.290  15.443  0.00  0.00    +0.000 A 
ATOM      7  C   UNL     1       6.767   5.412  15.922  0.00  0.00    +0.000 A 
ATOM      8  C   UNL     1       6.570   5.939  17.216  0.00  0.00    +0.000 A 
ATOM      9  C   UNL     1       3.709   4.043  18.389  0.00  0.00    +0.000 C 
ATOM     10  O   UNL     1       2.867   3.183  18.217  0.00  0.00    +0.000 OA
ENDROOT
BRANCH   1  15
ATOM     11  C   UNL     1       1.563   8.143  19.802  0.00  0.00    +0.000 A 
ATOM     12  C   UNL     1       2.110   8.930  18.772  0.00  0.00    +0.000 A 
ATOM     13  C   UNL     1       2.811   8.379  17.702  0.00  0.00    +0.000 A 
ATOM     14  C   UNL     1       3.101   7.022  17.695  0.00  0.00    +0.000 A 
ATOM     15  C   UNL     1       2.768   6.249  18.815  0.00  0.00    +0.000 A 
ATOM     16  C   UNL     1       1.873   6.768  19.762  0.00  0.00    +0.000 A 
BRANCH  11  18
ATOM     17  C   UNL     1      -0.420   7.881  21.395  0.00  0.00    +0.000 C 
ATOM     18  C   UNL     1       0.759   8.786  21.028  0.00  0.00    +0.000 C 
ATOM     19  C   UNL     1       1.585   9.270  22.246  0.00  0.00    +0.000 C 
ATOM     20  O   UNL     1       1.366  10.659  21.902  0.00  0.00    +0.000 OA
ATOM     21  C   UNL     1       0.361  10.279  20.935  0.00  0.00    +0.000 C 
ENDBRANCH  11  18
ENDBRANCH   1  15
BRANCH   8  22
ATOM     22  C   UNL     1       7.295   7.201  17.619  0.00  0.00    +0.000 C 
ATOM     23  F   UNL     1       8.018   7.087  18.767  0.00  0.00    +0.000 F 
ATOM     24  F   UNL     1       8.179   7.609  16.669  0.00  0.00    +0.000 F 
ATOM     25  F   UNL     1       6.447   8.248  17.820  0.00  0.00    +0.000 F 
ENDBRANCH   8  22
BRANCH   6  26
ATOM     26  C   UNL     1       6.244   3.814  14.021  0.00  0.00    +0.000 C 
BRANCH  26  27
ATOM     27  N   UNL     1       7.141   4.674  13.258  0.00  0.00    +0.000 NA
ATOM     28  F   UNL     1       7.258   4.260  11.955  0.00  0.00    +0.000 F 
ATOM     29  H   UNL     1       8.052   4.706  13.712  0.00  0.00    +0.000 HD
ENDBRANCH  26  27
ENDBRANCH   6  26
TORSDOF 5
ENDMDL
MODEL 2
REMARK VINA RESULT:      -7.7      4.577      7.930
REMARK  Name = 
REMARK  6 active torsions:
REMARK  status: ('A' for Active; 'I' for Inactive)
REMARK    1  A    between atoms: C_1  and  C_2
REMARK    2  A    between atoms: C_2  and  C_3
REMARK    3  A    between atoms: C_7  and  N_8
REMARK    4  A    between atoms: C_13  and  C_14
REMARK    5  A    between atoms: C_14  and  N_15
REMARK    6  A    between atoms: C_18  and  C_19
REMARK                            x       y       z     vdW  Elec       q    Type
REMARK                         _______ _______ _______ _____ _____    ______ ____
ROOT
ATOM      1  N   UNL     1       0.720   8.236  21.291  0.00  0.00    +0.000 N 
ATOM      2  C   UNL     1      -0.504   8.603  20.530  0.00  0.00    +0.000 C 
ATOM      3  C   UNL     1      -0.212  10.007  20.109  0.00  0.00    +0.000 A 
ATOM      4  C   UNL     1       0.680  10.548  21.039  0.00  0.00    +0.000 A 
ATOM      5  C   UNL     1       1.248  11.801  20.901  0.00  0.00    +0.000 A 
ATOM      6  C   UNL     1       0.910  12.545  19.763  0.00  0.00    +0.000 A 
ATOM      7  C   UNL     1       0.030  11.989  18.802  0.00  0.00    +0.000 A 
ATOM      8  C   UNL     1      -0.548  10.711  18.958  0.00  0.00    +0.000 A 
ATOM      9  C   UNL     1       1.170   9.447  21.892  0.00  0.00    +0.000 C 
ATOM     10  O   UNL     1       1.972   9.593  22.794  0.00  0.00    +0.000 OA
ENDROOT
BRANCH   1  15
ATOM     11  C   UNL     1       2.034   5.318  19.504  0.00  0.00    +0.000 A 
ATOM     12  C   UNL     1       2.210   5.952  18.260  0.00  0.00    +0.000 A 
ATOM     13  C   UNL     1       2.295   7.336  18.131  0.00  0.00    +0.000 A 
ATOM     14  C   UNL     1       2.076   8.145  19.236  0.00  0.00    +0.000 A 
ATOM     15  C   UNL     1       1.675   7.556  20.443  0.00  0.00    +0.000 A 
ATOM     16  C   UNL     1       1.820   6.170  20.607  0.00  0.00    +0.000 A 
BRANCH  11  18
ATOM     17  C   UNL     1       1.545   3.361  21.076  0.00  0.00    +0.000 C 
ATOM     18  C   UNL     1       1.938   3.726  19.642  0.00  0.00    +0.000 C 
ATOM     19  C   UNL     1       1.140   2.964  18.556  0.00  0.00    +0.000 C 
ATOM     20  O   UNL     1       2.353   2.433  17.969  0.00  0.00    +0.000 OA
ATOM     21  C   UNL     1       3.120   2.877  19.111  0.00  0.00    +0.000 C 
ENDBRANCH  11  18
ENDBRANCH   1  15
BRANCH   8  22
ATOM     22  C   UNL     1      -1.390  10.138  17.843  0.00  0.00    +0.000 C 
ATOM     23  F   UNL     1      -2.536   9.534  18.262  0.00  0.00    +0.000 F 
ATOM     24  F   UNL     1      -1.784  11.093  16.957  0.00  0.00    +0.000 F 
ATOM     25  F   UNL     1      -0.723   9.200  17.115  0.00  0.00    +0.000 F 
ENDBRANCH   8  22
BRANCH   6  26
ATOM     26  C   UNL     1       1.558  13.888  19.509  0.00  0.00    +0.000 C 
BRANCH  26  27
ATOM     27  N   UNL     1       2.356  13.907  18.288  0.00  0.00    +0.000 NA
ATOM     28  F   UNL     1       3.079  12.751  18.133  0.00  0.00    +0.000 F 
ATOM     29  H   UNL     1       2.969  14.720  18.293  0.00  0.00    +0.000 HD
ENDBRANCH  26  27
ENDBRANCH   6  26
TORSDOF 5
ENDMDL
MODEL 3
REMARK VINA RESULT:      -7.6      0.623      1.255
REMARK  Name = 
REMARK  6 active torsions:
REMARK  status: ('A' for Active; 'I' for Inactive)
REMARK    1  A    between atoms: C_1  and  C_2
REMARK    2  A    between atoms: C_2  and  C_3
REMARK    3  A    between atoms: C_7  and  N_8
REMARK    4  A    between atoms: C_13  and  C_14
REMARK    5  A    between atoms: C_14  and  N_15
REMARK    6  A    between atoms: C_18  and  C_19
REMARK                            x       y       z     vdW  Elec       q    Type
REMARK                         _______ _______ _______ _____ _____    ______ ____
ROOT
ATOM      1  N   UNL     1       3.508   5.448  19.274  0.00  0.00    +0.000 N 
ATOM      2  C   UNL     1       4.926   5.881  19.392  0.00  0.00    +0.000 C 
ATOM      3  C   UNL     1       5.507   5.437  18.089  0.00  0.00    +0.000 A 
ATOM      4  C   UNL     1       4.745   4.357  17.635  0.00  0.00    +0.000 A 
ATOM      5  C   UNL     1       4.937   3.762  16.401  0.00  0.00    +0.000 A 
ATOM      6  C   UNL     1       5.942   4.286  15.577  0.00  0.00    +0.000 A 
ATOM      7  C   UNL     1       6.697   5.401  16.020  0.00  0.00    +0.000 A 
ATOM      8  C   UNL     1       6.494   5.995  17.285  0.00  0.00    +0.000 A 
ATOM      9  C   UNL     1       3.536   4.267  18.479  0.00  0.00    +0.000 C 
ATOM     10  O   UNL     1       2.665   3.433  18.328  0.00  0.00    +0.000 OA
ENDROOT
BRANCH   1  15
ATOM     11  C   UNL     1       1.652   8.590  19.621  0.00  0.00    +0.000 A 
ATOM     12  C   UNL     1       2.196   9.229  18.492  0.00  0.00    +0.000 A 
ATOM     13  C   UNL     1       2.803   8.525  17.454  0.00  0.00    +0.000 A 
ATOM     14  C   UNL     1       3.001   7.158  17.574  0.00  0.00    +0.000 A 
ATOM     15  C   UNL     1       2.676   6.525  18.782  0.00  0.00    +0.000 A 
ATOM     16  C   UNL     1       1.867   7.199  19.709  0.00  0.00    +0.000 A 
BRANCH  11  18
ATOM     17  C   UNL     1       0.956  10.900  20.470  0.00  0.00    +0.000 C 
ATOM     18  C   UNL     1       0.956   9.407  20.809  0.00  0.00    +0.000 C 
ATOM     19  C   UNL     1      -0.403   8.881  21.335  0.00  0.00    +0.000 C 
ATOM     20  O   UNL     1       0.203   8.405  22.562  0.00  0.00    +0.000 OA
ATOM     21  C   UNL     1       1.421   9.122  22.258  0.00  0.00    +0.000 C 
ENDBRANCH  11  18
ENDBRANCH   1  15
BRANCH   8  22
ATOM     22  C   UNL     1       7.260   7.245  17.646  0.00  0.00    +0.000 C 
ATOM     23  F   UNL     1       6.478   8.340  17.847  0.00  0.00    +0.000 F 
ATOM     24  F   UNL     1       7.978   7.093  18.792  0.00  0.00    +0.000 F 
ATOM     25  F   UNL     1       8.157   7.603  16.685  0.00  0.00    +0.000 F 
ENDBRANCH   8  22
BRANCH   6  26
ATOM     26  C   UNL     1       6.150   3.737  14.184  0.00  0.00    +0.000 C 
BRANCH  26  27
ATOM     27  N   UNL     1       7.069   4.545  13.390  0.00  0.00    +0.000 NA
ATOM     28  F   UNL     1       7.041   4.195  12.064  0.00  0.00    +0.000 F 
ATOM     29  H   UNL     1       8.011   4.461  13.768  0.00  0.00    +0.000 HD
ENDBRANCH  26  27
ENDBRANCH   6  26
TORSDOF 5
ENDMDL
MODEL 4
REMARK VINA RESULT:      -7.6      4.746      7.916
REMARK  Name = 
REMARK  6 active torsions:
REMARK  status: ('A' for Active; 'I' for Inactive)
REMARK    1  A    between atoms: C_1  and  C_2
REMARK    2  A    between atoms: C_2  and  C_3
REMARK    3  A    between atoms: C_7  and  N_8
REMARK    4  A    between atoms: C_13  and  C_14
REMARK    5  A    between atoms: C_14  and  N_15
REMARK    6  A    between atoms: C_18  and  C_19
REMARK                            x       y       z     vdW  Elec       q    Type
REMARK                         _______ _______ _______ _____ _____    ______ ____
ROOT
ATOM      1  N   UNL     1       0.734   8.255  21.299  0.00  0.00    +0.000 N 
ATOM      2  C   UNL     1      -0.487   8.637  20.541  0.00  0.00    +0.000 C 
ATOM      3  C   UNL     1      -0.202  10.055  20.165  0.00  0.00    +0.000 A 
ATOM      4  C   UNL     1       0.681  10.573  21.117  0.00  0.00    +0.000 A 
ATOM      5  C   UNL     1       1.242  11.833  21.021  0.00  0.00    +0.000 A 
ATOM      6  C   UNL     1       0.906  12.610  19.905  0.00  0.00    +0.000 A 
ATOM      7  C   UNL     1       0.035  12.078  18.921  0.00  0.00    +0.000 A 
ATOM      8  C   UNL     1      -0.536  10.792  19.035  0.00  0.00    +0.000 A 
ATOM      9  C   UNL     1       1.173   9.449  21.939  0.00  0.00    +0.000 C 
ATOM     10  O   UNL     1       1.968   9.573  22.850  0.00  0.00    +0.000 OA
ENDROOT
BRANCH   1  15
ATOM     11  C   UNL     1       2.101   5.390  19.465  0.00  0.00    +0.000 A 
ATOM     12  C   UNL     1       2.255   6.044  18.228  0.00  0.00    +0.000 A 
ATOM     13  C   UNL     1       2.309   7.432  18.118  0.00  0.00    +0.000 A 
ATOM     14  C   UNL     1       2.079   8.221  19.235  0.00  0.00    +0.000 A 
ATOM     15  C   UNL     1       1.698   7.607  20.436  0.00  0.00    +0.000 A 
ATOM     16  C   UNL     1       1.874   6.222  20.581  0.00  0.00    +0.000 A 
BRANCH  11  18
ATOM     17  C   UNL     1       1.688   3.196  18.218  0.00  0.00    +0.000 C 
ATOM     18  C   UNL     1       2.040   3.795  19.582  0.00  0.00    +0.000 C 
ATOM     19  C   UNL     1       3.219   3.088  20.296  0.00  0.00    +0.000 C 
ATOM     20  O   UNL     1       2.405   2.799  21.458  0.00  0.00    +0.000 OA
ATOM     21  C   UNL     1       1.211   3.182  20.738  0.00  0.00    +0.000 C 
ENDBRANCH  11  18
ENDBRANCH   1  15
BRANCH   8  22
ATOM     22  C   UNL     1      -1.367  10.249  17.898  0.00  0.00    +0.000 C 
ATOM     23  F   UNL     1      -0.732   9.315  17.138  0.00  0.00    +0.000 F 
ATOM     24  F   UNL     1      -2.506   9.649  18.337  0.00  0.00    +0.000 F 
ATOM     25  F   UNL     1      -1.763  11.222  17.030  0.00  0.00    +0.000 F 
ENDBRANCH   8  22
BRANCH   6  26
ATOM     26  C   UNL     1       1.547  13.964  19.696  0.00  0.00    +0.000 C 
BRANCH  26  27
ATOM     27  N   UNL     1       2.926  13.868  19.228  0.00  0.00    +0.000 NA
ATOM     28  F   UNL     1       2.997  13.386  17.945  0.00  0.00    +0.000 F 
ATOM     29  H   UNL     1       3.463  13.283  19.866  0.00  0.00    +0.000 HD
ENDBRANCH  26  27
ENDBRANCH   6  26
TORSDOF 5
ENDMDL
MODEL 5
REMARK VINA RESULT:      -7.6      2.998      4.155
REMARK  Name = 
REMARK  6 active torsions:
REMARK  status: ('A' for Active; 'I' for Inactive)
REMARK    1  A    between atoms: C_1  and  C_2
REMARK    2  A    between atoms: C_2  and  C_3
REMARK    3  A    between atoms: C_7  and  N_8
REMARK    4  A    between atoms: C_13  and  C_14
REMARK    5  A    between atoms: C_14  and  N_15
REMARK    6  A    between atoms: C_18  and  C_19
REMARK                            x       y       z     vdW  Elec       q    Type
REMARK                         _______ _______ _______ _____ _____    ______ ____
ROOT
ATOM      1  N   UNL     1       1.991   7.194  18.198  0.00  0.00    +0.000 N 
ATOM      2  C   UNL     1       1.891   5.721  18.375  0.00  0.00    +0.000 C 
ATOM      3  C   UNL     1       3.324   5.309  18.462  0.00  0.00    +0.000 A 
ATOM      4  C   UNL     1       4.078   6.261  17.771  0.00  0.00    +0.000 A 
ATOM      5  C   UNL     1       5.461   6.252  17.737  0.00  0.00    +0.000 A 
ATOM      6  C   UNL     1       6.120   5.237  18.443  0.00  0.00    +0.000 A 
ATOM      7  C   UNL     1       5.361   4.287  19.171  0.00  0.00    +0.000 A 
ATOM      8  C   UNL     1       3.950   4.305  19.192  0.00  0.00    +0.000 A 
ATOM      9  C   UNL     1       3.197   7.408  17.471  0.00  0.00    +0.000 C 
ATOM     10  O   UNL     1       3.562   8.408  16.885  0.00  0.00    +0.000 OA
ENDROOT
BRANCH   1  15
ATOM     11  C   UNL     1       0.712   9.804  20.432  0.00  0.00    +0.000 A 
ATOM     12  C   UNL     1       0.331   8.950  21.483  0.00  0.00    +0.000 A 
ATOM     13  C   UNL     1       0.846   7.663  21.625  0.00  0.00    +0.000 A 
ATOM     14  C   UNL     1       1.669   7.139  20.640  0.00  0.00    +0.000 A 
ATOM     15  C   UNL     1       1.887   7.878  19.469  0.00  0.00    +0.000 A 
ATOM     16  C   UNL     1       1.554   9.241  19.450  0.00  0.00    +0.000 A 
BRANCH  11  18
ATOM     17  C   UNL     1      -0.899  11.304  19.130  0.00  0.00    +0.000 C 
ATOM     18  C   UNL     1       0.115  11.281  20.277  0.00  0.00    +0.000 C 
ATOM     19  C   UNL     1      -0.373  11.991  21.564  0.00  0.00    +0.000 C 
ATOM     20  O   UNL     1       0.764  12.888  21.558  0.00  0.00    +0.000 OA
ATOM     21  C   UNL     1       1.111  12.466  20.219  0.00  0.00    +0.000 C 
ENDBRANCH  11  18
ENDBRANCH   1  15
BRANCH   8  22
ATOM     22  C   UNL     1       3.211   3.328  20.075  0.00  0.00    +0.000 C 
ATOM     23  F   UNL     1       2.541   3.907  21.109  0.00  0.00    +0.000 F 
ATOM     24  F   UNL     1       2.276   2.620  19.385  0.00  0.00    +0.000 F 
ATOM     25  F   UNL     1       4.040   2.407  20.641  0.00  0.00    +0.000 F 
ENDBRANCH   8  22
BRANCH   6  26
ATOM     26  C   UNL     1       7.631   5.216  18.516  0.00  0.00    +0.000 C 
BRANCH  26  27
ATOM     27  N   UNL     1       8.220   4.170  17.687  0.00  0.00    +0.000 NA
ATOM     28  F   UNL     1       7.628   4.103  16.451  0.00  0.00    +0.000 F 
ATOM     29  H   UNL     1       8.154   3.274  18.170  0.00  0.00    +0.000 HD
ENDBRANCH  26  27
ENDBRANCH   6  26
TORSDOF 5
ENDMDL
MODEL 6
REMARK VINA RESULT:      -7.6      3.099      4.252
REMARK  Name = 
REMARK  6 active torsions:
REMARK  status: ('A' for Active; 'I' for Inactive)
REMARK    1  A    between atoms: C_1  and  C_2
REMARK    2  A    between atoms: C_2  and  C_3
REMARK    3  A    between atoms: C_7  and  N_8
REMARK    4  A    between atoms: C_13  and  C_14
REMARK    5  A    between atoms: C_14  and  N_15
REMARK    6  A    between atoms: C_18  and  C_19
REMARK                            x       y       z     vdW  Elec       q    Type
REMARK                         _______ _______ _______ _____ _____    ______ ____
ROOT
ATOM      1  N   UNL     1       1.989   7.212  18.108  0.00  0.00    +0.000 N 
ATOM      2  C   UNL     1       1.874   5.746  18.330  0.00  0.00    +0.000 C 
ATOM      3  C   UNL     1       3.303   5.325  18.449  0.00  0.00    +0.000 A 
ATOM      4  C   UNL     1       4.074   6.250  17.739  0.00  0.00    +0.000 A 
ATOM      5  C   UNL     1       5.456   6.228  17.725  0.00  0.00    +0.000 A 
ATOM      6  C   UNL     1       6.098   5.230  18.470  0.00  0.00    +0.000 A 
ATOM      7  C   UNL     1       5.321   4.309  19.216  0.00  0.00    +0.000 A 
ATOM      8  C   UNL     1       3.910   4.339  19.217  0.00  0.00    +0.000 A 
ATOM      9  C   UNL     1       3.206   7.394  17.392  0.00  0.00    +0.000 C 
ATOM     10  O   UNL     1       3.588   8.372  16.780  0.00  0.00    +0.000 OA
ENDROOT
BRANCH   1  15
ATOM     11  C   UNL     1       0.574   9.794  20.294  0.00  0.00    +0.000 A 
ATOM     12  C   UNL     1       0.307   8.954  21.390  0.00  0.00    +0.000 A 
ATOM     13  C   UNL     1       0.936   7.722  21.559  0.00  0.00    +0.000 A 
ATOM     14  C   UNL     1       1.764   7.229  20.562  0.00  0.00    +0.000 A 
ATOM     15  C   UNL     1       1.874   7.936  19.357  0.00  0.00    +0.000 A 
ATOM     16  C   UNL     1       1.424   9.264  19.300  0.00  0.00    +0.000 A 
BRANCH  11  18
ATOM     17  C   UNL     1      -0.235  11.921  21.459  0.00  0.00    +0.000 C 
ATOM     18  C   UNL     1      -0.153  11.207  20.107  0.00  0.00    +0.000 C 
ATOM     19  C   UNL     1       0.334  12.111  18.947  0.00  0.00    +0.000 C 
ATOM     20  O   UNL     1      -0.866  11.850  18.178  0.00  0.00    +0.000 OA
ATOM     21  C   UNL     1      -1.492  11.240  19.330  0.00  0.00    +0.000 C 
ENDBRANCH  11  18
ENDBRANCH   1  15
BRANCH   8  22
ATOM     22  C   UNL     1       3.151   3.396  20.120  0.00  0.00    +0.000 C 
ATOM     23  F   UNL     1       2.157   2.705  19.496  0.00  0.00    +0.000 F 
ATOM     24  F   UNL     1       3.961   2.452  20.671  0.00  0.00    +0.000 F 
ATOM     25  F   UNL     1       2.556   4.038  21.163  0.00  0.00    +0.000 F 
ENDBRANCH   8  22
BRANCH   6  26
ATOM     26  C   UNL     1       7.607   5.199  18.564  0.00  0.00    +0.000 C 
BRANCH  26  27
ATOM     27  N   UNL     1       8.203   4.175  17.713  0.00  0.00    +0.000 NA
ATOM     28  F   UNL     1       7.607   4.128  16.478  0.00  0.00    +0.000 F 
ATOM     29  H   UNL     1       8.147   3.270  18.177  0.00  0.00    +0.000 HD
ENDBRANCH  26  27
ENDBRANCH   6  26
TORSDOF 5
ENDMDL
MODEL 7
REMARK VINA RESULT:      -7.6      2.936      4.345
REMARK  Name = 
REMARK  6 active torsions:
REMARK  status: ('A' for Active; 'I' for Inactive)
REMARK    1  A    between atoms: C_1  and  C_2
REMARK    2  A    between atoms: C_2  and  C_3
REMARK    3  A    between atoms: C_7  and  N_8
REMARK    4  A    between atoms: C_13  and  C_14
REMARK    5  A    between atoms: C_14  and  N_15
REMARK    6  A    between atoms: C_18  and  C_19
REMARK                            x       y       z     vdW  Elec       q    Type
REMARK                         _______ _______ _______ _____ _____    ______ ____
ROOT
ATOM      1  N   UNL     1       2.092   6.996  18.084  0.00  0.00    +0.000 N 
ATOM      2  C   UNL     1       1.955   5.530  18.291  0.00  0.00    +0.000 C 
ATOM      3  C   UNL     1       3.378   5.085  18.386  0.00  0.00    +0.000 A 
ATOM      4  C   UNL     1       4.155   6.004  17.675  0.00  0.00    +0.000 A 
ATOM      5  C   UNL     1       5.537   5.960  17.642  0.00  0.00    +0.000 A 
ATOM      6  C   UNL     1       6.172   4.944  18.368  0.00  0.00    +0.000 A 
ATOM      7  C   UNL     1       5.390   4.027  19.114  0.00  0.00    +0.000 A 
ATOM      8  C   UNL     1       3.980   4.080  19.135  0.00  0.00    +0.000 A 
ATOM      9  C   UNL     1       3.302   7.166  17.352  0.00  0.00    +0.000 C 
ATOM     10  O   UNL     1       3.691   8.145  16.747  0.00  0.00    +0.000 OA
ENDROOT
BRANCH   1  15
ATOM     11  C   UNL     1       0.844   9.655  20.278  0.00  0.00    +0.000 A 
ATOM     12  C   UNL     1       0.478   8.824  21.353  0.00  0.00    +0.000 A 
ATOM     13  C   UNL     1       0.995   7.540  21.516  0.00  0.00    +0.000 A 
ATOM     14  C   UNL     1       1.804   6.994  20.531  0.00  0.00    +0.000 A 
ATOM     15  C   UNL     1       2.005   7.708  19.342  0.00  0.00    +0.000 A 
ATOM     16  C   UNL     1       1.672   9.070  19.297  0.00  0.00    +0.000 A 
BRANCH  11  18
ATOM     17  C   UNL     1      -0.618  11.178  18.836  0.00  0.00    +0.000 C 
ATOM     18  C   UNL     1       0.244  11.128  20.099  0.00  0.00    +0.000 C 
ATOM     19  C   UNL     1      -0.414  11.785  21.338  0.00  0.00    +0.000 C 
ATOM     20  O   UNL     1       0.698  12.696  21.506  0.00  0.00    +0.000 OA
ATOM     21  C   UNL     1       1.218  12.328  20.208  0.00  0.00    +0.000 C 
ENDBRANCH  11  18
ENDBRANCH   1  15
BRANCH   8  22
ATOM     22  C   UNL     1       3.218   3.139  20.037  0.00  0.00    +0.000 C 
ATOM     23  F   UNL     1       2.257   2.413  19.403  0.00  0.00    +0.000 F 
ATOM     24  F   UNL     1       4.034   2.226  20.631  0.00  0.00    +0.000 F 
ATOM     25  F   UNL     1       2.580   3.790  21.050  0.00  0.00    +0.000 F 
ENDBRANCH   8  22
BRANCH   6  26
ATOM     26  C   UNL     1       7.681   4.887  18.440  0.00  0.00    +0.000 C 
BRANCH  26  27
ATOM     27  N   UNL     1       8.227   5.739  19.491  0.00  0.00    +0.000 NA
ATOM     28  F   UNL     1       8.516   6.998  19.028  0.00  0.00    +0.000 F 
ATOM     29  H   UNL     1       9.056   5.300  19.890  0.00  0.00    +0.000 HD
ENDBRANCH  26  27
ENDBRANCH   6  26
TORSDOF 5
ENDMDL
MODEL 8
REMARK VINA RESULT:      -7.5      3.010      4.433
REMARK  Name = 
REMARK  6 active torsions:
REMARK  status: ('A' for Active; 'I' for Inactive)
REMARK    1  A    between atoms: C_1  and  C_2
REMARK    2  A    between atoms: C_2  and  C_3
REMARK    3  A    between atoms: C_7  and  N_8
REMARK    4  A    between atoms: C_13  and  C_14
REMARK    5  A    between atoms: C_14  and  N_15
REMARK    6  A    between atoms: C_18  and  C_19
REMARK                            x       y       z     vdW  Elec       q    Type
REMARK                         _______ _______ _______ _____ _____    ______ ____
ROOT
ATOM      1  N   UNL     1       2.066   7.124  18.059  0.00  0.00    +0.000 N 
ATOM      2  C   UNL     1       1.971   5.655  18.268  0.00  0.00    +0.000 C 
ATOM      3  C   UNL     1       3.406   5.253  18.383  0.00  0.00    +0.000 A 
ATOM      4  C   UNL     1       4.164   6.194  17.680  0.00  0.00    +0.000 A 
ATOM      5  C   UNL     1       5.546   6.191  17.664  0.00  0.00    +0.000 A 
ATOM      6  C   UNL     1       6.202   5.196  18.401  0.00  0.00    +0.000 A 
ATOM      7  C   UNL     1       5.438   4.258  19.141  0.00  0.00    +0.000 A 
ATOM      8  C   UNL     1       4.027   4.269  19.143  0.00  0.00    +0.000 A 
ATOM      9  C   UNL     1       3.280   7.328  17.342  0.00  0.00    +0.000 C 
ATOM     10  O   UNL     1       3.648   8.317  16.739  0.00  0.00    +0.000 OA
ENDROOT
BRANCH   1  15
ATOM     11  C   UNL     1       0.599   9.650  20.275  0.00  0.00    +0.000 A 
ATOM     12  C   UNL     1       0.367   8.795  21.368  0.00  0.00    +0.000 A 
ATOM     13  C   UNL     1       1.032   7.581  21.523  0.00  0.00    +0.000 A 
ATOM     14  C   UNL     1       1.864   7.119  20.514  0.00  0.00    +0.000 A 
ATOM     15  C   UNL     1       1.942   7.836  19.313  0.00  0.00    +0.000 A 
ATOM     16  C   UNL     1       1.454   9.151  19.270  0.00  0.00    +0.000 A 
BRANCH  11  18
ATOM     17  C   UNL     1      -0.386  11.678  21.481  0.00  0.00    +0.000 C 
ATOM     18  C   UNL     1      -0.170  11.043  20.105  0.00  0.00    +0.000 C 
ATOM     19  C   UNL     1       0.365  12.026  19.034  0.00  0.00    +0.000 C 
ATOM     20  O   UNL     1      -0.761  11.763  18.161  0.00  0.00    +0.000 OA
ATOM     21  C   UNL     1      -1.446  11.068  19.228  0.00  0.00    +0.000 C 
ENDBRANCH  11  18
ENDBRANCH   1  15
BRANCH   8  22
ATOM     22  C   UNL     1       3.282   3.308  20.038  0.00  0.00    +0.000 C 
ATOM     23  F   UNL     1       2.613   3.905  21.063  0.00  0.00    +0.000 F 
ATOM     24  F   UNL     1       2.344   2.595  19.357  0.00  0.00    +0.000 F 
ATOM     25  F   UNL     1       4.104   2.391  20.619  0.00  0.00    +0.000 F 
ENDBRANCH   8  22
BRANCH   6  26
ATOM     26  C   UNL     1       7.711   5.184  18.494  0.00  0.00    +0.000 C 
BRANCH  26  27
ATOM     27  N   UNL     1       8.227   6.192  19.414  0.00  0.00    +0.000 NA
ATOM     28  F   UNL     1       8.542   7.361  18.767  0.00  0.00    +0.000 F 
ATOM     29  H   UNL     1       9.039   5.821  19.907  0.00  0.00    +0.000 HD
ENDBRANCH  26  27
ENDBRANCH   6  26
TORSDOF 5
ENDMDL
MODEL 9
REMARK VINA RESULT:      -7.5      0.908      1.268
REMARK  Name = 
REMARK  6 active torsions:
REMARK  status: ('A' for Active; 'I' for Inactive)
REMARK    1  A    between atoms: C_1  and  C_2
REMARK    2  A    between atoms: C_2  and  C_3
REMARK    3  A    between atoms: C_7  and  N_8
REMARK    4  A    between atoms: C_13  and  C_14
REMARK    5  A    between atoms: C_14  and  N_15
REMARK    6  A    between atoms: C_18  and  C_19
REMARK                            x       y       z     vdW  Elec       q    Type
REMARK                         _______ _______ _______ _____ _____    ______ ____
ROOT
ATOM      1  N   UNL     1       3.709   5.287  19.052  0.00  0.00    +0.000 N 
ATOM      2  C   UNL     1       5.098   5.778  19.255  0.00  0.00    +0.000 C 
ATOM      3  C   UNL     1       5.748   5.454  17.948  0.00  0.00    +0.000 A 
ATOM      4  C   UNL     1       5.058   4.373  17.392  0.00  0.00    +0.000 A 
ATOM      5  C   UNL     1       5.323   3.876  16.130  0.00  0.00    +0.000 A 
ATOM      6  C   UNL     1       6.329   4.503  15.383  0.00  0.00    +0.000 A 
ATOM      7  C   UNL     1       7.011   5.618  15.930  0.00  0.00    +0.000 A 
ATOM      8  C   UNL     1       6.734   6.112  17.223  0.00  0.00    +0.000 A 
ATOM      9  C   UNL     1       3.825   4.167  18.180  0.00  0.00    +0.000 C 
ATOM     10  O   UNL     1       3.002   3.306  17.938  0.00  0.00    +0.000 OA
ENDROOT
BRANCH   1  15
ATOM     11  C   UNL     1       1.768   8.363  19.515  0.00  0.00    +0.000 A 
ATOM     12  C   UNL     1       2.283   9.053  18.402  0.00  0.00    +0.000 A 
ATOM     13  C   UNL     1       2.901   8.399  17.338  0.00  0.00    +0.000 A 
ATOM     14  C   UNL     1       3.139   7.035  17.412  0.00  0.00    +0.000 A 
ATOM     15  C   UNL     1       2.842   6.356  18.601  0.00  0.00    +0.000 A 
ATOM     16  C   UNL     1       2.023   6.976  19.557  0.00  0.00    +0.000 A 
BRANCH  11  18
ATOM     17  C   UNL     1       1.582   8.558  22.058  0.00  0.00    +0.000 C 
ATOM     18  C   UNL     1       1.060   9.122  20.734  0.00  0.00    +0.000 C 
ATOM     19  C   UNL     1       1.017  10.669  20.681  0.00  0.00    +0.000 C 
ATOM     20  O   UNL     1      -0.401  10.667  20.389  0.00  0.00    +0.000 OA
ATOM     21  C   UNL     1      -0.482   9.259  20.708  0.00  0.00    +0.000 C 
ENDBRANCH  11  18
ENDBRANCH   1  15
BRANCH   8  22
ATOM     22  C   UNL     1       7.423   7.369  17.698  0.00  0.00    +0.000 C 
ATOM     23  F   UNL     1       6.579   8.409  17.945  0.00  0.00    +0.000 F 
ATOM     24  F   UNL     1       8.108   7.171  18.857  0.00  0.00    +0.000 F 
ATOM     25  F   UNL     1       8.332   7.837  16.799  0.00  0.00    +0.000 F 
ENDBRANCH   8  22
BRANCH   6  26
ATOM     26  C   UNL     1       6.614   4.062  13.965  0.00  0.00    +0.000 C 
BRANCH  26  27
ATOM     27  N   UNL     1       5.607   3.143  13.447  0.00  0.00    +0.000 NA
ATOM     28  F   UNL     1       4.712   3.779  12.624  0.00  0.00    +0.000 F 
ATOM     29  H   UNL     1       5.126   2.690  14.223  0.00  0.00    +0.000 HD
ENDBRANCH  26  27
ENDBRANCH   6  26
TORSDOF 5
ENDMDL
