MODEL 1
REMARK VINA RESULT:      -8.5      0.000      0.000
REMARK  Name = 
REMARK  4 active torsions:
REMARK  status: ('A' for Active; 'I' for Inactive)
REMARK    1  A    between atoms: C_2  and  C_11
REMARK    2  A    between atoms: N_3  and  C_4
REMARK    3  A    between atoms: C_15  and  S_16
REMARK    4  A    between atoms: S_16  and  N_19
REMARK                            x       y       z     vdW  Elec       q    Type
REMARK                         _______ _______ _______ _____ _____    ______ ____
ROOT
ATOM      1  C   UNL     1       7.925   7.807  18.176  0.00  0.00    +0.000 A 
ATOM      2  C   UNL     1       8.398   6.906  19.143  0.00  0.00    +0.000 A 
ATOM      3  C   UNL     1       8.054   5.555  19.078  0.00  0.00    +0.000 A 
ATOM      4  C   UNL     1       7.243   5.095  18.043  0.00  0.00    +0.000 A 
ATOM      5  C   UNL     1       6.789   5.989  17.064  0.00  0.00    +0.000 A 
ATOM      6  C   UNL     1       7.118   7.352  17.130  0.00  0.00    +0.000 A 
ENDROOT
BRANCH   1   8
ATOM      7  O   UNL     1       7.926  10.007  17.457  0.00  0.00    +0.000 OA
ATOM      8  C   UNL     1       8.351   9.224  18.300  0.00  0.00    +0.000 C 
ATOM      9  N   UNL     1       9.249   9.509  19.316  0.00  0.00    +0.000 N 
ATOM     10  H   UNL     1       9.648   8.729  19.824  0.00  0.00    +0.000 HD
BRANCH   9  11
ATOM     11  C   UNL     1       9.857  10.770  19.529  0.00  0.00    +0.000 A 
ATOM     12  C   UNL     1      10.821  11.307  18.666  0.00  0.00    +0.000 A 
ATOM     13  C   UNL     1      11.467  12.511  18.966  0.00  0.00    +0.000 A 
ATOM     14  C   UNL     1      11.148  13.192  20.134  0.00  0.00    +0.000 A 
ATOM     15  C   UNL     1      10.159  12.685  20.968  0.00  0.00    +0.000 A 
ATOM     16  F   UNL     1       9.843  13.347  22.088  0.00  0.00    +0.000 F 
ATOM     17  C   UNL     1       9.501  11.492  20.670  0.00  0.00    +0.000 A 
ENDBRANCH   9  11
ENDBRANCH   1   8
BRANCH   5  18
ATOM     18  S   UNL     1       5.640   5.423  15.814  0.00  0.00    +0.000 S 
ATOM     19  O   UNL     1       5.347   6.557  14.963  0.00  0.00    +0.000 OA
ATOM     20  O   UNL     1       6.199   4.206  15.266  0.00  0.00    +0.000 OA
BRANCH  18  21
ATOM     21  N   UNL     1       4.225   5.019  16.685  0.00  0.00    +0.000 NA
ATOM     22  C   UNL     1       4.108   3.600  17.106  0.00  0.00    +0.000 C 
ATOM     23  C   UNL     1       2.708   3.293  17.632  0.00  0.00    +0.000 C 
ATOM     24  C   UNL     1       2.310   4.262  18.736  0.00  0.00    +0.000 C 
ATOM     25  C   UNL     1       2.383   5.688  18.208  0.00  0.00    +0.000 C 
ATOM     26  C   UNL     1       3.783   6.012  17.696  0.00  0.00    +0.000 C 
ENDBRANCH  18  21
ENDBRANCH   5  18
TORSDOF 4
ENDMDL
MODEL 2
REMARK VINA RESULT:      -8.5      1.001      1.382
REMARK  Name = 
REMARK  4 active torsions:
REMARK  status: ('A' for Active; 'I' for Inactive)
REMARK    1  A    between atoms: C_2  and  C_11
REMARK    2  A    between atoms: N_3  and  C_4
REMARK    3  A    between atoms: C_15  and  S_16
REMARK    4  A    between atoms: S_16  and  N_19
REMARK                            x       y       z     vdW  Elec       q    Type
REMARK                         _______ _______ _______ _____ _____    ______ ____
ROOT
ATOM      1  C   UNL     1       7.918   7.797  18.179  0.00  0.00    +0.000 A 
ATOM      2  C   UNL     1       8.393   6.900  19.147  0.00  0.00    +0.000 A 
ATOM      3  C   UNL     1       8.053   5.548  19.087  0.00  0.00    +0.000 A 
ATOM      4  C   UNL     1       7.241   5.083  18.054  0.00  0.00    +0.000 A 
ATOM      5  C   UNL     1       6.784   5.974  17.073  0.00  0.00    +0.000 A 
ATOM      6  C   UNL     1       7.110   7.337  17.135  0.00  0.00    +0.000 A 
ENDROOT
BRANCH   1   8
ATOM      7  O   UNL     1       7.898   9.998  17.464  0.00  0.00    +0.000 OA
ATOM      8  C   UNL     1       8.342   9.215  18.298  0.00  0.00    +0.000 C 
ATOM      9  N   UNL     1       9.258   9.501  19.297  0.00  0.00    +0.000 N 
ATOM     10  H   UNL     1       9.669   8.721  19.796  0.00  0.00    +0.000 HD
BRANCH   9  11
ATOM     11  C   UNL     1       9.866  10.763  19.502  0.00  0.00    +0.000 A 
ATOM     12  C   UNL     1       9.713  11.500  20.683  0.00  0.00    +0.000 A 
ATOM     13  C   UNL     1      10.250  12.786  20.806  0.00  0.00    +0.000 A 
ATOM     14  C   UNL     1      10.952  13.344  19.744  0.00  0.00    +0.000 A 
ATOM     15  C   UNL     1      11.145  12.596  18.589  0.00  0.00    +0.000 A 
ATOM     16  F   UNL     1      11.831  13.128  17.571  0.00  0.00    +0.000 F 
ATOM     17  C   UNL     1      10.623  11.309  18.464  0.00  0.00    +0.000 A 
ENDBRANCH   9  11
ENDBRANCH   1   8
BRANCH   5  18
ATOM     18  S   UNL     1       5.635   5.402  15.827  0.00  0.00    +0.000 S 
ATOM     19  O   UNL     1       5.359   6.526  14.956  0.00  0.00    +0.000 OA
ATOM     20  O   UNL     1       6.181   4.170  15.301  0.00  0.00    +0.000 OA
BRANCH  18  21
ATOM     21  N   UNL     1       4.210   5.029  16.696  0.00  0.00    +0.000 NA
ATOM     22  C   UNL     1       4.059   3.612  17.112  0.00  0.00    +0.000 C 
ATOM     23  C   UNL     1       2.652   3.336  17.638  0.00  0.00    +0.000 C 
ATOM     24  C   UNL     1       2.278   4.311  18.746  0.00  0.00    +0.000 C 
ATOM     25  C   UNL     1       2.385   5.736  18.222  0.00  0.00    +0.000 C 
ATOM     26  C   UNL     1       3.793   6.029  17.711  0.00  0.00    +0.000 C 
ENDBRANCH  18  21
ENDBRANCH   5  18
TORSDOF 4
ENDMDL
MODEL 3
REMARK VINA RESULT:      -8.2      5.429      7.000
REMARK  Name = 
REMARK  4 active torsions:
REMARK  status: ('A' for Active; 'I' for Inactive)
REMARK    1  A    between atoms: C_2  and  C_11
REMARK    2  A    between atoms: N_3  and  C_4
REMARK    3  A    between atoms: C_15  and  S_16
REMARK    4  A    between atoms: S_16  and  N_19
REMARK                            x       y       z     vdW  Elec       q    Type
REMARK                         _______ _______ _______ _____ _____    ______ ____
ROOT
ATOM      1  C   UNL     1       3.445   6.276  17.909  0.00  0.00    +0.000 A 
ATOM      2  C   UNL     1       2.776   5.043  17.853  0.00  0.00    +0.000 A 
ATOM      3  C   UNL     1       3.417   3.914  17.341  0.00  0.00    +0.000 A 
ATOM      4  C   UNL     1       4.731   4.007  16.889  0.00  0.00    +0.000 A 
ATOM      5  C   UNL     1       5.408   5.232  16.965  0.00  0.00    +0.000 A 
ATOM      6  C   UNL     1       4.766   6.376  17.464  0.00  0.00    +0.000 A 
ENDROOT
BRANCH   1   8
ATOM      7  O   UNL     1       2.297   7.302  19.637  0.00  0.00    +0.000 OA
ATOM      8  C   UNL     1       2.705   7.426  18.486  0.00  0.00    +0.000 C 
ATOM      9  N   UNL     1       2.482   8.501  17.641  0.00  0.00    +0.000 N 
ATOM     10  H   UNL     1       2.724   8.389  16.664  0.00  0.00    +0.000 HD
BRANCH   9  11
ATOM     11  C   UNL     1       1.706   9.639  17.966  0.00  0.00    +0.000 A 
ATOM     12  C   UNL     1       2.268  10.895  18.230  0.00  0.00    +0.000 A 
ATOM     13  C   UNL     1       1.473  11.969  18.643  0.00  0.00    +0.000 A 
ATOM     14  C   UNL     1       0.102  11.795  18.790  0.00  0.00    +0.000 A 
ATOM     15  C   UNL     1      -0.463  10.564  18.483  0.00  0.00    +0.000 A 
ATOM     16  F   UNL     1      -1.786  10.399  18.612  0.00  0.00    +0.000 F 
ATOM     17  C   UNL     1       0.321   9.492  18.058  0.00  0.00    +0.000 A 
ENDBRANCH   9  11
ENDBRANCH   1   8
BRANCH   5  18
ATOM     18  S   UNL     1       7.046   5.382  16.262  0.00  0.00    +0.000 S 
ATOM     19  O   UNL     1       7.435   6.772  16.382  0.00  0.00    +0.000 OA
ATOM     20  O   UNL     1       7.844   4.332  16.857  0.00  0.00    +0.000 OA
BRANCH  18  21
ATOM     21  N   UNL     1       6.835   5.021  14.604  0.00  0.00    +0.000 NA
ATOM     22  C   UNL     1       7.956   5.407  13.709  0.00  0.00    +0.000 C 
ATOM     23  C   UNL     1       7.559   5.286  12.240  0.00  0.00    +0.000 C 
ATOM     24  C   UNL     1       7.019   3.897  11.929  0.00  0.00    +0.000 C 
ATOM     25  C   UNL     1       5.829   3.603  12.832  0.00  0.00    +0.000 C 
ATOM     26  C   UNL     1       6.220   3.703  14.304  0.00  0.00    +0.000 C 
ENDBRANCH  18  21
ENDBRANCH   5  18
TORSDOF 4
ENDMDL
MODEL 4
REMARK VINA RESULT:      -8.2      5.238      6.895
REMARK  Name = 
REMARK  4 active torsions:
REMARK  status: ('A' for Active; 'I' for Inactive)
REMARK    1  A    between atoms: C_2  and  C_11
REMARK    2  A    between atoms: N_3  and  C_4
REMARK    3  A    between atoms: C_15  and  S_16
REMARK    4  A    between atoms: S_16  and  N_19
REMARK                            x       y       z     vdW  Elec       q    Type
REMARK                         _______ _______ _______ _____ _____    ______ ____
ROOT
ATOM      1  C   UNL     1       3.491   6.420  17.896  0.00  0.00    +0.000 A 
ATOM      2  C   UNL     1       2.843   5.179  17.981  0.00  0.00    +0.000 A 
ATOM      3  C   UNL     1       3.496   4.011  17.586  0.00  0.00    +0.000 A 
ATOM      4  C   UNL     1       4.804   4.075  17.110  0.00  0.00    +0.000 A 
ATOM      5  C   UNL     1       5.461   5.312  17.046  0.00  0.00    +0.000 A 
ATOM      6  C   UNL     1       4.806   6.492  17.427  0.00  0.00    +0.000 A 
ENDROOT
BRANCH   1   8
ATOM      7  O   UNL     1       2.874   8.642  17.699  0.00  0.00    +0.000 OA
ATOM      8  C   UNL     1       2.738   7.614  18.355  0.00  0.00    +0.000 C 
ATOM      9  N   UNL     1       2.013   7.471  19.527  0.00  0.00    +0.000 N 
ATOM     10  H   UNL     1       2.136   6.615  20.054  0.00  0.00    +0.000 HD
BRANCH   9  11
ATOM     11  C   UNL     1       1.322   8.516  20.185  0.00  0.00    +0.000 A 
ATOM     12  C   UNL     1       0.780   9.617  19.508  0.00  0.00    +0.000 A 
ATOM     13  C   UNL     1       0.192  10.676  20.207  0.00  0.00    +0.000 A 
ATOM     14  C   UNL     1       0.135  10.638  21.595  0.00  0.00    +0.000 A 
ATOM     15  C   UNL     1       0.629   9.526  22.266  0.00  0.00    +0.000 A 
ATOM     16  F   UNL     1       0.563   9.484  23.602  0.00  0.00    +0.000 F 
ATOM     17  C   UNL     1       1.206   8.461  21.576  0.00  0.00    +0.000 A 
ENDBRANCH   9  11
ENDBRANCH   1   8
BRANCH   5  18
ATOM     18  S   UNL     1       7.089   5.410  16.310  0.00  0.00    +0.000 S 
ATOM     19  O   UNL     1       7.514   6.791  16.402  0.00  0.00    +0.000 OA
ATOM     20  O   UNL     1       7.872   4.349  16.907  0.00  0.00    +0.000 OA
BRANCH  18  21
ATOM     21  N   UNL     1       6.838   5.029  14.662  0.00  0.00    +0.000 NA
ATOM     22  C   UNL     1       7.956   5.364  13.743  0.00  0.00    +0.000 C 
ATOM     23  C   UNL     1       7.530   5.233  12.283  0.00  0.00    +0.000 C 
ATOM     24  C   UNL     1       6.939   3.857  12.003  0.00  0.00    +0.000 C 
ATOM     25  C   UNL     1       5.755   3.618  12.930  0.00  0.00    +0.000 C 
ATOM     26  C   UNL     1       6.174   3.729  14.394  0.00  0.00    +0.000 C 
ENDBRANCH  18  21
ENDBRANCH   5  18
TORSDOF 4
ENDMDL
MODEL 5
REMARK VINA RESULT:      -8.2      0.336      1.040
REMARK  Name = 
REMARK  4 active torsions:
REMARK  status: ('A' for Active; 'I' for Inactive)
REMARK    1  A    between atoms: C_2  and  C_11
REMARK    2  A    between atoms: N_3  and  C_4
REMARK    3  A    between atoms: C_15  and  S_16
REMARK    4  A    between atoms: S_16  and  N_19
REMARK                            x       y       z     vdW  Elec       q    Type
REMARK                         _______ _______ _______ _____ _____    ______ ____
ROOT
ATOM      1  C   UNL     1       7.952   7.816  18.242  0.00  0.00    +0.000 A 
ATOM      2  C   UNL     1       8.477   6.941  19.205  0.00  0.00    +0.000 A 
ATOM      3  C   UNL     1       8.140   5.587  19.188  0.00  0.00    +0.000 A 
ATOM      4  C   UNL     1       7.284   5.098  18.204  0.00  0.00    +0.000 A 
ATOM      5  C   UNL     1       6.778   5.966  17.227  0.00  0.00    +0.000 A 
ATOM      6  C   UNL     1       7.099   7.331  17.246  0.00  0.00    +0.000 A 
ENDROOT
BRANCH   1   8
ATOM      7  O   UNL     1       7.938   9.990  17.446  0.00  0.00    +0.000 OA
ATOM      8  C   UNL     1       8.374   9.238  18.312  0.00  0.00    +0.000 C 
ATOM      9  N   UNL     1       9.280   9.562  19.309  0.00  0.00    +0.000 N 
ATOM     10  H   UNL     1       9.686   8.801  19.840  0.00  0.00    +0.000 HD
BRANCH   9  11
ATOM     11  C   UNL     1       9.885  10.832  19.472  0.00  0.00    +0.000 A 
ATOM     12  C   UNL     1      10.794  11.367  18.551  0.00  0.00    +0.000 A 
ATOM     13  C   UNL     1      11.443  12.581  18.800  0.00  0.00    +0.000 A 
ATOM     14  C   UNL     1      11.179  13.275  19.975  0.00  0.00    +0.000 A 
ATOM     15  C   UNL     1      10.243  12.769  20.868  0.00  0.00    +0.000 A 
ATOM     16  F   UNL     1       9.980  13.443  21.994  0.00  0.00    +0.000 F 
ATOM     17  C   UNL     1       9.583  11.565  20.621  0.00  0.00    +0.000 A 
ENDBRANCH   9  11
ENDBRANCH   1   8
BRANCH   5  18
ATOM     18  S   UNL     1       5.575   5.364  16.047  0.00  0.00    +0.000 S 
ATOM     19  O   UNL     1       5.160   6.498  15.248  0.00  0.00    +0.000 OA
ATOM     20  O   UNL     1       6.159   4.192  15.430  0.00  0.00    +0.000 OA
BRANCH  18  21
ATOM     21  N   UNL     1       4.250   4.862  17.004  0.00  0.00    +0.000 NA
ATOM     22  C   UNL     1       3.416   5.949  17.576  0.00  0.00    +0.000 C 
ATOM     23  C   UNL     1       2.437   5.408  18.615  0.00  0.00    +0.000 C 
ATOM     24  C   UNL     1       1.600   4.273  18.044  0.00  0.00    +0.000 C 
ATOM     25  C   UNL     1       2.520   3.167  17.547  0.00  0.00    +0.000 C 
ATOM     26  C   UNL     1       3.491   3.693  16.494  0.00  0.00    +0.000 C 
ENDBRANCH  18  21
ENDBRANCH   5  18
TORSDOF 4
ENDMDL
MODEL 6
REMARK VINA RESULT:      -8.1      1.087      1.750
REMARK  Name = 
REMARK  4 active torsions:
REMARK  status: ('A' for Active; 'I' for Inactive)
REMARK    1  A    between atoms: C_2  and  C_11
REMARK    2  A    between atoms: N_3  and  C_4
REMARK    3  A    between atoms: C_15  and  S_16
REMARK    4  A    between atoms: S_16  and  N_19
REMARK                            x       y       z     vdW  Elec       q    Type
REMARK                         _______ _______ _______ _____ _____    ______ ____
ROOT
ATOM      1  C   UNL     1       7.976   7.901  18.244  0.00  0.00    +0.000 A 
ATOM      2  C   UNL     1       8.494   7.012  19.199  0.00  0.00    +0.000 A 
ATOM      3  C   UNL     1       8.132   5.664  19.179  0.00  0.00    +0.000 A 
ATOM      4  C   UNL     1       7.258   5.195  18.202  0.00  0.00    +0.000 A 
ATOM      5  C   UNL     1       6.758   6.077  17.234  0.00  0.00    +0.000 A 
ATOM      6  C   UNL     1       7.104   7.436  17.256  0.00  0.00    +0.000 A 
ENDROOT
BRANCH   1   8
ATOM      7  O   UNL     1       8.001  10.075  17.452  0.00  0.00    +0.000 OA
ATOM      8  C   UNL     1       8.424   9.314  18.317  0.00  0.00    +0.000 C 
ATOM      9  N   UNL     1       9.338   9.619  19.313  0.00  0.00    +0.000 N 
ATOM     10  H   UNL     1       9.730   8.851  19.842  0.00  0.00    +0.000 HD
BRANCH   9  11
ATOM     11  C   UNL     1       9.966  10.877  19.477  0.00  0.00    +0.000 A 
ATOM     12  C   UNL     1       9.820  11.657  20.632  0.00  0.00    +0.000 A 
ATOM     13  C   UNL     1      10.378  12.937  20.713  0.00  0.00    +0.000 A 
ATOM     14  C   UNL     1      11.096  13.446  19.637  0.00  0.00    +0.000 A 
ATOM     15  C   UNL     1      11.282  12.655  18.510  0.00  0.00    +0.000 A 
ATOM     16  F   UNL     1      11.984  13.140  17.478  0.00  0.00    +0.000 F 
ATOM     17  C   UNL     1      10.739  11.373  18.426  0.00  0.00    +0.000 A 
ENDBRANCH   9  11
ENDBRANCH   1   8
BRANCH   5  18
ATOM     18  S   UNL     1       5.532   5.502  16.063  0.00  0.00    +0.000 S 
ATOM     19  O   UNL     1       5.078   6.659  15.322  0.00  0.00    +0.000 OA
ATOM     20  O   UNL     1       6.117   4.366  15.385  0.00  0.00    +0.000 OA
BRANCH  18  21
ATOM     21  N   UNL     1       4.242   4.940  17.035  0.00  0.00    +0.000 NA
ATOM     22  C   UNL     1       3.358   5.988  17.606  0.00  0.00    +0.000 C 
ATOM     23  C   UNL     1       2.417   5.405  18.658  0.00  0.00    +0.000 C 
ATOM     24  C   UNL     1       1.634   4.224  18.101  0.00  0.00    +0.000 C 
ATOM     25  C   UNL     1       2.605   3.163  17.604  0.00  0.00    +0.000 C 
ATOM     26  C   UNL     1       3.540   3.730  16.539  0.00  0.00    +0.000 C 
ENDBRANCH  18  21
ENDBRANCH   5  18
TORSDOF 4
ENDMDL
MODEL 7
REMARK VINA RESULT:      -8.0      5.486      8.016
REMARK  Name = 
REMARK  4 active torsions:
REMARK  status: ('A' for Active; 'I' for Inactive)
REMARK    1  A    between atoms: C_2  and  C_11
REMARK    2  A    between atoms: N_3  and  C_4
REMARK    3  A    between atoms: C_15  and  S_16
REMARK    4  A    between atoms: S_16  and  N_19
REMARK                            x       y       z     vdW  Elec       q    Type
REMARK                         _______ _______ _______ _____ _____    ______ ____
ROOT
ATOM      1  C   UNL     1       2.323   7.397  19.050  0.00  0.00    +0.000 A 
ATOM      2  C   UNL     1       1.947   6.896  20.306  0.00  0.00    +0.000 A 
ATOM      3  C   UNL     1       1.200   7.680  21.186  0.00  0.00    +0.000 A 
ATOM      4  C   UNL     1       0.818   8.967  20.813  0.00  0.00    +0.000 A 
ATOM      5  C   UNL     1       1.173   9.461  19.550  0.00  0.00    +0.000 A 
ATOM      6  C   UNL     1       1.937   8.684  18.666  0.00  0.00    +0.000 A 
ENDROOT
BRANCH   1   8
ATOM      7  O   UNL     1       2.609   5.395  17.925  0.00  0.00    +0.000 OA
ATOM      8  C   UNL     1       3.098   6.495  18.162  0.00  0.00    +0.000 C 
ATOM      9  N   UNL     1       4.336   6.957  17.745  0.00  0.00    +0.000 N 
ATOM     10  H   UNL     1       4.684   7.811  18.163  0.00  0.00    +0.000 HD
BRANCH   9  11
ATOM     11  C   UNL     1       5.269   6.206  16.990  0.00  0.00    +0.000 A 
ATOM     12  C   UNL     1       5.154   6.018  15.606  0.00  0.00    +0.000 A 
ATOM     13  C   UNL     1       6.042   5.188  14.914  0.00  0.00    +0.000 A 
ATOM     14  C   UNL     1       7.060   4.541  15.604  0.00  0.00    +0.000 A 
ATOM     15  C   UNL     1       7.204   4.763  16.968  0.00  0.00    +0.000 A 
ATOM     16  F   UNL     1       8.192   4.150  17.631  0.00  0.00    +0.000 F 
ATOM     17  C   UNL     1       6.331   5.599  17.663  0.00  0.00    +0.000 A 
ENDBRANCH   9  11
ENDBRANCH   1   8
BRANCH   5  18
ATOM     18  S   UNL     1       0.798  11.158  19.127  0.00  0.00    +0.000 S 
ATOM     19  O   UNL     1       0.694  11.893  20.371  0.00  0.00    +0.000 OA
ATOM     20  O   UNL     1       1.752  11.546  18.111  0.00  0.00    +0.000 OA
BRANCH  18  21
ATOM     21  N   UNL     1      -0.752  11.088  18.408  0.00  0.00    +0.000 NA
ATOM     22  C   UNL     1      -1.023   9.894  17.569  0.00  0.00    +0.000 C 
ATOM     23  C   UNL     1      -2.314  10.059  16.771  0.00  0.00    +0.000 C 
ATOM     24  C   UNL     1      -3.484  10.406  17.683  0.00  0.00    +0.000 C 
ATOM     25  C   UNL     1      -3.163  11.679  18.453  0.00  0.00    +0.000 C 
ATOM     26  C   UNL     1      -1.883  11.519  19.269  0.00  0.00    +0.000 C 
ENDBRANCH  18  21
ENDBRANCH   5  18
TORSDOF 4
ENDMDL
MODEL 8
REMARK VINA RESULT:      -8.0      5.115      6.793
REMARK  Name = 
REMARK  4 active torsions:
REMARK  status: ('A' for Active; 'I' for Inactive)
REMARK    1  A    between atoms: C_2  and  C_11
REMARK    2  A    between atoms: N_3  and  C_4
REMARK    3  A    between atoms: C_15  and  S_16
REMARK    4  A    between atoms: S_16  and  N_19
REMARK                            x       y       z     vdW  Elec       q    Type
REMARK                         _______ _______ _______ _____ _____    ______ ____
ROOT
ATOM      1  C   UNL     1       3.418   6.257  17.927  0.00  0.00    +0.000 A 
ATOM      2  C   UNL     1       2.741   5.032  17.836  0.00  0.00    +0.000 A 
ATOM      3  C   UNL     1       3.373   3.912  17.293  0.00  0.00    +0.000 A 
ATOM      4  C   UNL     1       4.689   4.009  16.846  0.00  0.00    +0.000 A 
ATOM      5  C   UNL     1       5.376   5.226  16.958  0.00  0.00    +0.000 A 
ATOM      6  C   UNL     1       4.741   6.359  17.489  0.00  0.00    +0.000 A 
ENDROOT
BRANCH   1   8
ATOM      7  O   UNL     1       2.345   7.274  19.708  0.00  0.00    +0.000 OA
ATOM      8  C   UNL     1       2.686   7.396  18.536  0.00  0.00    +0.000 C 
ATOM      9  N   UNL     1       2.394   8.458  17.696  0.00  0.00    +0.000 N 
ATOM     10  H   UNL     1       2.584   8.343  16.708  0.00  0.00    +0.000 HD
BRANCH   9  11
ATOM     11  C   UNL     1       1.612   9.583  18.054  0.00  0.00    +0.000 A 
ATOM     12  C   UNL     1       0.215   9.539  18.156  0.00  0.00    +0.000 A 
ATOM     13  C   UNL     1      -0.526  10.696  18.417  0.00  0.00    +0.000 A 
ATOM     14  C   UNL     1       0.129  11.910  18.585  0.00  0.00    +0.000 A 
ATOM     15  C   UNL     1       1.516  11.947  18.531  0.00  0.00    +0.000 A 
ATOM     16  F   UNL     1       2.148  13.115  18.705  0.00  0.00    +0.000 F 
ATOM     17  C   UNL     1       2.263  10.796  18.284  0.00  0.00    +0.000 A 
ENDBRANCH   9  11
ENDBRANCH   1   8
BRANCH   5  18
ATOM     18  S   UNL     1       7.016   5.383  16.263  0.00  0.00    +0.000 S 
ATOM     19  O   UNL     1       7.398   6.774  16.385  0.00  0.00    +0.000 OA
ATOM     20  O   UNL     1       7.816   4.336  16.861  0.00  0.00    +0.000 OA
BRANCH  18  21
ATOM     21  N   UNL     1       6.815   5.021  14.603  0.00  0.00    +0.000 NA
ATOM     22  C   UNL     1       7.943   5.402  13.716  0.00  0.00    +0.000 C 
ATOM     23  C   UNL     1       7.554   5.281  12.245  0.00  0.00    +0.000 C 
ATOM     24  C   UNL     1       7.011   3.894  11.931  0.00  0.00    +0.000 C 
ATOM     25  C   UNL     1       5.814   3.606  12.826  0.00  0.00    +0.000 C 
ATOM     26  C   UNL     1       6.195   3.706  14.300  0.00  0.00    +0.000 C 
ENDBRANCH  18  21
ENDBRANCH   5  18
TORSDOF 4
ENDMDL
MODEL 9
REMARK VINA RESULT:      -8.0      5.317      6.996
REMARK  Name = 
REMARK  4 active torsions:
REMARK  status: ('A' for Active; 'I' for Inactive)
REMARK    1  A    between atoms: C_2  and  C_11
REMARK    2  A    between atoms: N_3  and  C_4
REMARK    3  A    between atoms: C_15  and  S_16
REMARK    4  A    between atoms: S_16  and  N_19
REMARK                            x       y       z     vdW  Elec       q    Type
REMARK                         _______ _______ _______ _____ _____    ______ ____
ROOT
ATOM      1  C   UNL     1       3.439   6.359  17.848  0.00  0.00    +0.000 A 
ATOM      2  C   UNL     1       2.799   5.111  17.904  0.00  0.00    +0.000 A 
ATOM      3  C   UNL     1       3.466   3.955  17.496  0.00  0.00    +0.000 A 
ATOM      4  C   UNL     1       4.778   4.038  17.037  0.00  0.00    +0.000 A 
ATOM      5  C   UNL     1       5.427   5.280  17.003  0.00  0.00    +0.000 A 
ATOM      6  C   UNL     1       4.758   6.449  17.397  0.00  0.00    +0.000 A 
ENDROOT
BRANCH   1   8
ATOM      7  O   UNL     1       2.645   8.516  17.578  0.00  0.00    +0.000 OA
ATOM      8  C   UNL     1       2.672   7.539  18.320  0.00  0.00    +0.000 C 
ATOM      9  N   UNL     1       2.122   7.448  19.589  0.00  0.00    +0.000 N 
ATOM     10  H   UNL     1       2.375   6.648  20.154  0.00  0.00    +0.000 HD
BRANCH   9  11
ATOM     11  C   UNL     1       1.453   8.501  20.259  0.00  0.00    +0.000 A 
ATOM     12  C   UNL     1       1.260   8.521  21.646  0.00  0.00    +0.000 A 
ATOM     13  C   UNL     1       0.509   9.531  22.256  0.00  0.00    +0.000 A 
ATOM     14  C   UNL     1      -0.053  10.536  21.479  0.00  0.00    +0.000 A 
ATOM     15  C   UNL     1       0.176  10.544  20.108  0.00  0.00    +0.000 A 
ATOM     16  F   UNL     1      -0.355  11.520  19.361  0.00  0.00    +0.000 F 
ATOM     17  C   UNL     1       0.935   9.548  19.494  0.00  0.00    +0.000 A 
ENDBRANCH   9  11
ENDBRANCH   1   8
BRANCH   5  18
ATOM     18  S   UNL     1       7.063   5.403  16.289  0.00  0.00    +0.000 S 
ATOM     19  O   UNL     1       7.471   6.788  16.399  0.00  0.00    +0.000 OA
ATOM     20  O   UNL     1       7.850   4.346  16.886  0.00  0.00    +0.000 OA
BRANCH  18  21
ATOM     21  N   UNL     1       6.838   5.035  14.634  0.00  0.00    +0.000 NA
ATOM     22  C   UNL     1       7.972   5.369  13.736  0.00  0.00    +0.000 C 
ATOM     23  C   UNL     1       7.569   5.250  12.268  0.00  0.00    +0.000 C 
ATOM     24  C   UNL     1       6.976   3.880  11.970  0.00  0.00    +0.000 C 
ATOM     25  C   UNL     1       5.776   3.641  12.876  0.00  0.00    +0.000 C 
ATOM     26  C   UNL     1       6.171   3.740  14.346  0.00  0.00    +0.000 C 
ENDBRANCH  18  21
ENDBRANCH   5  18
TORSDOF 4
ENDMDL
