MODEL 1
REMARK VINA RESULT:      -8.9      0.000      0.000
REMARK  Name = 
REMARK  7 active torsions:
REMARK  status: ('A' for Active; 'I' for Inactive)
REMARK    1  A    between atoms: C_2  and  C_3
REMARK    2  A    between atoms: C_3  and  O_4
REMARK    3  A    between atoms: O_4  and  C_5
REMARK    4  A    between atoms: C_5  and  C_7
REMARK    5  A    between atoms: C_9  and  C_10
REMARK    6  A    between atoms: N_23  and  C_24
REMARK    7  A    between atoms: C_24  and  C_25
REMARK                            x       y       z     vdW  Elec       q    Type
REMARK                         _______ _______ _______ _____ _____    ______ ____
ROOT
ATOM      1  C   UNL     1       4.521   5.233  18.098  0.00  0.00    +0.000 A 
ATOM      2  C   UNL     1       4.022   6.524  18.277  0.00  0.00    +0.000 A 
ATOM      3  C   UNL     1       2.685   6.702  18.560  0.00  0.00    +0.000 A 
ATOM      4  N   UNL     1       1.838   5.653  18.656  0.00  0.00    +0.000 NA
ATOM      5  C   UNL     1       2.308   4.402  18.494  0.00  0.00    +0.000 A 
ATOM      6  C   UNL     1       1.402   3.358  18.628  0.00  0.00    +0.000 A 
ATOM      7  C   UNL     1       1.782   2.024  18.476  0.00  0.00    +0.000 A 
ATOM      8  C   UNL     1       3.104   1.723  18.183  0.00  0.00    +0.000 A 
ATOM      9  C   UNL     1       4.032   2.753  18.051  0.00  0.00    +0.000 A 
ATOM     10  C   UNL     1       3.657   4.115  18.205  0.00  0.00    +0.000 A 
ENDROOT
BRANCH   3  11
ATOM     11  C   UNL     1       2.123   8.035  18.830  0.00  0.00    +0.000 A 
ATOM     12  C   UNL     1       2.135   9.036  17.845  0.00  0.00    +0.000 A 
ATOM     13  C   UNL     1       1.539  10.278  18.074  0.00  0.00    +0.000 A 
ATOM     14  C   UNL     1       0.923  10.546  19.294  0.00  0.00    +0.000 A 
ATOM     15  C   UNL     1       0.930   9.583  20.299  0.00  0.00    +0.000 A 
ATOM     16  C   UNL     1       1.530   8.345  20.070  0.00  0.00    +0.000 A 
ENDBRANCH   3  11
BRANCH   1  17
ATOM     17  C   UNL     1       5.994   5.113  17.950  0.00  0.00    +0.000 C 
ATOM     18  O   UNL     1       6.555   4.452  17.094  0.00  0.00    +0.000 OA
BRANCH  17  19
ATOM     19  O   UNL     1       6.618   5.712  18.996  0.00  0.00    +0.000 OA
BRANCH  19  20
ATOM     20  C   UNL     1       7.950   6.146  18.720  0.00  0.00    +0.000 C 
BRANCH  20  22
ATOM     21  O   UNL     1       7.238   7.729  17.034  0.00  0.00    +0.000 OA
ATOM     22  C   UNL     1       7.899   7.525  18.049  0.00  0.00    +0.000 C 
ATOM     23  N   UNL     1       8.598   8.512  18.699  0.00  0.00    +0.000 N 
ATOM     24  H   UNL     1       9.061   8.300  19.579  0.00  0.00    +0.000 HD
BRANCH  23  25
ATOM     25  C   UNL     1       8.642   9.889  18.248  0.00  0.00    +0.000 C 
BRANCH  25  26
ATOM     26  C   UNL     1       9.465  10.684  19.195  0.00  0.00    +0.000 A 
ATOM     27  C   UNL     1       9.269  11.109  20.494  0.00  0.00    +0.000 A 
ATOM     28  C   UNL     1      10.435  11.822  20.864  0.00  0.00    +0.000 A 
ATOM     29  C   UNL     1      11.261  11.804  19.766  0.00  0.00    +0.000 A 
ATOM     30  O   UNL     1      10.681  11.117  18.746  0.00  0.00    +0.000 OA
ENDBRANCH  25  26
ENDBRANCH  23  25
ENDBRANCH  20  22
ENDBRANCH  19  20
ENDBRANCH  17  19
ENDBRANCH   1  17
TORSDOF 7
ENDMDL
MODEL 2
REMARK VINA RESULT:      -8.8      1.296      1.297
REMARK  Name = 
REMARK  7 active torsions:
REMARK  status: ('A' for Active; 'I' for Inactive)
REMARK    1  A    between atoms: C_2  and  C_3
REMARK    2  A    between atoms: C_3  and  O_4
REMARK    3  A    between atoms: O_4  and  C_5
REMARK    4  A    between atoms: C_5  and  C_7
REMARK    5  A    between atoms: C_9  and  C_10
REMARK    6  A    between atoms: N_23  and  C_24
REMARK    7  A    between atoms: C_24  and  C_25
REMARK                            x       y       z     vdW  Elec       q    Type
REMARK                         _______ _______ _______ _____ _____    ______ ____
ROOT
ATOM      1  C   UNL     1       4.227   5.176  19.016  0.00  0.00    +0.000 A 
ATOM      2  C   UNL     1       3.670   6.439  18.817  0.00  0.00    +0.000 A 
ATOM      3  C   UNL     1       2.487   6.767  19.445  0.00  0.00    +0.000 A 
ATOM      4  N   UNL     1       1.843   5.885  20.241  0.00  0.00    +0.000 NA
ATOM      5  C   UNL     1       2.374   4.665  20.447  0.00  0.00    +0.000 A 
ATOM      6  C   UNL     1       1.687   3.806  21.294  0.00  0.00    +0.000 A 
ATOM      7  C   UNL     1       2.146   2.518  21.574  0.00  0.00    +0.000 A 
ATOM      8  C   UNL     1       3.325   2.075  20.993  0.00  0.00    +0.000 A 
ATOM      9  C   UNL     1       4.036   2.923  20.146  0.00  0.00    +0.000 A 
ATOM     10  C   UNL     1       3.579   4.237  19.855  0.00  0.00    +0.000 A 
ENDROOT
BRANCH   3  11
ATOM     11  C   UNL     1       1.896   8.109  19.327  0.00  0.00    +0.000 A 
ATOM     12  C   UNL     1       1.953   8.820  18.117  0.00  0.00    +0.000 A 
ATOM     13  C   UNL     1       1.331  10.063  17.983  0.00  0.00    +0.000 A 
ATOM     14  C   UNL     1       0.643  10.622  19.057  0.00  0.00    +0.000 A 
ATOM     15  C   UNL     1       0.603   9.954  20.277  0.00  0.00    +0.000 A 
ATOM     16  C   UNL     1       1.229   8.716  20.411  0.00  0.00    +0.000 A 
ENDBRANCH   3  11
BRANCH   1  17
ATOM     17  C   UNL     1       5.575   4.953  18.433  0.00  0.00    +0.000 C 
ATOM     18  O   UNL     1       5.822   4.170  17.532  0.00  0.00    +0.000 OA
BRANCH  17  19
ATOM     19  O   UNL     1       6.510   5.626  19.150  0.00  0.00    +0.000 OA
BRANCH  19  20
ATOM     20  C   UNL     1       7.720   5.895  18.440  0.00  0.00    +0.000 C 
BRANCH  20  22
ATOM     21  O   UNL     1       6.874   7.411  16.755  0.00  0.00    +0.000 OA
ATOM     22  C   UNL     1       7.596   7.252  17.736  0.00  0.00    +0.000 C 
ATOM     23  N   UNL     1       8.307   8.273  18.317  0.00  0.00    +0.000 N 
ATOM     24  H   UNL     1       8.824   8.097  19.174  0.00  0.00    +0.000 HD
BRANCH  23  25
ATOM     25  C   UNL     1       8.292   9.637  17.826  0.00  0.00    +0.000 C 
BRANCH  25  26
ATOM     26  C   UNL     1       9.223  10.457  18.642  0.00  0.00    +0.000 A 
ATOM     27  C   UNL     1       9.436  10.577  20.000  0.00  0.00    +0.000 A 
ATOM     28  C   UNL     1      10.482  11.518  20.162  0.00  0.00    +0.000 A 
ATOM     29  C   UNL     1      10.829  11.927  18.896  0.00  0.00    +0.000 A 
ATOM     30  O   UNL     1      10.069  11.290  17.966  0.00  0.00    +0.000 OA
ENDBRANCH  25  26
ENDBRANCH  23  25
ENDBRANCH  20  22
ENDBRANCH  19  20
ENDBRANCH  17  19
ENDBRANCH   1  17
TORSDOF 7
ENDMDL
MODEL 3
REMARK VINA RESULT:      -8.6      1.538      1.951
REMARK  Name = 
REMARK  7 active torsions:
REMARK  status: ('A' for Active; 'I' for Inactive)
REMARK    1  A    between atoms: C_2  and  C_3
REMARK    2  A    between atoms: C_3  and  O_4
REMARK    3  A    between atoms: O_4  and  C_5
REMARK    4  A    between atoms: C_5  and  C_7
REMARK    5  A    between atoms: C_9  and  C_10
REMARK    6  A    between atoms: N_23  and  C_24
REMARK    7  A    between atoms: C_24  and  C_25
REMARK                            x       y       z     vdW  Elec       q    Type
REMARK                         _______ _______ _______ _____ _____    ______ ____
ROOT
ATOM      1  C   UNL     1       4.162   5.825  17.781  0.00  0.00    +0.000 A 
ATOM      2  C   UNL     1       3.467   7.027  17.917  0.00  0.00    +0.000 A 
ATOM      3  C   UNL     1       2.525   7.157  18.914  0.00  0.00    +0.000 A 
ATOM      4  N   UNL     1       2.245   6.140  19.759  0.00  0.00    +0.000 NA
ATOM      5  C   UNL     1       2.915   4.978  19.644  0.00  0.00    +0.000 A 
ATOM      6  C   UNL     1       2.609   3.973  20.552  0.00  0.00    +0.000 A 
ATOM      7  C   UNL     1       3.240   2.728  20.520  0.00  0.00    +0.000 A 
ATOM      8  C   UNL     1       4.204   2.479  19.554  0.00  0.00    +0.000 A 
ATOM      9  C   UNL     1       4.532   3.475  18.637  0.00  0.00    +0.000 A 
ATOM     10  C   UNL     1       3.898   4.747  18.661  0.00  0.00    +0.000 A 
ENDROOT
BRANCH   3  11
ATOM     11  C   UNL     1       1.817   8.426  19.147  0.00  0.00    +0.000 A 
ATOM     12  C   UNL     1       1.224   8.705  20.390  0.00  0.00    +0.000 A 
ATOM     13  C   UNL     1       0.614   9.938  20.635  0.00  0.00    +0.000 A 
ATOM     14  C   UNL     1       0.581  10.913  19.642  0.00  0.00    +0.000 A 
ATOM     15  C   UNL     1       1.129  10.647  18.391  0.00  0.00    +0.000 A 
ATOM     16  C   UNL     1       1.733   9.415  18.146  0.00  0.00    +0.000 A 
ENDBRANCH   3  11
BRANCH   1  17
ATOM     17  C   UNL     1       5.267   5.814  16.788  0.00  0.00    +0.000 C 
ATOM     18  O   UNL     1       5.160   5.435  15.634  0.00  0.00    +0.000 OA
BRANCH  17  19
ATOM     19  O   UNL     1       6.440   6.133  17.391  0.00  0.00    +0.000 OA
BRANCH  19  20
ATOM     20  C   UNL     1       6.984   7.393  16.998  0.00  0.00    +0.000 C 
BRANCH  20  22
ATOM     21  O   UNL     1       8.461   7.120  18.894  0.00  0.00    +0.000 OA
ATOM     22  C   UNL     1       7.941   7.888  18.089  0.00  0.00    +0.000 C 
ATOM     23  N   UNL     1       8.208   9.235  18.058  0.00  0.00    +0.000 N 
ATOM     24  H   UNL     1       7.809   9.807  17.319  0.00  0.00    +0.000 HD
BRANCH  23  25
ATOM     25  C   UNL     1       9.116   9.890  18.979  0.00  0.00    +0.000 C 
BRANCH  25  26
ATOM     26  C   UNL     1       9.589  11.160  18.372  0.00  0.00    +0.000 A 
ATOM     27  C   UNL     1      10.742  11.518  17.702  0.00  0.00    +0.000 A 
ATOM     28  C   UNL     1      10.596  12.882  17.350  0.00  0.00    +0.000 A 
ATOM     29  C   UNL     1       9.375  13.277  17.841  0.00  0.00    +0.000 A 
ATOM     30  O   UNL     1       8.756  12.239  18.465  0.00  0.00    +0.000 OA
ENDBRANCH  25  26
ENDBRANCH  23  25
ENDBRANCH  20  22
ENDBRANCH  19  20
ENDBRANCH  17  19
ENDBRANCH   1  17
TORSDOF 7
ENDMDL
MODEL 4
REMARK VINA RESULT:      -8.5      3.560      5.781
REMARK  Name = 
REMARK  7 active torsions:
REMARK  status: ('A' for Active; 'I' for Inactive)
REMARK    1  A    between atoms: C_2  and  C_3
REMARK    2  A    between atoms: C_3  and  O_4
REMARK    3  A    between atoms: O_4  and  C_5
REMARK    4  A    between atoms: C_5  and  C_7
REMARK    5  A    between atoms: C_9  and  C_10
REMARK    6  A    between atoms: N_23  and  C_24
REMARK    7  A    between atoms: C_24  and  C_25
REMARK                            x       y       z     vdW  Elec       q    Type
REMARK                         _______ _______ _______ _____ _____    ______ ____
ROOT
ATOM      1  C   UNL     1       4.611   5.042  18.595  0.00  0.00    +0.000 A 
ATOM      2  C   UNL     1       4.099   6.339  18.650  0.00  0.00    +0.000 A 
ATOM      3  C   UNL     1       2.735   6.529  18.699  0.00  0.00    +0.000 A 
ATOM      4  N   UNL     1       1.876   5.486  18.681  0.00  0.00    +0.000 NA
ATOM      5  C   UNL     1       2.358   4.230  18.636  0.00  0.00    +0.000 A 
ATOM      6  C   UNL     1       1.434   3.193  18.645  0.00  0.00    +0.000 A 
ATOM      7  C   UNL     1       1.824   1.853  18.598  0.00  0.00    +0.000 A 
ATOM      8  C   UNL     1       3.174   1.540  18.539  0.00  0.00    +0.000 A 
ATOM      9  C   UNL     1       4.119   2.564  18.536  0.00  0.00    +0.000 A 
ATOM     10  C   UNL     1       3.734   3.931  18.587  0.00  0.00    +0.000 A 
ENDROOT
BRANCH   3  11
ATOM     11  C   UNL     1       2.146   7.871  18.832  0.00  0.00    +0.000 A 
ATOM     12  C   UNL     1       1.503   8.263  20.018  0.00  0.00    +0.000 A 
ATOM     13  C   UNL     1       1.007   9.560  20.172  0.00  0.00    +0.000 A 
ATOM     14  C   UNL     1       1.141  10.489  19.143  0.00  0.00    +0.000 A 
ATOM     15  C   UNL     1       1.741  10.113  17.945  0.00  0.00    +0.000 A 
ATOM     16  C   UNL     1       2.232   8.817  17.791  0.00  0.00    +0.000 A 
ENDBRANCH   3  11
BRANCH   1  17
ATOM     17  C   UNL     1       6.088   4.914  18.700  0.00  0.00    +0.000 C 
ATOM     18  O   UNL     1       6.752   5.290  19.650  0.00  0.00    +0.000 OA
BRANCH  17  19
ATOM     19  O   UNL     1       6.602   4.467  17.527  0.00  0.00    +0.000 OA
BRANCH  19  20
ATOM     20  C   UNL     1       6.992   5.500  16.620  0.00  0.00    +0.000 C 
BRANCH  20  22
ATOM     21  O   UNL     1       5.373   6.488  15.119  0.00  0.00    +0.000 OA
ATOM     22  C   UNL     1       6.037   5.499  15.420  0.00  0.00    +0.000 C 
ATOM     23  N   UNL     1       6.027   4.337  14.687  0.00  0.00    +0.000 N 
ATOM     24  H   UNL     1       6.658   3.582  14.940  0.00  0.00    +0.000 HD
BRANCH  23  25
ATOM     25  C   UNL     1       5.222   4.152  13.496  0.00  0.00    +0.000 C 
BRANCH  25  26
ATOM     26  C   UNL     1       5.983   3.328  12.521  0.00  0.00    +0.000 A 
ATOM     27  C   UNL     1       7.249   3.429  11.981  0.00  0.00    +0.000 A 
ATOM     28  C   UNL     1       7.405   2.320  11.113  0.00  0.00    +0.000 A 
ATOM     29  C   UNL     1       6.221   1.625  11.163  0.00  0.00    +0.000 A 
ATOM     30  O   UNL     1       5.350   2.229  12.013  0.00  0.00    +0.000 OA
ENDBRANCH  25  26
ENDBRANCH  23  25
ENDBRANCH  20  22
ENDBRANCH  19  20
ENDBRANCH  17  19
ENDBRANCH   1  17
TORSDOF 7
ENDMDL
MODEL 5
REMARK VINA RESULT:      -8.5      4.454      7.004
REMARK  Name = 
REMARK  7 active torsions:
REMARK  status: ('A' for Active; 'I' for Inactive)
REMARK    1  A    between atoms: C_2  and  C_3
REMARK    2  A    between atoms: C_3  and  O_4
REMARK    3  A    between atoms: O_4  and  C_5
REMARK    4  A    between atoms: C_5  and  C_7
REMARK    5  A    between atoms: C_9  and  C_10
REMARK    6  A    between atoms: N_23  and  C_24
REMARK    7  A    between atoms: C_24  and  C_25
REMARK                            x       y       z     vdW  Elec       q    Type
REMARK                         _______ _______ _______ _____ _____    ______ ____
ROOT
ATOM      1  C   UNL     1       2.945   5.777  18.426  0.00  0.00    +0.000 A 
ATOM      2  C   UNL     1       3.949   5.803  17.457  0.00  0.00    +0.000 A 
ATOM      3  C   UNL     1       4.377   4.622  16.892  0.00  0.00    +0.000 A 
ATOM      4  N   UNL     1       3.856   3.432  17.264  0.00  0.00    +0.000 NA
ATOM      5  C   UNL     1       2.881   3.394  18.192  0.00  0.00    +0.000 A 
ATOM      6  C   UNL     1       2.362   2.148  18.520  0.00  0.00    +0.000 A 
ATOM      7  C   UNL     1       1.352   1.994  19.472  0.00  0.00    +0.000 A 
ATOM      8  C   UNL     1       0.846   3.115  20.113  0.00  0.00    +0.000 A 
ATOM      9  C   UNL     1       1.347   4.376  19.795  0.00  0.00    +0.000 A 
ATOM     10  C   UNL     1       2.373   4.545  18.826  0.00  0.00    +0.000 A 
ENDROOT
BRANCH   3  11
ATOM     11  C   UNL     1       5.379   4.600  15.814  0.00  0.00    +0.000 A 
ATOM     12  C   UNL     1       5.138   3.906  14.617  0.00  0.00    +0.000 A 
ATOM     13  C   UNL     1       6.057   3.943  13.566  0.00  0.00    +0.000 A 
ATOM     14  C   UNL     1       7.237   4.671  13.693  0.00  0.00    +0.000 A 
ATOM     15  C   UNL     1       7.516   5.337  14.882  0.00  0.00    +0.000 A 
ATOM     16  C   UNL     1       6.600   5.295  15.933  0.00  0.00    +0.000 A 
ENDBRANCH   3  11
BRANCH   1  17
ATOM     17  C   UNL     1       2.431   7.097  18.875  0.00  0.00    +0.000 C 
ATOM     18  O   UNL     1       2.370   7.462  20.036  0.00  0.00    +0.000 OA
BRANCH  17  19
ATOM     19  O   UNL     1       1.894   7.770  17.825  0.00  0.00    +0.000 OA
BRANCH  19  20
ATOM     20  C   UNL     1       2.201   9.164  17.796  0.00  0.00    +0.000 C 
BRANCH  20  22
ATOM     21  O   UNL     1      -0.144   9.740  17.932  0.00  0.00    +0.000 OA
ATOM     22  C   UNL     1       0.998   9.953  18.328  0.00  0.00    +0.000 C 
ATOM     23  N   UNL     1       1.294  10.867  19.311  0.00  0.00    +0.000 N 
ATOM     24  H   UNL     1       2.248  10.941  19.653  0.00  0.00    +0.000 HD
BRANCH  23  25
ATOM     25  C   UNL     1       0.292  11.683  19.968  0.00  0.00    +0.000 C 
BRANCH  25  26
ATOM     26  C   UNL     1      -0.074  11.052  21.262  0.00  0.00    +0.000 A 
ATOM     27  C   UNL     1      -1.065  11.301  22.190  0.00  0.00    +0.000 A 
ATOM     28  C   UNL     1      -0.905  10.338  23.217  0.00  0.00    +0.000 A 
ATOM     29  C   UNL     1       0.182   9.576  22.862  0.00  0.00    +0.000 A 
ATOM     30  O   UNL     1       0.695  10.001  21.678  0.00  0.00    +0.000 OA
ENDBRANCH  25  26
ENDBRANCH  23  25
ENDBRANCH  20  22
ENDBRANCH  19  20
ENDBRANCH  17  19
ENDBRANCH   1  17
TORSDOF 7
ENDMDL
MODEL 6
REMARK VINA RESULT:      -8.5      4.452      7.177
REMARK  Name = 
REMARK  7 active torsions:
REMARK  status: ('A' for Active; 'I' for Inactive)
REMARK    1  A    between atoms: C_2  and  C_3
REMARK    2  A    between atoms: C_3  and  O_4
REMARK    3  A    between atoms: O_4  and  C_5
REMARK    4  A    between atoms: C_5  and  C_7
REMARK    5  A    between atoms: C_9  and  C_10
REMARK    6  A    between atoms: N_23  and  C_24
REMARK    7  A    between atoms: C_24  and  C_25
REMARK                            x       y       z     vdW  Elec       q    Type
REMARK                         _______ _______ _______ _____ _____    ______ ____
ROOT
ATOM      1  C   UNL     1       2.929   5.813  18.419  0.00  0.00    +0.000 A 
ATOM      2  C   UNL     1       3.919   5.859  17.437  0.00  0.00    +0.000 A 
ATOM      3  C   UNL     1       4.353   4.688  16.855  0.00  0.00    +0.000 A 
ATOM      4  N   UNL     1       3.853   3.489  17.224  0.00  0.00    +0.000 NA
ATOM      5  C   UNL     1       2.892   3.431  18.166  0.00  0.00    +0.000 A 
ATOM      6  C   UNL     1       2.394   2.176  18.491  0.00  0.00    +0.000 A 
ATOM      7  C   UNL     1       1.399   2.002  19.455  0.00  0.00    +0.000 A 
ATOM      8  C   UNL     1       0.888   3.110  20.113  0.00  0.00    +0.000 A 
ATOM      9  C   UNL     1       1.368   4.380  19.798  0.00  0.00    +0.000 A 
ATOM     10  C   UNL     1       2.379   4.570  18.816  0.00  0.00    +0.000 A 
ENDROOT
BRANCH   3  11
ATOM     11  C   UNL     1       5.341   4.688  15.764  0.00  0.00    +0.000 A 
ATOM     12  C   UNL     1       6.560   5.374  15.892  0.00  0.00    +0.000 A 
ATOM     13  C   UNL     1       7.528   5.316  14.887  0.00  0.00    +0.000 A 
ATOM     14  C   UNL     1       7.294   4.574  13.732  0.00  0.00    +0.000 A 
ATOM     15  C   UNL     1       6.080   3.916  13.565  0.00  0.00    +0.000 A 
ATOM     16  C   UNL     1       5.113   3.979  14.567  0.00  0.00    +0.000 A 
ENDBRANCH   3  11
BRANCH   1  17
ATOM     17  C   UNL     1       2.405   7.122  18.886  0.00  0.00    +0.000 C 
ATOM     18  O   UNL     1       2.404   7.498  20.045  0.00  0.00    +0.000 OA
BRANCH  17  19
ATOM     19  O   UNL     1       1.785   7.768  17.865  0.00  0.00    +0.000 OA
BRANCH  19  20
ATOM     20  C   UNL     1       2.071   9.165  17.788  0.00  0.00    +0.000 C 
BRANCH  20  22
ATOM     21  O   UNL     1      -0.259   9.815  17.748  0.00  0.00    +0.000 OA
ATOM     22  C   UNL     1       0.846   9.954  18.266  0.00  0.00    +0.000 C 
ATOM     23  N   UNL     1       1.071  10.777  19.343  0.00  0.00    +0.000 N 
ATOM     24  H   UNL     1       1.990  10.789  19.778  0.00  0.00    +0.000 HD
BRANCH  23  25
ATOM     25  C   UNL     1       0.036  11.576  19.967  0.00  0.00    +0.000 C 
BRANCH  25  26
ATOM     26  C   UNL     1      -0.298  10.989  21.290  0.00  0.00    +0.000 A 
ATOM     27  C   UNL     1       0.121   9.855  21.955  0.00  0.00    +0.000 A 
ATOM     28  C   UNL     1      -0.551   9.847  23.202  0.00  0.00    +0.000 A 
ATOM     29  C   UNL     1      -1.352  10.964  23.212  0.00  0.00    +0.000 A 
ATOM     30  O   UNL     1      -1.207  11.664  22.055  0.00  0.00    +0.000 OA
ENDBRANCH  25  26
ENDBRANCH  23  25
ENDBRANCH  20  22
ENDBRANCH  19  20
ENDBRANCH  17  19
ENDBRANCH   1  17
TORSDOF 7
ENDMDL
MODEL 7
REMARK VINA RESULT:      -8.5      4.387      7.919
REMARK  Name = 
REMARK  7 active torsions:
REMARK  status: ('A' for Active; 'I' for Inactive)
REMARK    1  A    between atoms: C_2  and  C_3
REMARK    2  A    between atoms: C_3  and  O_4
REMARK    3  A    between atoms: O_4  and  C_5
REMARK    4  A    between atoms: C_5  and  C_7
REMARK    5  A    between atoms: C_9  and  C_10
REMARK    6  A    between atoms: N_23  and  C_24
REMARK    7  A    between atoms: C_24  and  C_25
REMARK                            x       y       z     vdW  Elec       q    Type
REMARK                         _______ _______ _______ _____ _____    ______ ____
ROOT
ATOM      1  C   UNL     1       2.863   6.105  18.816  0.00  0.00    +0.000 A 
ATOM      2  C   UNL     1       3.823   6.086  17.804  0.00  0.00    +0.000 A 
ATOM      3  C   UNL     1       4.323   4.879  17.365  0.00  0.00    +0.000 A 
ATOM      4  N   UNL     1       3.916   3.709  17.903  0.00  0.00    +0.000 NA
ATOM      5  C   UNL     1       2.985   3.712  18.875  0.00  0.00    +0.000 A 
ATOM      6  C   UNL     1       2.582   2.482  19.376  0.00  0.00    +0.000 A 
ATOM      7  C   UNL     1       1.625   2.371  20.387  0.00  0.00    +0.000 A 
ATOM      8  C   UNL     1       1.055   3.521  20.912  0.00  0.00    +0.000 A 
ATOM      9  C   UNL     1       1.438   4.767  20.420  0.00  0.00    +0.000 A 
ATOM     10  C   UNL     1       2.409   4.891  19.389  0.00  0.00    +0.000 A 
ENDROOT
BRANCH   3  11
ATOM     11  C   UNL     1       5.282   4.800  16.251  0.00  0.00    +0.000 A 
ATOM     12  C   UNL     1       4.932   4.180  15.040  0.00  0.00    +0.000 A 
ATOM     13  C   UNL     1       5.815   4.167  13.958  0.00  0.00    +0.000 A 
ATOM     14  C   UNL     1       7.066   4.769  14.066  0.00  0.00    +0.000 A 
ATOM     15  C   UNL     1       7.449   5.358  15.267  0.00  0.00    +0.000 A 
ATOM     16  C   UNL     1       6.569   5.366  16.348  0.00  0.00    +0.000 A 
ENDBRANCH   3  11
BRANCH   1  17
ATOM     17  C   UNL     1       2.260   7.427  19.126  0.00  0.00    +0.000 C 
ATOM     18  O   UNL     1       2.145   7.893  20.246  0.00  0.00    +0.000 OA
BRANCH  17  19
ATOM     19  O   UNL     1       1.717   7.966  18.005  0.00  0.00    +0.000 OA
BRANCH  19  20
ATOM     20  C   UNL     1       2.067   9.331  17.775  0.00  0.00    +0.000 C 
BRANCH  20  22
ATOM     21  O   UNL     1       1.380  11.045  19.338  0.00  0.00    +0.000 OA
ATOM     22  C   UNL     1       1.046  10.236  18.476  0.00  0.00    +0.000 C 
ATOM     23  N   UNL     1      -0.246  10.106  18.030  0.00  0.00    +0.000 N 
ATOM     24  H   UNL     1      -0.447   9.475  17.259  0.00  0.00    +0.000 HD
BRANCH  23  25
ATOM     25  C   UNL     1      -1.349  10.898  18.538  0.00  0.00    +0.000 C 
BRANCH  25  26
ATOM     26  C   UNL     1      -2.433  10.926  17.522  0.00  0.00    +0.000 A 
ATOM     27  C   UNL     1      -3.807  11.034  17.606  0.00  0.00    +0.000 A 
ATOM     28  C   UNL     1      -4.294  11.018  16.276  0.00  0.00    +0.000 A 
ATOM     29  C   UNL     1      -3.192  10.882  15.466  0.00  0.00    +0.000 A 
ATOM     30  O   UNL     1      -2.057  10.824  16.212  0.00  0.00    +0.000 OA
ENDBRANCH  25  26
ENDBRANCH  23  25
ENDBRANCH  20  22
ENDBRANCH  19  20
ENDBRANCH  17  19
ENDBRANCH   1  17
TORSDOF 7
ENDMDL
MODEL 8
REMARK VINA RESULT:      -8.4      4.413      7.928
REMARK  Name = 
REMARK  7 active torsions:
REMARK  status: ('A' for Active; 'I' for Inactive)
REMARK    1  A    between atoms: C_2  and  C_3
REMARK    2  A    between atoms: C_3  and  O_4
REMARK    3  A    between atoms: O_4  and  C_5
REMARK    4  A    between atoms: C_5  and  C_7
REMARK    5  A    between atoms: C_9  and  C_10
REMARK    6  A    between atoms: N_23  and  C_24
REMARK    7  A    between atoms: C_24  and  C_25
REMARK                            x       y       z     vdW  Elec       q    Type
REMARK                         _______ _______ _______ _____ _____    ______ ____
ROOT
ATOM      1  C   UNL     1       2.989   5.773  18.429  0.00  0.00    +0.000 A 
ATOM      2  C   UNL     1       3.993   5.845  17.463  0.00  0.00    +0.000 A 
ATOM      3  C   UNL     1       4.419   4.692  16.839  0.00  0.00    +0.000 A 
ATOM      4  N   UNL     1       3.896   3.486  17.152  0.00  0.00    +0.000 NA
ATOM      5  C   UNL     1       2.921   3.404  18.077  0.00  0.00    +0.000 A 
ATOM      6  C   UNL     1       2.400   2.145  18.344  0.00  0.00    +0.000 A 
ATOM      7  C   UNL     1       1.390   1.946  19.287  0.00  0.00    +0.000 A 
ATOM      8  C   UNL     1       0.886   3.034  19.983  0.00  0.00    +0.000 A 
ATOM      9  C   UNL     1       1.389   4.308  19.727  0.00  0.00    +0.000 A 
ATOM     10  C   UNL     1       2.416   4.523  18.767  0.00  0.00    +0.000 A 
ENDROOT
BRANCH   3  11
ATOM     11  C   UNL     1       5.421   4.722  15.762  0.00  0.00    +0.000 A 
ATOM     12  C   UNL     1       6.641   5.397  15.929  0.00  0.00    +0.000 A 
ATOM     13  C   UNL     1       7.623   5.366  14.936  0.00  0.00    +0.000 A 
ATOM     14  C   UNL     1       7.402   4.663  13.754  0.00  0.00    +0.000 A 
ATOM     15  C   UNL     1       6.187   4.016  13.550  0.00  0.00    +0.000 A 
ATOM     16  C   UNL     1       5.206   4.052  14.540  0.00  0.00    +0.000 A 
ENDBRANCH   3  11
BRANCH   1  17
ATOM     17  C   UNL     1       2.477   7.070  18.942  0.00  0.00    +0.000 C 
ATOM     18  O   UNL     1       2.522   7.423  20.108  0.00  0.00    +0.000 OA
BRANCH  17  19
ATOM     19  O   UNL     1       1.815   7.732  17.960  0.00  0.00    +0.000 OA
BRANCH  19  20
ATOM     20  C   UNL     1       2.177   9.107  17.825  0.00  0.00    +0.000 C 
BRANCH  20  22
ATOM     21  O   UNL     1       1.328  10.664  19.470  0.00  0.00    +0.000 OA
ATOM     22  C   UNL     1       1.096   9.976  18.479  0.00  0.00    +0.000 C 
ATOM     23  N   UNL     1      -0.122   9.964  17.844  0.00  0.00    +0.000 N 
ATOM     24  H   UNL     1      -0.230   9.436  16.982  0.00  0.00    +0.000 HD
BRANCH  23  25
ATOM     25  C   UNL     1      -1.259  10.748  18.283  0.00  0.00    +0.000 C 
BRANCH  25  26
ATOM     26  C   UNL     1      -2.314  10.697  17.239  0.00  0.00    +0.000 A 
ATOM     27  C   UNL     1      -3.663  10.992  17.240  0.00  0.00    +0.000 A 
ATOM     28  C   UNL     1      -4.128  10.758  15.923  0.00  0.00    +0.000 A 
ATOM     29  C   UNL     1      -3.041  10.318  15.206  0.00  0.00    +0.000 A 
ATOM     30  O   UNL     1      -1.935  10.276  15.995  0.00  0.00    +0.000 OA
ENDBRANCH  25  26
ENDBRANCH  23  25
ENDBRANCH  20  22
ENDBRANCH  19  20
ENDBRANCH  17  19
ENDBRANCH   1  17
TORSDOF 7
ENDMDL
MODEL 9
REMARK VINA RESULT:      -8.4      3.660      5.647
REMARK  Name = 
REMARK  7 active torsions:
REMARK  status: ('A' for Active; 'I' for Inactive)
REMARK    1  A    between atoms: C_2  and  C_3
REMARK    2  A    between atoms: C_3  and  O_4
REMARK    3  A    between atoms: O_4  and  C_5
REMARK    4  A    between atoms: C_5  and  C_7
REMARK    5  A    between atoms: C_9  and  C_10
REMARK    6  A    between atoms: N_23  and  C_24
REMARK    7  A    between atoms: C_24  and  C_25
REMARK                            x       y       z     vdW  Elec       q    Type
REMARK                         _______ _______ _______ _____ _____    ______ ____
ROOT
ATOM      1  C   UNL     1       4.466   4.894  18.467  0.00  0.00    +0.000 A 
ATOM      2  C   UNL     1       4.036   6.220  18.537  0.00  0.00    +0.000 A 
ATOM      3  C   UNL     1       2.690   6.491  18.654  0.00  0.00    +0.000 A 
ATOM      4  N   UNL     1       1.771   5.502  18.689  0.00  0.00    +0.000 NA
ATOM      5  C   UNL     1       2.173   4.219  18.631  0.00  0.00    +0.000 A 
ATOM      6  C   UNL     1       1.191   3.239  18.696  0.00  0.00    +0.000 A 
ATOM      7  C   UNL     1       1.498   1.878  18.640  0.00  0.00    +0.000 A 
ATOM      8  C   UNL     1       2.822   1.484  18.516  0.00  0.00    +0.000 A 
ATOM      9  C   UNL     1       3.825   2.449  18.456  0.00  0.00    +0.000 A 
ATOM     10  C   UNL     1       3.525   3.838  18.514  0.00  0.00    +0.000 A 
ENDROOT
BRANCH   3  11
ATOM     11  C   UNL     1       2.190   7.868  18.805  0.00  0.00    +0.000 A 
ATOM     12  C   UNL     1       2.333   8.806  17.769  0.00  0.00    +0.000 A 
ATOM     13  C   UNL     1       1.796  10.090  17.883  0.00  0.00    +0.000 A 
ATOM     14  C   UNL     1       1.110  10.463  19.036  0.00  0.00    +0.000 A 
ATOM     15  C   UNL     1       0.987   9.564  20.090  0.00  0.00    +0.000 A 
ATOM     16  C   UNL     1       1.528   8.284  19.978  0.00  0.00    +0.000 A 
ENDBRANCH   3  11
BRANCH   1  17
ATOM     17  C   UNL     1       5.936   4.678  18.498  0.00  0.00    +0.000 C 
ATOM     18  O   UNL     1       6.672   5.033  19.403  0.00  0.00    +0.000 OA
BRANCH  17  19
ATOM     19  O   UNL     1       6.359   4.176  17.311  0.00  0.00    +0.000 OA
BRANCH  19  20
ATOM     20  C   UNL     1       7.348   4.967  16.652  0.00  0.00    +0.000 C 
BRANCH  20  22
ATOM     21  O   UNL     1       5.987   6.207  15.083  0.00  0.00    +0.000 OA
ATOM     22  C   UNL     1       6.841   5.341  15.253  0.00  0.00    +0.000 C 
ATOM     23  N   UNL     1       7.451   4.675  14.218  0.00  0.00    +0.000 N 
ATOM     24  H   UNL     1       8.207   4.027  14.419  0.00  0.00    +0.000 HD
BRANCH  23  25
ATOM     25  C   UNL     1       7.140   4.914  12.823  0.00  0.00    +0.000 C 
BRANCH  25  26
ATOM     26  C   UNL     1       6.592   3.668  12.228  0.00  0.00    +0.000 A 
ATOM     27  C   UNL     1       5.315   3.154  12.117  0.00  0.00    +0.000 A 
ATOM     28  C   UNL     1       5.436   1.923  11.426  0.00  0.00    +0.000 A 
ATOM     29  C   UNL     1       6.777   1.754  11.176  0.00  0.00    +0.000 A 
ATOM     30  O   UNL     1       7.488   2.807  11.660  0.00  0.00    +0.000 OA
ENDBRANCH  25  26
ENDBRANCH  23  25
ENDBRANCH  20  22
ENDBRANCH  19  20
ENDBRANCH  17  19
ENDBRANCH   1  17
TORSDOF 7
ENDMDL
