MODEL 1
REMARK VINA RESULT:      -8.8      0.000      0.000
REMARK  Name = 
REMARK  6 active torsions:
REMARK  status: ('A' for Active; 'I' for Inactive)
REMARK    1  A    between atoms: C_1  and  C_2
REMARK    2  A    between atoms: C_13  and  C_14
REMARK    3  A    between atoms: C_14  and  C_15
REMARK    4  A    between atoms: N_17  and  C_18
REMARK    5  A    between atoms: C_22  and  C_23
REMARK    6  A    between atoms: N_25  and  C_26
REMARK                            x       y       z     vdW  Elec       q    Type
REMARK                         _______ _______ _______ _____ _____    ______ ____
ROOT
ATOM      1  C   UNL     1       2.180   8.017  19.293  0.00  0.00    +0.000 C 
ATOM      2  O   UNL     1       1.526   7.980  20.331  0.00  0.00    +0.000 OA
ATOM      3  N   UNL     1       1.929   8.870  18.228  0.00  0.00    +0.000 N 
ATOM      4  H   UNL     1       2.261   8.578  17.315  0.00  0.00    +0.000 HD
ENDROOT
BRANCH   3   5
ATOM      5  C   UNL     1       1.028   9.952  18.283  0.00  0.00    +0.000 A 
ATOM      6  C   UNL     1       1.434  11.227  18.691  0.00  0.00    +0.000 A 
ATOM      7  C   UNL     1       0.517  12.271  18.802  0.00  0.00    +0.000 A 
ATOM      8  C   UNL     1      -0.818  12.051  18.474  0.00  0.00    +0.000 A 
ATOM      9  C   UNL     1      -1.227  10.796  18.005  0.00  0.00    +0.000 A 
ATOM     10  C   UNL     1      -0.299   9.744  17.911  0.00  0.00    +0.000 A 
BRANCH   9  11
ATOM     11  C   UNL     1      -2.642  10.527  17.631  0.00  0.00    +0.000 C 
ATOM     12  O   UNL     1      -3.037   9.372  17.524  0.00  0.00    +0.000 OA
ATOM     13  N   UNL     1      -3.425  11.640  17.379  0.00  0.00    +0.000 N 
ATOM     14  H   UNL     1      -2.985  12.549  17.333  0.00  0.00    +0.000 HD
BRANCH  13  15
ATOM     15  C   UNL     1      -4.777  11.537  16.924  0.00  0.00    +0.000 C 
ATOM     16  C   UNL     1      -5.771  12.622  17.242  0.00  0.00    +0.000 C 
ATOM     17  C   UNL     1      -5.896  11.277  17.894  0.00  0.00    +0.000 C 
ENDBRANCH  13  15
ENDBRANCH   9  11
ENDBRANCH   3   5
BRANCH   1  18
ATOM     18  C   UNL     1       3.336   7.074  19.038  0.00  0.00    +0.000 C 
BRANCH  18  31
ATOM     19  C   UNL     1       5.465   5.555  15.398  0.00  0.00    +0.000 C 
ATOM     20  C   UNL     1       4.780   6.071  16.642  0.00  0.00    +0.000 C 
ATOM     21  O   UNL     1       5.119   7.183  17.048  0.00  0.00    +0.000 OA
ATOM     22  N   UNL     1       3.830   5.241  17.263  0.00  0.00    +0.000 N 
ATOM     23  C   UNL     1       3.528   3.974  16.759  0.00  0.00    +0.000 C 
ATOM     24  C   UNL     1       2.788   3.072  17.413  0.00  0.00    +0.000 C 
ATOM     25  C   UNL     1       2.339   3.325  18.778  0.00  0.00    +0.000 A 
ATOM     26  C   UNL     1       1.791   2.281  19.538  0.00  0.00    +0.000 A 
ATOM     27  C   UNL     1       1.393   2.502  20.852  0.00  0.00    +0.000 A 
ATOM     28  C   UNL     1       1.578   3.751  21.422  0.00  0.00    +0.000 A 
ATOM     29  C   UNL     1       2.150   4.784  20.673  0.00  0.00    +0.000 A 
ATOM     30  C   UNL     1       2.504   4.608  19.325  0.00  0.00    +0.000 A 
ATOM     31  C   UNL     1       2.909   5.750  18.364  0.00  0.00    +0.000 C 
ENDBRANCH  18  31
ENDBRANCH   1  18
TORSDOF 5
ENDMDL
MODEL 2
REMARK VINA RESULT:      -8.4      1.510      1.702
REMARK  Name = 
REMARK  6 active torsions:
REMARK  status: ('A' for Active; 'I' for Inactive)
REMARK    1  A    between atoms: C_1  and  C_2
REMARK    2  A    between atoms: C_13  and  C_14
REMARK    3  A    between atoms: C_14  and  C_15
REMARK    4  A    between atoms: N_17  and  C_18
REMARK    5  A    between atoms: C_22  and  C_23
REMARK    6  A    between atoms: N_25  and  C_26
REMARK                            x       y       z     vdW  Elec       q    Type
REMARK                         _______ _______ _______ _____ _____    ______ ____
ROOT
ATOM      1  C   UNL     1       2.479   8.243  18.399  0.00  0.00    +0.000 C 
ATOM      2  O   UNL     1       2.463   8.657  17.243  0.00  0.00    +0.000 OA
ATOM      3  N   UNL     1       1.797   8.824  19.457  0.00  0.00    +0.000 N 
ATOM      4  H   UNL     1       2.158   8.651  20.390  0.00  0.00    +0.000 HD
ENDROOT
BRANCH   3   5
ATOM      5  C   UNL     1       0.826   9.835  19.308  0.00  0.00    +0.000 A 
ATOM      6  C   UNL     1       0.931  11.059  19.975  0.00  0.00    +0.000 A 
ATOM      7  C   UNL     1      -0.071  12.023  19.869  0.00  0.00    +0.000 A 
ATOM      8  C   UNL     1      -1.179  11.776  19.064  0.00  0.00    +0.000 A 
ATOM      9  C   UNL     1      -1.268  10.579  18.341  0.00  0.00    +0.000 A 
ATOM     10  C   UNL     1      -0.261   9.607  18.466  0.00  0.00    +0.000 A 
BRANCH   9  11
ATOM     11  C   UNL     1      -2.430  10.286  17.459  0.00  0.00    +0.000 C 
ATOM     12  O   UNL     1      -3.565  10.289  17.923  0.00  0.00    +0.000 OA
ATOM     13  N   UNL     1      -2.132   9.977  16.144  0.00  0.00    +0.000 N 
ATOM     14  H   UNL     1      -1.166   9.839  15.879  0.00  0.00    +0.000 HD
BRANCH  13  15
ATOM     15  C   UNL     1      -3.136   9.587  15.203  0.00  0.00    +0.000 C 
ATOM     16  C   UNL     1      -2.939   9.841  13.732  0.00  0.00    +0.000 C 
ATOM     17  C   UNL     1      -3.968  10.620  14.496  0.00  0.00    +0.000 C 
ENDBRANCH  13  15
ENDBRANCH   9  11
ENDBRANCH   3   5
BRANCH   1  18
ATOM     18  C   UNL     1       3.307   7.046  18.812  0.00  0.00    +0.000 C 
BRANCH  18  31
ATOM     19  C   UNL     1       6.012   5.472  15.604  0.00  0.00    +0.000 C 
ATOM     20  C   UNL     1       5.129   6.004  16.708  0.00  0.00    +0.000 C 
ATOM     21  O   UNL     1       5.440   7.090  17.200  0.00  0.00    +0.000 OA
ATOM     22  N   UNL     1       4.038   5.218  17.116  0.00  0.00    +0.000 N 
ATOM     23  C   UNL     1       3.775   3.976  16.531  0.00  0.00    +0.000 C 
ATOM     24  C   UNL     1       2.880   3.106  17.010  0.00  0.00    +0.000 C 
ATOM     25  C   UNL     1       2.192   3.360  18.271  0.00  0.00    +0.000 A 
ATOM     26  C   UNL     1       1.457   2.336  18.886  0.00  0.00    +0.000 A 
ATOM     27  C   UNL     1       0.827   2.557  20.106  0.00  0.00    +0.000 A 
ATOM     28  C   UNL     1       0.963   3.785  20.733  0.00  0.00    +0.000 A 
ATOM     29  C   UNL     1       1.718   4.798  20.133  0.00  0.00    +0.000 A 
ATOM     30  C   UNL     1       2.314   4.624  18.872  0.00  0.00    +0.000 A 
ATOM     31  C   UNL     1       2.951   5.758  18.036  0.00  0.00    +0.000 C 
ENDBRANCH  18  31
ENDBRANCH   1  18
TORSDOF 5
ENDMDL
MODEL 3
REMARK VINA RESULT:      -8.4      2.620      3.095
REMARK  Name = 
REMARK  6 active torsions:
REMARK  status: ('A' for Active; 'I' for Inactive)
REMARK    1  A    between atoms: C_1  and  C_2
REMARK    2  A    between atoms: C_13  and  C_14
REMARK    3  A    between atoms: C_14  and  C_15
REMARK    4  A    between atoms: N_17  and  C_18
REMARK    5  A    between atoms: C_22  and  C_23
REMARK    6  A    between atoms: N_25  and  C_26
REMARK                            x       y       z     vdW  Elec       q    Type
REMARK                         _______ _______ _______ _____ _____    ______ ____
ROOT
ATOM      1  C   UNL     1       2.533   8.147  18.304  0.00  0.00    +0.000 C 
ATOM      2  O   UNL     1       2.311   8.627  17.196  0.00  0.00    +0.000 OA
ATOM      3  N   UNL     1       1.940   8.571  19.484  0.00  0.00    +0.000 N 
ATOM      4  H   UNL     1       2.444   8.386  20.346  0.00  0.00    +0.000 HD
ENDROOT
BRANCH   3   5
ATOM      5  C   UNL     1       0.847   9.459  19.542  0.00  0.00    +0.000 A 
ATOM      6  C   UNL     1       0.202   9.907  18.384  0.00  0.00    +0.000 A 
ATOM      7  C   UNL     1      -0.835  10.836  18.455  0.00  0.00    +0.000 A 
ATOM      8  C   UNL     1      -1.255  11.305  19.696  0.00  0.00    +0.000 A 
ATOM      9  C   UNL     1      -0.659  10.818  20.867  0.00  0.00    +0.000 A 
ATOM     10  C   UNL     1       0.396   9.893  20.787  0.00  0.00    +0.000 A 
BRANCH   9  11
ATOM     11  C   UNL     1      -1.092  11.284  22.213  0.00  0.00    +0.000 C 
ATOM     12  O   UNL     1      -0.429  10.994  23.202  0.00  0.00    +0.000 OA
ATOM     13  N   UNL     1      -2.276  11.998  22.256  0.00  0.00    +0.000 N 
ATOM     14  H   UNL     1      -2.844  12.058  21.421  0.00  0.00    +0.000 HD
BRANCH  13  15
ATOM     15  C   UNL     1      -2.862  12.434  23.486  0.00  0.00    +0.000 C 
ATOM     16  C   UNL     1      -4.122  13.258  23.478  0.00  0.00    +0.000 C 
ATOM     17  C   UNL     1      -2.821  13.882  23.886  0.00  0.00    +0.000 C 
ENDBRANCH  13  15
ENDBRANCH   9  11
ENDBRANCH   3   5
BRANCH   1  18
ATOM     18  C   UNL     1       3.543   7.040  18.512  0.00  0.00    +0.000 C 
BRANCH  18  31
ATOM     19  C   UNL     1       5.819   5.016  15.223  0.00  0.00    +0.000 C 
ATOM     20  C   UNL     1       5.083   5.702  16.351  0.00  0.00    +0.000 C 
ATOM     21  O   UNL     1       5.464   6.831  16.663  0.00  0.00    +0.000 OA
ATOM     22  N   UNL     1       4.042   5.000  16.981  0.00  0.00    +0.000 N 
ATOM     23  C   UNL     1       3.695   3.703  16.591  0.00  0.00    +0.000 C 
ATOM     24  C   UNL     1       2.855   2.922  17.278  0.00  0.00    +0.000 C 
ATOM     25  C   UNL     1       2.329   3.346  18.570  0.00  0.00    +0.000 A 
ATOM     26  C   UNL     1       1.664   2.423  19.391  0.00  0.00    +0.000 A 
ATOM     27  C   UNL     1       1.190   2.808  20.641  0.00  0.00    +0.000 A 
ATOM     28  C   UNL     1       1.414   4.100  21.090  0.00  0.00    +0.000 A 
ATOM     29  C   UNL     1       2.102   5.012  20.283  0.00  0.00    +0.000 A 
ATOM     30  C   UNL     1       2.537   4.670  18.991  0.00  0.00    +0.000 A 
ATOM     31  C   UNL     1       3.080   5.676  17.950  0.00  0.00    +0.000 C 
ENDBRANCH  18  31
ENDBRANCH   1  18
TORSDOF 5
ENDMDL
MODEL 4
REMARK VINA RESULT:      -8.4      1.670      1.934
REMARK  Name = 
REMARK  6 active torsions:
REMARK  status: ('A' for Active; 'I' for Inactive)
REMARK    1  A    between atoms: C_1  and  C_2
REMARK    2  A    between atoms: C_13  and  C_14
REMARK    3  A    between atoms: C_14  and  C_15
REMARK    4  A    between atoms: N_17  and  C_18
REMARK    5  A    between atoms: C_22  and  C_23
REMARK    6  A    between atoms: N_25  and  C_26
REMARK                            x       y       z     vdW  Elec       q    Type
REMARK                         _______ _______ _______ _____ _____    ______ ____
ROOT
ATOM      1  C   UNL     1       2.563   7.850  18.492  0.00  0.00    +0.000 C 
ATOM      2  O   UNL     1       2.145   8.336  17.445  0.00  0.00    +0.000 OA
ATOM      3  N   UNL     1       2.187   8.263  19.762  0.00  0.00    +0.000 N 
ATOM      4  H   UNL     1       2.837   8.075  20.519  0.00  0.00    +0.000 HD
ENDROOT
BRANCH   3   5
ATOM      5  C   UNL     1       1.119   9.145  20.019  0.00  0.00    +0.000 A 
ATOM      6  C   UNL     1       0.649   9.372  21.317  0.00  0.00    +0.000 A 
ATOM      7  C   UNL     1      -0.450  10.197  21.548  0.00  0.00    +0.000 A 
ATOM      8  C   UNL     1      -1.073  10.829  20.475  0.00  0.00    +0.000 A 
ATOM      9  C   UNL     1      -0.574  10.660  19.177  0.00  0.00    +0.000 A 
ATOM     10  C   UNL     1       0.525   9.814  18.951  0.00  0.00    +0.000 A 
BRANCH   9  11
ATOM     11  C   UNL     1      -1.205  11.331  18.007  0.00  0.00    +0.000 C 
ATOM     12  O   UNL     1      -1.194  12.554  17.925  0.00  0.00    +0.000 OA
ATOM     13  N   UNL     1      -1.817  10.498  17.088  0.00  0.00    +0.000 N 
ATOM     14  H   UNL     1      -1.922   9.517  17.308  0.00  0.00    +0.000 HD
BRANCH  13  15
ATOM     15  C   UNL     1      -2.540  11.003  15.961  0.00  0.00    +0.000 C 
ATOM     16  C   UNL     1      -4.003  10.691  15.795  0.00  0.00    +0.000 C 
ATOM     17  C   UNL     1      -2.997  10.080  14.866  0.00  0.00    +0.000 C 
ENDBRANCH  13  15
ENDBRANCH   9  11
ENDBRANCH   3   5
BRANCH   1  18
ATOM     18  C   UNL     1       3.597   6.746  18.509  0.00  0.00    +0.000 C 
BRANCH  18  31
ATOM     19  C   UNL     1       5.487   4.557  15.084  0.00  0.00    +0.000 C 
ATOM     20  C   UNL     1       4.883   5.298  16.254  0.00  0.00    +0.000 C 
ATOM     21  O   UNL     1       5.324   6.423  16.492  0.00  0.00    +0.000 OA
ATOM     22  N   UNL     1       3.888   4.647  17.003  0.00  0.00    +0.000 N 
ATOM     23  C   UNL     1       3.469   3.352  16.689  0.00  0.00    +0.000 C 
ATOM     24  C   UNL     1       2.678   2.617  17.478  0.00  0.00    +0.000 C 
ATOM     25  C   UNL     1       2.291   3.095  18.801  0.00  0.00    +0.000 A 
ATOM     26  C   UNL     1       1.682   2.218  19.711  0.00  0.00    +0.000 A 
ATOM     27  C   UNL     1       1.342   2.654  20.988  0.00  0.00    +0.000 A 
ATOM     28  C   UNL     1       1.646   3.950  21.371  0.00  0.00    +0.000 A 
ATOM     29  C   UNL     1       2.277   4.816  20.473  0.00  0.00    +0.000 A 
ATOM     30  C   UNL     1       2.576   4.423  19.157  0.00  0.00    +0.000 A 
ATOM     31  C   UNL     1       3.044   5.382  18.037  0.00  0.00    +0.000 C 
ENDBRANCH  18  31
ENDBRANCH   1  18
TORSDOF 5
ENDMDL
MODEL 5
REMARK VINA RESULT:      -8.4      2.092      9.008
REMARK  Name = 
REMARK  6 active torsions:
REMARK  status: ('A' for Active; 'I' for Inactive)
REMARK    1  A    between atoms: C_1  and  C_2
REMARK    2  A    between atoms: C_13  and  C_14
REMARK    3  A    between atoms: C_14  and  C_15
REMARK    4  A    between atoms: N_17  and  C_18
REMARK    5  A    between atoms: C_22  and  C_23
REMARK    6  A    between atoms: N_25  and  C_26
REMARK                            x       y       z     vdW  Elec       q    Type
REMARK                         _______ _______ _______ _____ _____    ______ ____
ROOT
ATOM      1  C   UNL     1       1.022   8.990  20.089  0.00  0.00    +0.000 C 
ATOM      2  O   UNL     1       0.469   8.613  21.118  0.00  0.00    +0.000 OA
ATOM      3  N   UNL     1       1.975   8.264  19.390  0.00  0.00    +0.000 N 
ATOM      4  H   UNL     1       2.617   8.790  18.805  0.00  0.00    +0.000 HD
ENDROOT
BRANCH   3   5
ATOM      5  C   UNL     1       2.278   6.912  19.645  0.00  0.00    +0.000 A 
ATOM      6  C   UNL     1       1.571   6.167  20.594  0.00  0.00    +0.000 A 
ATOM      7  C   UNL     1       1.926   4.849  20.882  0.00  0.00    +0.000 A 
ATOM      8  C   UNL     1       2.980   4.256  20.194  0.00  0.00    +0.000 A 
ATOM      9  C   UNL     1       3.657   4.971  19.197  0.00  0.00    +0.000 A 
ATOM     10  C   UNL     1       3.304   6.303  18.925  0.00  0.00    +0.000 A 
BRANCH   9  11
ATOM     11  C   UNL     1       4.780   4.365  18.431  0.00  0.00    +0.000 C 
ATOM     12  O   UNL     1       5.700   3.816  19.026  0.00  0.00    +0.000 OA
ATOM     13  N   UNL     1       4.724   4.509  17.056  0.00  0.00    +0.000 N 
ATOM     14  H   UNL     1       4.018   5.111  16.654  0.00  0.00    +0.000 HD
BRANCH  13  15
ATOM     15  C   UNL     1       5.775   4.058  16.196  0.00  0.00    +0.000 C 
ATOM     16  C   UNL     1       6.703   5.048  15.545  0.00  0.00    +0.000 C 
ATOM     17  C   UNL     1       5.708   4.294  14.713  0.00  0.00    +0.000 C 
ENDBRANCH  13  15
ENDBRANCH   9  11
ENDBRANCH   3   5
BRANCH   1  18
ATOM     18  C   UNL     1       0.747  10.349  19.481  0.00  0.00    +0.000 C 
BRANCH  18  31
ATOM     19  C   UNL     1       0.025  13.894  22.127  0.00  0.00    +0.000 C 
ATOM     20  C   UNL     1       0.293  12.718  21.216  0.00  0.00    +0.000 C 
ATOM     21  O   UNL     1       1.456  12.319  21.145  0.00  0.00    +0.000 OA
ATOM     22  N   UNL     1      -0.789  12.183  20.496  0.00  0.00    +0.000 N 
ATOM     23  C   UNL     1      -2.075  12.719  20.606  0.00  0.00    +0.000 C 
ATOM     24  C   UNL     1      -3.089  12.381  19.803  0.00  0.00    +0.000 C 
ATOM     25  C   UNL     1      -2.877  11.496  18.663  0.00  0.00    +0.000 A 
ATOM     26  C   UNL     1      -3.878  11.356  17.691  0.00  0.00    +0.000 A 
ATOM     27  C   UNL     1      -3.672  10.542  16.581  0.00  0.00    +0.000 A 
ATOM     28  C   UNL     1      -2.454   9.902  16.420  0.00  0.00    +0.000 A 
ATOM     29  C   UNL     1      -1.446  10.063  17.375  0.00  0.00    +0.000 A 
ATOM     30  C   UNL     1      -1.648  10.828  18.537  0.00  0.00    +0.000 A 
ATOM     31  C   UNL     1      -0.687  10.859  19.748  0.00  0.00    +0.000 C 
ENDBRANCH  18  31
ENDBRANCH   1  18
TORSDOF 5
ENDMDL
MODEL 6
REMARK VINA RESULT:      -8.4      1.352      1.543
REMARK  Name = 
REMARK  6 active torsions:
REMARK  status: ('A' for Active; 'I' for Inactive)
REMARK    1  A    between atoms: C_1  and  C_2
REMARK    2  A    between atoms: C_13  and  C_14
REMARK    3  A    between atoms: C_14  and  C_15
REMARK    4  A    between atoms: N_17  and  C_18
REMARK    5  A    between atoms: C_22  and  C_23
REMARK    6  A    between atoms: N_25  and  C_26
REMARK                            x       y       z     vdW  Elec       q    Type
REMARK                         _______ _______ _______ _____ _____    ______ ____
ROOT
ATOM      1  C   UNL     1       2.087   7.765  19.702  0.00  0.00    +0.000 C 
ATOM      2  O   UNL     1       1.453   7.473  20.712  0.00  0.00    +0.000 OA
ATOM      3  N   UNL     1       1.788   8.824  18.857  0.00  0.00    +0.000 N 
ATOM      4  H   UNL     1       2.115   8.755  17.899  0.00  0.00    +0.000 HD
ENDROOT
BRANCH   3   5
ATOM      5  C   UNL     1       0.851   9.832  19.159  0.00  0.00    +0.000 A 
ATOM      6  C   UNL     1       0.957  10.612  20.314  0.00  0.00    +0.000 A 
ATOM      7  C   UNL     1      -0.015  11.560  20.632  0.00  0.00    +0.000 A 
ATOM      8  C   UNL     1      -1.092  11.755  19.772  0.00  0.00    +0.000 A 
ATOM      9  C   UNL     1      -1.178  11.024  18.580  0.00  0.00    +0.000 A 
ATOM     10  C   UNL     1      -0.203  10.058  18.276  0.00  0.00    +0.000 A 
BRANCH   9  11
ATOM     11  C   UNL     1      -2.307  11.215  17.629  0.00  0.00    +0.000 C 
ATOM     12  O   UNL     1      -3.382  11.642  18.035  0.00  0.00    +0.000 OA
ATOM     13  N   UNL     1      -2.067  10.840  16.319  0.00  0.00    +0.000 N 
ATOM     14  H   UNL     1      -1.212  10.349  16.098  0.00  0.00    +0.000 HD
BRANCH  13  15
ATOM     15  C   UNL     1      -3.083  10.882  15.313  0.00  0.00    +0.000 C 
ATOM     16  C   UNL     1      -3.982   9.696  15.090  0.00  0.00    +0.000 C 
ATOM     17  C   UNL     1      -2.957  10.064  14.059  0.00  0.00    +0.000 C 
ENDBRANCH  13  15
ENDBRANCH   9  11
ENDBRANCH   3   5
BRANCH   1  18
ATOM     18  C   UNL     1       3.272   6.948  19.234  0.00  0.00    +0.000 C 
BRANCH  18  31
ATOM     19  C   UNL     1       5.396   5.665  15.502  0.00  0.00    +0.000 C 
ATOM     20  C   UNL     1       4.713   6.101  16.777  0.00  0.00    +0.000 C 
ATOM     21  O   UNL     1       5.032   7.198  17.236  0.00  0.00    +0.000 OA
ATOM     22  N   UNL     1       3.788   5.220  17.363  0.00  0.00    +0.000 N 
ATOM     23  C   UNL     1       3.509   3.973  16.797  0.00  0.00    +0.000 C 
ATOM     24  C   UNL     1       2.796   3.023  17.411  0.00  0.00    +0.000 C 
ATOM     25  C   UNL     1       2.355   3.195  18.791  0.00  0.00    +0.000 A 
ATOM     26  C   UNL     1       1.837   2.102  19.501  0.00  0.00    +0.000 A 
ATOM     27  C   UNL     1       1.448   2.246  20.829  0.00  0.00    +0.000 A 
ATOM     28  C   UNL     1       1.611   3.469  21.461  0.00  0.00    +0.000 A 
ATOM     29  C   UNL     1       2.153   4.551  20.761  0.00  0.00    +0.000 A 
ATOM     30  C   UNL     1       2.497   4.452  19.401  0.00  0.00    +0.000 A 
ATOM     31  C   UNL     1       2.867   5.651  18.497  0.00  0.00    +0.000 C 
ENDBRANCH  18  31
ENDBRANCH   1  18
TORSDOF 5
ENDMDL
MODEL 7
REMARK VINA RESULT:      -8.4      2.189      3.180
REMARK  Name = 
REMARK  6 active torsions:
REMARK  status: ('A' for Active; 'I' for Inactive)
REMARK    1  A    between atoms: C_1  and  C_2
REMARK    2  A    between atoms: C_13  and  C_14
REMARK    3  A    between atoms: C_14  and  C_15
REMARK    4  A    between atoms: N_17  and  C_18
REMARK    5  A    between atoms: C_22  and  C_23
REMARK    6  A    between atoms: N_25  and  C_26
REMARK                            x       y       z     vdW  Elec       q    Type
REMARK                         _______ _______ _______ _____ _____    ______ ____
ROOT
ATOM      1  C   UNL     1       2.301   8.370  18.196  0.00  0.00    +0.000 C 
ATOM      2  O   UNL     1       2.371   8.699  17.015  0.00  0.00    +0.000 OA
ATOM      3  N   UNL     1       1.516   9.003  19.148  0.00  0.00    +0.000 N 
ATOM      4  H   UNL     1       1.802   8.909  20.118  0.00  0.00    +0.000 HD
ENDROOT
BRANCH   3   5
ATOM      5  C   UNL     1       0.534   9.968  18.846  0.00  0.00    +0.000 A 
ATOM      6  C   UNL     1      -0.607   9.648  18.104  0.00  0.00    +0.000 A 
ATOM      7  C   UNL     1      -1.536  10.628  17.757  0.00  0.00    +0.000 A 
ATOM      8  C   UNL     1      -1.340  11.940  18.179  0.00  0.00    +0.000 A 
ATOM      9  C   UNL     1      -0.233  12.263  18.975  0.00  0.00    +0.000 A 
ATOM     10  C   UNL     1       0.706  11.272  19.307  0.00  0.00    +0.000 A 
BRANCH   9  11
ATOM     11  C   UNL     1       0.001  13.651  19.457  0.00  0.00    +0.000 C 
ATOM     12  O   UNL     1       0.553  13.838  20.535  0.00  0.00    +0.000 OA
ATOM     13  N   UNL     1      -0.479  14.664  18.646  0.00  0.00    +0.000 N 
ATOM     14  H   UNL     1      -1.062  14.425  17.855  0.00  0.00    +0.000 HD
BRANCH  13  15
ATOM     15  C   UNL     1      -0.406  16.043  19.020  0.00  0.00    +0.000 C 
ATOM     16  C   UNL     1      -0.619  17.122  17.993  0.00  0.00    +0.000 C 
ATOM     17  C   UNL     1       0.745  16.900  18.575  0.00  0.00    +0.000 C 
ENDBRANCH  13  15
ENDBRANCH   9  11
ENDBRANCH   3   5
BRANCH   1  18
ATOM     18  C   UNL     1       3.122   7.234  18.763  0.00  0.00    +0.000 C 
BRANCH  18  31
ATOM     19  C   UNL     1       6.076   5.691  15.765  0.00  0.00    +0.000 C 
ATOM     20  C   UNL     1       5.108   6.215  16.800  0.00  0.00    +0.000 C 
ATOM     21  O   UNL     1       5.323   7.342  17.248  0.00  0.00    +0.000 OA
ATOM     22  N   UNL     1       4.052   5.378  17.199  0.00  0.00    +0.000 N 
ATOM     23  C   UNL     1       3.898   4.095  16.667  0.00  0.00    +0.000 C 
ATOM     24  C   UNL     1       3.039   3.191  17.149  0.00  0.00    +0.000 C 
ATOM     25  C   UNL     1       2.276   3.459  18.363  0.00  0.00    +0.000 A 
ATOM     26  C   UNL     1       1.580   2.418  18.996  0.00  0.00    +0.000 A 
ATOM     27  C   UNL     1       0.879   2.656  20.174  0.00  0.00    +0.000 A 
ATOM     28  C   UNL     1       0.904   3.919  20.742  0.00  0.00    +0.000 A 
ATOM     29  C   UNL     1       1.620   4.950  20.126  0.00  0.00    +0.000 A 
ATOM     30  C   UNL     1       2.286   4.756  18.903  0.00  0.00    +0.000 A 
ATOM     31  C   UNL     1       2.888   5.888  18.039  0.00  0.00    +0.000 C 
ENDBRANCH  18  31
ENDBRANCH   1  18
TORSDOF 5
ENDMDL
MODEL 8
REMARK VINA RESULT:      -8.2      2.258      3.824
REMARK  Name = 
REMARK  6 active torsions:
REMARK  status: ('A' for Active; 'I' for Inactive)
REMARK    1  A    between atoms: C_1  and  C_2
REMARK    2  A    between atoms: C_13  and  C_14
REMARK    3  A    between atoms: C_14  and  C_15
REMARK    4  A    between atoms: N_17  and  C_18
REMARK    5  A    between atoms: C_22  and  C_23
REMARK    6  A    between atoms: N_25  and  C_26
REMARK                            x       y       z     vdW  Elec       q    Type
REMARK                         _______ _______ _______ _____ _____    ______ ____
ROOT
ATOM      1  C   UNL     1       2.348   8.393  18.217  0.00  0.00    +0.000 C 
ATOM      2  O   UNL     1       2.356   8.676  17.022  0.00  0.00    +0.000 OA
ATOM      3  N   UNL     1       1.651   9.093  19.191  0.00  0.00    +0.000 N 
ATOM      4  H   UNL     1       1.995   9.022  20.144  0.00  0.00    +0.000 HD
ENDROOT
BRANCH   3   5
ATOM      5  C   UNL     1       0.691  10.086  18.913  0.00  0.00    +0.000 A 
ATOM      6  C   UNL     1      -0.626   9.761  18.574  0.00  0.00    +0.000 A 
ATOM      7  C   UNL     1      -1.546  10.753  18.237  0.00  0.00    +0.000 A 
ATOM      8  C   UNL     1      -1.158  12.089  18.267  0.00  0.00    +0.000 A 
ATOM      9  C   UNL     1       0.141  12.433  18.665  0.00  0.00    +0.000 A 
ATOM     10  C   UNL     1       1.067  11.426  18.987  0.00  0.00    +0.000 A 
BRANCH   9  11
ATOM     11  C   UNL     1       0.588  13.851  18.722  0.00  0.00    +0.000 C 
ATOM     12  O   UNL     1      -0.229  14.741  18.932  0.00  0.00    +0.000 OA
ATOM     13  N   UNL     1       1.932  14.074  18.482  0.00  0.00    +0.000 N 
ATOM     14  H   UNL     1       2.507  13.307  18.160  0.00  0.00    +0.000 HD
BRANCH  13  15
ATOM     15  C   UNL     1       2.490  15.390  18.417  0.00  0.00    +0.000 C 
ATOM     16  C   UNL     1       3.500  15.735  17.356  0.00  0.00    +0.000 C 
ATOM     17  C   UNL     1       3.924  15.636  18.791  0.00  0.00    +0.000 C 
ENDBRANCH  13  15
ENDBRANCH   9  11
ENDBRANCH   3   5
BRANCH   1  18
ATOM     18  C   UNL     1       3.159   7.245  18.776  0.00  0.00    +0.000 C 
BRANCH  18  31
ATOM     19  C   UNL     1       6.165   5.691  15.837  0.00  0.00    +0.000 C 
ATOM     20  C   UNL     1       5.179   6.219  16.853  0.00  0.00    +0.000 C 
ATOM     21  O   UNL     1       5.399   7.337  17.319  0.00  0.00    +0.000 OA
ATOM     22  N   UNL     1       4.101   5.392  17.216  0.00  0.00    +0.000 N 
ATOM     23  C   UNL     1       3.943   4.117  16.667  0.00  0.00    +0.000 C 
ATOM     24  C   UNL     1       3.059   3.220  17.118  0.00  0.00    +0.000 C 
ATOM     25  C   UNL     1       2.270   3.487  18.315  0.00  0.00    +0.000 A 
ATOM     26  C   UNL     1       1.544   2.450  18.919  0.00  0.00    +0.000 A 
ATOM     27  C   UNL     1       0.816   2.686  20.081  0.00  0.00    +0.000 A 
ATOM     28  C   UNL     1       0.845   3.943  20.663  0.00  0.00    +0.000 A 
ATOM     29  C   UNL     1       1.591   4.969  20.076  0.00  0.00    +0.000 A 
ATOM     30  C   UNL     1       2.285   4.778  18.869  0.00  0.00    +0.000 A 
ATOM     31  C   UNL     1       2.924   5.910  18.032  0.00  0.00    +0.000 C 
ENDBRANCH  18  31
ENDBRANCH   1  18
TORSDOF 5
ENDMDL
MODEL 9
REMARK VINA RESULT:      -8.2      1.912      3.482
REMARK  Name = 
REMARK  6 active torsions:
REMARK  status: ('A' for Active; 'I' for Inactive)
REMARK    1  A    between atoms: C_1  and  C_2
REMARK    2  A    between atoms: C_13  and  C_14
REMARK    3  A    between atoms: C_14  and  C_15
REMARK    4  A    between atoms: N_17  and  C_18
REMARK    5  A    between atoms: C_22  and  C_23
REMARK    6  A    between atoms: N_25  and  C_26
REMARK                            x       y       z     vdW  Elec       q    Type
REMARK                         _______ _______ _______ _____ _____    ______ ____
ROOT
ATOM      1  C   UNL     1       2.010   7.825  18.433  0.00  0.00    +0.000 C 
ATOM      2  O   UNL     1       2.065   7.865  19.659  0.00  0.00    +0.000 OA
ATOM      3  N   UNL     1       1.477   8.823  17.631  0.00  0.00    +0.000 N 
ATOM      4  H   UNL     1       1.144   8.547  16.712  0.00  0.00    +0.000 HD
ENDROOT
BRANCH   3   5
ATOM      5  C   UNL     1       1.125  10.105  18.098  0.00  0.00    +0.000 A 
ATOM      6  C   UNL     1       2.079  11.113  18.267  0.00  0.00    +0.000 A 
ATOM      7  C   UNL     1       1.725  12.355  18.792  0.00  0.00    +0.000 A 
ATOM      8  C   UNL     1       0.398  12.607  19.127  0.00  0.00    +0.000 A 
ATOM      9  C   UNL     1      -0.579  11.627  18.904  0.00  0.00    +0.000 A 
ATOM     10  C   UNL     1      -0.211  10.372  18.390  0.00  0.00    +0.000 A 
BRANCH   9  11
ATOM     11  C   UNL     1      -2.010  11.865  19.236  0.00  0.00    +0.000 C 
ATOM     12  O   UNL     1      -2.347  12.039  20.402  0.00  0.00    +0.000 OA
ATOM     13  N   UNL     1      -2.894  11.826  18.172  0.00  0.00    +0.000 N 
ATOM     14  H   UNL     1      -2.561  11.520  17.268  0.00  0.00    +0.000 HD
BRANCH  13  15
ATOM     15  C   UNL     1      -4.309  11.949  18.348  0.00  0.00    +0.000 C 
ATOM     16  C   UNL     1      -5.207  10.760  18.134  0.00  0.00    +0.000 C 
ATOM     17  C   UNL     1      -5.236  11.905  17.166  0.00  0.00    +0.000 C 
ENDBRANCH  13  15
ENDBRANCH   9  11
ENDBRANCH   3   5
BRANCH   1  18
ATOM     18  C   UNL     1       2.492   6.625  17.647  0.00  0.00    +0.000 C 
BRANCH  18  31
ATOM     19  C   UNL     1       1.570   2.320  18.488  0.00  0.00    +0.000 C 
ATOM     20  C   UNL     1       1.873   3.765  18.169  0.00  0.00    +0.000 C 
ATOM     21  O   UNL     1       0.979   4.419  17.631  0.00  0.00    +0.000 OA
ATOM     22  N   UNL     1       3.154   4.253  18.479  0.00  0.00    +0.000 N 
ATOM     23  C   UNL     1       4.127   3.433  19.056  0.00  0.00    +0.000 C 
ATOM     24  C   UNL     1       5.411   3.785  19.188  0.00  0.00    +0.000 C 
ATOM     25  C   UNL     1       5.905   5.033  18.615  0.00  0.00    +0.000 A 
ATOM     26  C   UNL     1       7.286   5.267  18.536  0.00  0.00    +0.000 A 
ATOM     27  C   UNL     1       7.768   6.437  17.959  0.00  0.00    +0.000 A 
ATOM     28  C   UNL     1       6.878   7.355  17.426  0.00  0.00    +0.000 A 
ATOM     29  C   UNL     1       5.502   7.109  17.481  0.00  0.00    +0.000 A 
ATOM     30  C   UNL     1       4.983   5.965  18.112  0.00  0.00    +0.000 A 
ATOM     31  C   UNL     1       3.487   5.739  18.431  0.00  0.00    +0.000 C 
ENDBRANCH  18  31
ENDBRANCH   1  18
TORSDOF 5
ENDMDL
