MODEL 1
REMARK VINA RESULT:      -8.9      0.000      0.000
REMARK  Name = 
REMARK  7 active torsions:
REMARK  status: ('A' for Active; 'I' for Inactive)
REMARK    1  A    between atoms: C_1  and  C_2
REMARK    2  A    between atoms: C_5  and  N_6
REMARK    3  A    between atoms: N_6  and  S_7
REMARK    4  A    between atoms: S_7  and  C_10
REMARK    5  A    between atoms: C_13  and  N_14
REMARK    6  A    between atoms: C_15  and  C_17
REMARK    7  A    between atoms: C_28  and  C_29
REMARK                            x       y       z     vdW  Elec       q    Type
REMARK                         _______ _______ _______ _____ _____    ______ ____
ROOT
ATOM      1  C   UNL     1       2.795   4.475  18.817  0.00  0.00    +0.000 A 
ATOM      2  C   UNL     1       2.760   5.557  17.942  0.00  0.00    +0.000 A 
ATOM      3  C   UNL     1       2.360   6.815  18.403  0.00  0.00    +0.000 A 
ATOM      4  C   UNL     1       1.986   7.018  19.731  0.00  0.00    +0.000 A 
ATOM      5  C   UNL     1       2.001   5.913  20.605  0.00  0.00    +0.000 A 
ATOM      6  C   UNL     1       2.413   4.643  20.151  0.00  0.00    +0.000 A 
ENDROOT
BRANCH   4   7
ATOM      7  N   UNL     1       1.586   8.283  20.234  0.00  0.00    +0.000 N 
ATOM      8  C   UNL     1       1.115   9.361  19.490  0.00  0.00    +0.000 C 
ATOM      9  O   UNL     1       1.029   9.387  18.266  0.00  0.00    +0.000 OA
ATOM     10  H   UNL     1       1.659   8.443  21.232  0.00  0.00    +0.000 HD
BRANCH   8  11
ATOM     11  C   UNL     1       0.724  10.521  20.277  0.00  0.00    +0.000 A 
ATOM     12  C   UNL     1       1.144  11.836  20.175  0.00  0.00    +0.000 A 
ATOM     13  C   UNL     1       0.445  12.576  21.158  0.00  0.00    +0.000 A 
ATOM     14  C   UNL     1       0.405  13.926  21.561  0.00  0.00    +0.000 A 
ATOM     15  C   UNL     1      -0.459  14.291  22.602  0.00  0.00    +0.000 A 
ATOM     16  C   UNL     1      -1.267  13.339  23.231  0.00  0.00    +0.000 A 
ATOM     17  C   UNL     1      -1.238  11.992  22.848  0.00  0.00    +0.000 A 
ATOM     18  C   UNL     1      -0.370  11.657  21.811  0.00  0.00    +0.000 A 
ATOM     19  O   UNL     1      -0.196  10.406  21.287  0.00  0.00    +0.000 OA
ENDBRANCH   8  11
ENDBRANCH   4   7
BRANCH   1  20
ATOM     20  S   UNL     1       3.361   2.904  18.183  0.00  0.00    +0.000 S 
ATOM     21  O   UNL     1       2.265   2.332  17.433  0.00  0.00    +0.000 OA
ATOM     22  O   UNL     1       4.007   2.209  19.275  0.00  0.00    +0.000 OA
BRANCH  20  23
ATOM     23  N   UNL     1       4.585   3.421  17.102  0.00  0.00    +0.000 N 
ATOM     24  H   UNL     1       4.126   4.018  16.414  0.00  0.00    +0.000 HD
BRANCH  23  29
ATOM     25  C   UNL     1       7.891   6.954  18.396  0.00  0.00    +0.000 C 
ATOM     26  C   UNL     1       7.011   5.757  18.370  0.00  0.00    +0.000 A 
ATOM     27  N   UNL     1       6.820   5.016  19.470  0.00  0.00    +0.000 NA
ATOM     28  O   UNL     1       5.906   4.036  19.105  0.00  0.00    +0.000 OA
ATOM     29  C   UNL     1       5.590   4.173  17.789  0.00  0.00    +0.000 A 
ATOM     30  C   UNL     1       6.249   5.266  17.274  0.00  0.00    +0.000 A 
ATOM     31  C   UNL     1       6.137   5.845  15.922  0.00  0.00    +0.000 C 
ENDBRANCH  23  29
ENDBRANCH  20  23
ENDBRANCH   1  20
TORSDOF 5
ENDMDL
MODEL 2
REMARK VINA RESULT:      -8.9      2.619      4.052
REMARK  Name = 
REMARK  7 active torsions:
REMARK  status: ('A' for Active; 'I' for Inactive)
REMARK    1  A    between atoms: C_1  and  C_2
REMARK    2  A    between atoms: C_5  and  N_6
REMARK    3  A    between atoms: N_6  and  S_7
REMARK    4  A    between atoms: S_7  and  C_10
REMARK    5  A    between atoms: C_13  and  N_14
REMARK    6  A    between atoms: C_15  and  C_17
REMARK    7  A    between atoms: C_28  and  C_29
REMARK                            x       y       z     vdW  Elec       q    Type
REMARK                         _______ _______ _______ _____ _____    ______ ____
ROOT
ATOM      1  C   UNL     1       4.620   5.728  18.532  0.00  0.00    +0.000 A 
ATOM      2  C   UNL     1       4.298   6.537  17.446  0.00  0.00    +0.000 A 
ATOM      3  C   UNL     1       3.197   7.395  17.519  0.00  0.00    +0.000 A 
ATOM      4  C   UNL     1       2.399   7.462  18.661  0.00  0.00    +0.000 A 
ATOM      5  C   UNL     1       2.718   6.623  19.746  0.00  0.00    +0.000 A 
ATOM      6  C   UNL     1       3.833   5.761  19.686  0.00  0.00    +0.000 A 
ENDROOT
BRANCH   4   7
ATOM      7  N   UNL     1       1.282   8.329  18.771  0.00  0.00    +0.000 N 
ATOM      8  C   UNL     1       1.158   9.600  18.216  0.00  0.00    +0.000 C 
ATOM      9  O   UNL     1       2.038  10.180  17.586  0.00  0.00    +0.000 OA
ATOM     10  H   UNL     1       0.489   8.016  19.320  0.00  0.00    +0.000 HD
BRANCH   8  11
ATOM     11  C   UNL     1      -0.126  10.244  18.446  0.00  0.00    +0.000 A 
ATOM     12  C   UNL     1      -0.486  11.171  19.408  0.00  0.00    +0.000 A 
ATOM     13  C   UNL     1      -1.845  11.499  19.186  0.00  0.00    +0.000 A 
ATOM     14  C   UNL     1      -2.783  12.360  19.789  0.00  0.00    +0.000 A 
ATOM     15  C   UNL     1      -4.076  12.424  19.254  0.00  0.00    +0.000 A 
ATOM     16  C   UNL     1      -4.434  11.652  18.145  0.00  0.00    +0.000 A 
ATOM     17  C   UNL     1      -3.518  10.785  17.536  0.00  0.00    +0.000 A 
ATOM     18  C   UNL     1      -2.239  10.741  18.087  0.00  0.00    +0.000 A 
ATOM     19  O   UNL     1      -1.202   9.969  17.641  0.00  0.00    +0.000 OA
ENDBRANCH   8  11
ENDBRANCH   4   7
BRANCH   1  20
ATOM     20  S   UNL     1       6.067   4.688  18.401  0.00  0.00    +0.000 S 
ATOM     21  O   UNL     1       7.074   5.253  19.271  0.00  0.00    +0.000 OA
ATOM     22  O   UNL     1       6.295   4.449  16.993  0.00  0.00    +0.000 OA
BRANCH  20  23
ATOM     23  N   UNL     1       5.474   3.232  19.083  0.00  0.00    +0.000 N 
ATOM     24  H   UNL     1       5.436   3.383  20.091  0.00  0.00    +0.000 HD
BRANCH  23  29
ATOM     25  C   UNL     1       0.551   2.365  18.780  0.00  0.00    +0.000 C 
ATOM     26  C   UNL     1       1.984   2.600  18.471  0.00  0.00    +0.000 A 
ATOM     27  N   UNL     1       2.391   2.835  17.216  0.00  0.00    +0.000 NA
ATOM     28  O   UNL     1       3.757   3.072  17.305  0.00  0.00    +0.000 OA
ATOM     29  C   UNL     1       4.161   2.937  18.597  0.00  0.00    +0.000 A 
ATOM     30  C   UNL     1       3.070   2.657  19.388  0.00  0.00    +0.000 A 
ATOM     31  C   UNL     1       3.019   2.522  20.856  0.00  0.00    +0.000 C 
ENDBRANCH  23  29
ENDBRANCH  20  23
ENDBRANCH   1  20
TORSDOF 5
ENDMDL
MODEL 3
REMARK VINA RESULT:      -8.8      2.935      4.048
REMARK  Name = 
REMARK  7 active torsions:
REMARK  status: ('A' for Active; 'I' for Inactive)
REMARK    1  A    between atoms: C_1  and  C_2
REMARK    2  A    between atoms: C_5  and  N_6
REMARK    3  A    between atoms: N_6  and  S_7
REMARK    4  A    between atoms: S_7  and  C_10
REMARK    5  A    between atoms: C_13  and  N_14
REMARK    6  A    between atoms: C_15  and  C_17
REMARK    7  A    between atoms: C_28  and  C_29
REMARK                            x       y       z     vdW  Elec       q    Type
REMARK                         _______ _______ _______ _____ _____    ______ ____
ROOT
ATOM      1  C   UNL     1       4.691   6.257  18.343  0.00  0.00    +0.000 A 
ATOM      2  C   UNL     1       4.369   6.995  17.207  0.00  0.00    +0.000 A 
ATOM      3  C   UNL     1       3.166   7.705  17.155  0.00  0.00    +0.000 A 
ATOM      4  C   UNL     1       2.265   7.692  18.219  0.00  0.00    +0.000 A 
ATOM      5  C   UNL     1       2.588   6.924  19.356  0.00  0.00    +0.000 A 
ATOM      6  C   UNL     1       3.804   6.213  19.422  0.00  0.00    +0.000 A 
ENDROOT
BRANCH   4   7
ATOM      7  N   UNL     1       1.041   8.410  18.203  0.00  0.00    +0.000 N 
ATOM      8  C   UNL     1       0.876   9.774  18.419  0.00  0.00    +0.000 C 
ATOM      9  O   UNL     1       1.778  10.554  18.713  0.00  0.00    +0.000 OA
ATOM     10  H   UNL     1       0.188   7.890  18.035  0.00  0.00    +0.000 HD
BRANCH   8  11
ATOM     11  C   UNL     1      -0.493  10.252  18.287  0.00  0.00    +0.000 A 
ATOM     12  C   UNL     1      -1.451   9.928  17.342  0.00  0.00    +0.000 A 
ATOM     13  C   UNL     1      -2.624  10.647  17.673  0.00  0.00    +0.000 A 
ATOM     14  C   UNL     1      -3.922  10.754  17.136  0.00  0.00    +0.000 A 
ATOM     15  C   UNL     1      -4.848  11.587  17.777  0.00  0.00    +0.000 A 
ATOM     16  C   UNL     1      -4.495  12.302  18.926  0.00  0.00    +0.000 A 
ATOM     17  C   UNL     1      -3.208  12.214  19.471  0.00  0.00    +0.000 A 
ATOM     18  C   UNL     1      -2.308  11.377  18.814  0.00  0.00    +0.000 A 
ATOM     19  O   UNL     1      -1.012  11.149  19.185  0.00  0.00    +0.000 OA
ENDBRANCH   8  11
ENDBRANCH   4   7
BRANCH   1  20
ATOM     20  S   UNL     1       6.263   5.411  18.373  0.00  0.00    +0.000 S 
ATOM     21  O   UNL     1       6.682   5.346  19.755  0.00  0.00    +0.000 OA
ATOM     22  O   UNL     1       7.084   5.994  17.334  0.00  0.00    +0.000 OA
BRANCH  20  23
ATOM     23  N   UNL     1       5.793   3.849  17.845  0.00  0.00    +0.000 N 
ATOM     24  H   UNL     1       6.622   3.259  17.924  0.00  0.00    +0.000 HD
BRANCH  23  29
ATOM     25  C   UNL     1       1.471   1.913  19.472  0.00  0.00    +0.000 C 
ATOM     26  C   UNL     1       2.860   2.428  19.371  0.00  0.00    +0.000 A 
ATOM     27  N   UNL     1       3.738   2.248  20.367  0.00  0.00    +0.000 NA
ATOM     28  O   UNL     1       4.934   2.789  19.912  0.00  0.00    +0.000 OA
ATOM     29  C   UNL     1       4.753   3.322  18.673  0.00  0.00    +0.000 A 
ATOM     30  C   UNL     1       3.456   3.102  18.269  0.00  0.00    +0.000 A 
ATOM     31  C   UNL     1       2.840   3.421  16.967  0.00  0.00    +0.000 C 
ENDBRANCH  23  29
ENDBRANCH  20  23
ENDBRANCH   1  20
TORSDOF 5
ENDMDL
MODEL 4
REMARK VINA RESULT:      -8.8      2.573      4.100
REMARK  Name = 
REMARK  7 active torsions:
REMARK  status: ('A' for Active; 'I' for Inactive)
REMARK    1  A    between atoms: C_1  and  C_2
REMARK    2  A    between atoms: C_5  and  N_6
REMARK    3  A    between atoms: N_6  and  S_7
REMARK    4  A    between atoms: S_7  and  C_10
REMARK    5  A    between atoms: C_13  and  N_14
REMARK    6  A    between atoms: C_15  and  C_17
REMARK    7  A    between atoms: C_28  and  C_29
REMARK                            x       y       z     vdW  Elec       q    Type
REMARK                         _______ _______ _______ _____ _____    ______ ____
ROOT
ATOM      1  C   UNL     1       4.700   5.780  18.384  0.00  0.00    +0.000 A 
ATOM      2  C   UNL     1       3.969   5.828  19.569  0.00  0.00    +0.000 A 
ATOM      3  C   UNL     1       2.842   6.649  19.660  0.00  0.00    +0.000 A 
ATOM      4  C   UNL     1       2.425   7.436  18.587  0.00  0.00    +0.000 A 
ATOM      5  C   UNL     1       3.183   7.400  17.400  0.00  0.00    +0.000 A 
ATOM      6  C   UNL     1       4.316   6.567  17.295  0.00  0.00    +0.000 A 
ENDROOT
BRANCH   4   7
ATOM      7  N   UNL     1       1.280   8.272  18.643  0.00  0.00    +0.000 N 
ATOM      8  C   UNL     1       1.221   9.623  18.315  0.00  0.00    +0.000 C 
ATOM      9  O   UNL     1       2.183  10.306  17.975  0.00  0.00    +0.000 OA
ATOM     10  H   UNL     1       0.410   7.865  18.969  0.00  0.00    +0.000 HD
BRANCH   8  11
ATOM     11  C   UNL     1      -0.103  10.218  18.415  0.00  0.00    +0.000 A 
ATOM     12  C   UNL     1      -1.220  10.019  17.621  0.00  0.00    +0.000 A 
ATOM     13  C   UNL     1      -2.259  10.817  18.155  0.00  0.00    +0.000 A 
ATOM     14  C   UNL     1      -3.610  11.057  17.831  0.00  0.00    +0.000 A 
ATOM     15  C   UNL     1      -4.347  11.935  18.636  0.00  0.00    +0.000 A 
ATOM     16  C   UNL     1      -3.761  12.564  19.737  0.00  0.00    +0.000 A 
ATOM     17  C   UNL     1      -2.418  12.344  20.071  0.00  0.00    +0.000 A 
ATOM     18  C   UNL     1      -1.708  11.466  19.255  0.00  0.00    +0.000 A 
ATOM     19  O   UNL     1      -0.396  11.114  19.411  0.00  0.00    +0.000 OA
ENDBRANCH   8  11
ENDBRANCH   4   7
BRANCH   1  20
ATOM     20  S   UNL     1       6.102   4.676  18.310  0.00  0.00    +0.000 S 
ATOM     21  O   UNL     1       7.144   5.260  19.125  0.00  0.00    +0.000 OA
ATOM     22  O   UNL     1       6.300   4.328  16.920  0.00  0.00    +0.000 OA
BRANCH  20  23
ATOM     23  N   UNL     1       5.463   3.297  19.102  0.00  0.00    +0.000 N 
ATOM     24  H   UNL     1       5.399   3.540  20.091  0.00  0.00    +0.000 HD
BRANCH  23  29
ATOM     25  C   UNL     1       0.550   2.385  18.754  0.00  0.00    +0.000 C 
ATOM     26  C   UNL     1       1.986   2.625  18.458  0.00  0.00    +0.000 A 
ATOM     27  N   UNL     1       2.408   2.836  17.204  0.00  0.00    +0.000 NA
ATOM     28  O   UNL     1       3.770   3.085  17.306  0.00  0.00    +0.000 OA
ATOM     29  C   UNL     1       4.159   2.981  18.606  0.00  0.00    +0.000 A 
ATOM     30  C   UNL     1       3.060   2.710  19.388  0.00  0.00    +0.000 A 
ATOM     31  C   UNL     1       2.990   2.606  20.858  0.00  0.00    +0.000 C 
ENDBRANCH  23  29
ENDBRANCH  20  23
ENDBRANCH   1  20
TORSDOF 5
ENDMDL
MODEL 5
REMARK VINA RESULT:      -8.8      0.597      1.141
REMARK  Name = 
REMARK  7 active torsions:
REMARK  status: ('A' for Active; 'I' for Inactive)
REMARK    1  A    between atoms: C_1  and  C_2
REMARK    2  A    between atoms: C_5  and  N_6
REMARK    3  A    between atoms: N_6  and  S_7
REMARK    4  A    between atoms: S_7  and  C_10
REMARK    5  A    between atoms: C_13  and  N_14
REMARK    6  A    between atoms: C_15  and  C_17
REMARK    7  A    between atoms: C_28  and  C_29
REMARK                            x       y       z     vdW  Elec       q    Type
REMARK                         _______ _______ _______ _____ _____    ______ ____
ROOT
ATOM      1  C   UNL     1       2.818   4.513  18.818  0.00  0.00    +0.000 A 
ATOM      2  C   UNL     1       2.849   5.601  17.950  0.00  0.00    +0.000 A 
ATOM      3  C   UNL     1       2.443   6.862  18.397  0.00  0.00    +0.000 A 
ATOM      4  C   UNL     1       1.998   7.063  19.703  0.00  0.00    +0.000 A 
ATOM      5  C   UNL     1       1.947   5.952  20.568  0.00  0.00    +0.000 A 
ATOM      6  C   UNL     1       2.365   4.679  20.129  0.00  0.00    +0.000 A 
ENDROOT
BRANCH   4   7
ATOM      7  N   UNL     1       1.589   8.331  20.192  0.00  0.00    +0.000 N 
ATOM      8  C   UNL     1       1.073   9.383  19.441  0.00  0.00    +0.000 C 
ATOM      9  O   UNL     1       0.947   9.380  18.220  0.00  0.00    +0.000 OA
ATOM     10  H   UNL     1       1.691   8.513  21.183  0.00  0.00    +0.000 HD
BRANCH   8  11
ATOM     11  C   UNL     1       0.685  10.552  20.216  0.00  0.00    +0.000 A 
ATOM     12  C   UNL     1      -0.298  10.682  21.181  0.00  0.00    +0.000 A 
ATOM     13  C   UNL     1      -0.255  12.018  21.646  0.00  0.00    +0.000 A 
ATOM     14  C   UNL     1      -0.962  12.773  22.602  0.00  0.00    +0.000 A 
ATOM     15  C   UNL     1      -0.606  14.114  22.796  0.00  0.00    +0.000 A 
ATOM     16  C   UNL     1       0.428  14.697  22.057  0.00  0.00    +0.000 A 
ATOM     17  C   UNL     1       1.138  13.965  21.096  0.00  0.00    +0.000 A 
ATOM     18  C   UNL     1       0.764  12.633  20.925  0.00  0.00    +0.000 A 
ATOM     19  O   UNL     1       1.331  11.751  20.048  0.00  0.00    +0.000 OA
ENDBRANCH   8  11
ENDBRANCH   4   7
BRANCH   1  20
ATOM     20  S   UNL     1       3.395   2.937  18.205  0.00  0.00    +0.000 S 
ATOM     21  O   UNL     1       2.331   2.384  17.396  0.00  0.00    +0.000 OA
ATOM     22  O   UNL     1       3.975   2.229  19.325  0.00  0.00    +0.000 OA
BRANCH  20  23
ATOM     23  N   UNL     1       4.680   3.443  17.191  0.00  0.00    +0.000 N 
ATOM     24  H   UNL     1       4.263   4.037  16.474  0.00  0.00    +0.000 HD
BRANCH  23  29
ATOM     25  C   UNL     1       8.031   6.896  18.579  0.00  0.00    +0.000 C 
ATOM     26  C   UNL     1       7.089   5.748  18.545  0.00  0.00    +0.000 A 
ATOM     27  N   UNL     1       6.735   5.112  19.669  0.00  0.00    +0.000 NA
ATOM     28  O   UNL     1       5.808   4.153  19.279  0.00  0.00    +0.000 OA
ATOM     29  C   UNL     1       5.647   4.196  17.929  0.00  0.00    +0.000 A 
ATOM     30  C   UNL     1       6.423   5.207  17.410  0.00  0.00    +0.000 A 
ATOM     31  C   UNL     1       6.495   5.678  16.014  0.00  0.00    +0.000 C 
ENDBRANCH  23  29
ENDBRANCH  20  23
ENDBRANCH   1  20
TORSDOF 5
ENDMDL
MODEL 6
REMARK VINA RESULT:      -8.8      3.053     10.074
REMARK  Name = 
REMARK  7 active torsions:
REMARK  status: ('A' for Active; 'I' for Inactive)
REMARK    1  A    between atoms: C_1  and  C_2
REMARK    2  A    between atoms: C_5  and  N_6
REMARK    3  A    between atoms: N_6  and  S_7
REMARK    4  A    between atoms: S_7  and  C_10
REMARK    5  A    between atoms: C_13  and  N_14
REMARK    6  A    between atoms: C_15  and  C_17
REMARK    7  A    between atoms: C_28  and  C_29
REMARK                            x       y       z     vdW  Elec       q    Type
REMARK                         _______ _______ _______ _____ _____    ______ ____
ROOT
ATOM      1  C   UNL     1       1.586   8.471  20.237  0.00  0.00    +0.000 A 
ATOM      2  C   UNL     1       2.002   7.151  20.393  0.00  0.00    +0.000 A 
ATOM      3  C   UNL     1       2.677   6.506  19.353  0.00  0.00    +0.000 A 
ATOM      4  C   UNL     1       2.946   7.152  18.147  0.00  0.00    +0.000 A 
ATOM      5  C   UNL     1       2.502   8.480  17.989  0.00  0.00    +0.000 A 
ATOM      6  C   UNL     1       1.829   9.142  19.037  0.00  0.00    +0.000 A 
ENDROOT
BRANCH   4   7
ATOM      7  N   UNL     1       3.639   6.530  17.076  0.00  0.00    +0.000 N 
ATOM      8  C   UNL     1       4.993   6.212  17.036  0.00  0.00    +0.000 C 
ATOM      9  O   UNL     1       5.804   6.480  17.918  0.00  0.00    +0.000 OA
ATOM     10  H   UNL     1       3.114   6.301  16.240  0.00  0.00    +0.000 HD
BRANCH   8  11
ATOM     11  C   UNL     1       5.423   5.526  15.827  0.00  0.00    +0.000 A 
ATOM     12  C   UNL     1       4.845   4.452  15.172  0.00  0.00    +0.000 A 
ATOM     13  C   UNL     1       5.640   4.180  14.033  0.00  0.00    +0.000 A 
ATOM     14  C   UNL     1       5.596   3.250  12.975  0.00  0.00    +0.000 A 
ATOM     15  C   UNL     1       6.590   3.307  11.989  0.00  0.00    +0.000 A 
ATOM     16  C   UNL     1       7.606   4.265  12.048  0.00  0.00    +0.000 A 
ATOM     17  C   UNL     1       7.670   5.194  13.095  0.00  0.00    +0.000 A 
ATOM     18  C   UNL     1       6.670   5.115  14.061  0.00  0.00    +0.000 A 
ATOM     19  O   UNL     1       6.549   5.928  15.155  0.00  0.00    +0.000 OA
ENDBRANCH   8  11
ENDBRANCH   4   7
BRANCH   1  20
ATOM     20  S   UNL     1       0.772   9.259  21.618  0.00  0.00    +0.000 S 
ATOM     21  O   UNL     1       1.710   9.257  22.719  0.00  0.00    +0.000 OA
ATOM     22  O   UNL     1      -0.552   8.686  21.718  0.00  0.00    +0.000 OA
BRANCH  20  23
ATOM     23  N   UNL     1       0.601  10.855  21.016  0.00  0.00    +0.000 N 
ATOM     24  H   UNL     1       0.396  10.765  20.021  0.00  0.00    +0.000 HD
BRANCH  23  29
ATOM     25  C   UNL     1      -3.829  12.966  22.018  0.00  0.00    +0.000 C 
ATOM     26  C   UNL     1      -2.451  12.420  22.108  0.00  0.00    +0.000 A 
ATOM     27  N   UNL     1      -1.848  12.257  23.293  0.00  0.00    +0.000 NA
ATOM     28  O   UNL     1      -0.619  11.674  23.010  0.00  0.00    +0.000 OA
ATOM     29  C   UNL     1      -0.480  11.532  21.664  0.00  0.00    +0.000 A 
ATOM     30  C   UNL     1      -1.625  11.972  21.040  0.00  0.00    +0.000 A 
ATOM     31  C   UNL     1      -1.957  11.922  19.603  0.00  0.00    +0.000 C 
ENDBRANCH  23  29
ENDBRANCH  20  23
ENDBRANCH   1  20
TORSDOF 5
ENDMDL
MODEL 7
REMARK VINA RESULT:      -8.7      1.219      1.754
REMARK  Name = 
REMARK  7 active torsions:
REMARK  status: ('A' for Active; 'I' for Inactive)
REMARK    1  A    between atoms: C_1  and  C_2
REMARK    2  A    between atoms: C_5  and  N_6
REMARK    3  A    between atoms: N_6  and  S_7
REMARK    4  A    between atoms: S_7  and  C_10
REMARK    5  A    between atoms: C_13  and  N_14
REMARK    6  A    between atoms: C_15  and  C_17
REMARK    7  A    between atoms: C_28  and  C_29
REMARK                            x       y       z     vdW  Elec       q    Type
REMARK                         _______ _______ _______ _____ _____    ______ ____
ROOT
ATOM      1  C   UNL     1       3.281   4.706  18.743  0.00  0.00    +0.000 A 
ATOM      2  C   UNL     1       2.986   5.791  17.922  0.00  0.00    +0.000 A 
ATOM      3  C   UNL     1       2.402   6.938  18.467  0.00  0.00    +0.000 A 
ATOM      4  C   UNL     1       2.098   7.026  19.825  0.00  0.00    +0.000 A 
ATOM      5  C   UNL     1       2.379   5.915  20.644  0.00  0.00    +0.000 A 
ATOM      6  C   UNL     1       2.978   4.757  20.105  0.00  0.00    +0.000 A 
ENDROOT
BRANCH   4   7
ATOM      7  N   UNL     1       1.515   8.180  20.412  0.00  0.00    +0.000 N 
ATOM      8  C   UNL     1       1.220   9.379  19.770  0.00  0.00    +0.000 C 
ATOM      9  O   UNL     1       1.477   9.629  18.596  0.00  0.00    +0.000 OA
ATOM     10  H   UNL     1       1.300   8.152  21.402  0.00  0.00    +0.000 HD
BRANCH   8  11
ATOM     11  C   UNL     1       0.572  10.376  20.609  0.00  0.00    +0.000 A 
ATOM     12  C   UNL     1      -0.362  10.206  21.616  0.00  0.00    +0.000 A 
ATOM     13  C   UNL     1      -0.654  11.490  22.135  0.00  0.00    +0.000 A 
ATOM     14  C   UNL     1      -1.490  11.998  23.150  0.00  0.00    +0.000 A 
ATOM     15  C   UNL     1      -1.495  13.378  23.388  0.00  0.00    +0.000 A 
ATOM     16  C   UNL     1      -0.692  14.240  22.635  0.00  0.00    +0.000 A 
ATOM     17  C   UNL     1       0.140  13.755  21.618  0.00  0.00    +0.000 A 
ATOM     18  C   UNL     1       0.127  12.379  21.403  0.00  0.00    +0.000 A 
ATOM     19  O   UNL     1       0.866  11.708  20.468  0.00  0.00    +0.000 OA
ENDBRANCH   8  11
ENDBRANCH   4   7
BRANCH   1  20
ATOM     20  S   UNL     1       4.072   3.287  18.000  0.00  0.00    +0.000 S 
ATOM     21  O   UNL     1       3.832   3.367  16.576  0.00  0.00    +0.000 OA
ATOM     22  O   UNL     1       3.709   2.131  18.790  0.00  0.00    +0.000 OA
BRANCH  20  23
ATOM     23  N   UNL     1       5.719   3.636  18.322  0.00  0.00    +0.000 N 
ATOM     24  H   UNL     1       6.262   2.911  17.853  0.00  0.00    +0.000 HD
BRANCH  23  29
ATOM     25  C   UNL     1       7.913   8.079  17.594  0.00  0.00    +0.000 C 
ATOM     26  C   UNL     1       7.087   6.852  17.461  0.00  0.00    +0.000 A 
ATOM     27  N   UNL     1       6.450   6.567  16.317  0.00  0.00    +0.000 NA
ATOM     28  O   UNL     1       5.841   5.336  16.525  0.00  0.00    +0.000 OA
ATOM     29  C   UNL     1       6.082   4.916  17.796  0.00  0.00    +0.000 A 
ATOM     30  C   UNL     1       6.887   5.832  18.433  0.00  0.00    +0.000 A 
ATOM     31  C   UNL     1       7.475   5.747  19.784  0.00  0.00    +0.000 C 
ENDBRANCH  23  29
ENDBRANCH  20  23
ENDBRANCH   1  20
TORSDOF 5
ENDMDL
MODEL 8
REMARK VINA RESULT:      -8.7      2.878      9.956
REMARK  Name = 
REMARK  7 active torsions:
REMARK  status: ('A' for Active; 'I' for Inactive)
REMARK    1  A    between atoms: C_1  and  C_2
REMARK    2  A    between atoms: C_5  and  N_6
REMARK    3  A    between atoms: N_6  and  S_7
REMARK    4  A    between atoms: S_7  and  C_10
REMARK    5  A    between atoms: C_13  and  N_14
REMARK    6  A    between atoms: C_15  and  C_17
REMARK    7  A    between atoms: C_28  and  C_29
REMARK                            x       y       z     vdW  Elec       q    Type
REMARK                         _______ _______ _______ _____ _____    ______ ____
ROOT
ATOM      1  C   UNL     1       1.313   8.329  20.397  0.00  0.00    +0.000 A 
ATOM      2  C   UNL     1       1.814   7.039  20.557  0.00  0.00    +0.000 A 
ATOM      3  C   UNL     1       2.555   6.447  19.531  0.00  0.00    +0.000 A 
ATOM      4  C   UNL     1       2.808   7.117  18.334  0.00  0.00    +0.000 A 
ATOM      5  C   UNL     1       2.278   8.412  18.171  0.00  0.00    +0.000 A 
ATOM      6  C   UNL     1       1.538   9.022  19.205  0.00  0.00    +0.000 A 
ENDROOT
BRANCH   4   7
ATOM      7  N   UNL     1       3.565   6.549  17.277  0.00  0.00    +0.000 N 
ATOM      8  C   UNL     1       4.819   5.954  17.380  0.00  0.00    +0.000 C 
ATOM      9  O   UNL     1       5.480   5.883  18.412  0.00  0.00    +0.000 OA
ATOM     10  H   UNL     1       3.177   6.586  16.342  0.00  0.00    +0.000 HD
BRANCH   8  11
ATOM     11  C   UNL     1       5.338   5.404  16.137  0.00  0.00    +0.000 A 
ATOM     12  C   UNL     1       4.839   4.379  15.351  0.00  0.00    +0.000 A 
ATOM     13  C   UNL     1       5.701   4.249  14.237  0.00  0.00    +0.000 A 
ATOM     14  C   UNL     1       5.750   3.426  13.094  0.00  0.00    +0.000 A 
ATOM     15  C   UNL     1       6.789   3.615  12.174  0.00  0.00    +0.000 A 
ATOM     16  C   UNL     1       7.761   4.598  12.381  0.00  0.00    +0.000 A 
ATOM     17  C   UNL     1       7.733   5.422  13.513  0.00  0.00    +0.000 A 
ATOM     18  C   UNL     1       6.689   5.213  14.411  0.00  0.00    +0.000 A 
ATOM     19  O   UNL     1       6.479   5.910  15.569  0.00  0.00    +0.000 OA
ENDBRANCH   8  11
ENDBRANCH   4   7
BRANCH   1  20
ATOM     20  S   UNL     1       0.416   9.053  21.761  0.00  0.00    +0.000 S 
ATOM     21  O   UNL     1       1.394   9.428  22.759  0.00  0.00    +0.000 OA
ATOM     22  O   UNL     1      -0.701   8.181  22.051  0.00  0.00    +0.000 OA
BRANCH  20  23
ATOM     23  N   UNL     1      -0.209  10.464  21.017  0.00  0.00    +0.000 N 
ATOM     24  H   UNL     1      -1.038  10.171  20.499  0.00  0.00    +0.000 HD
BRANCH  23  29
ATOM     25  C   UNL     1      -1.086  14.779  23.404  0.00  0.00    +0.000 C 
ATOM     26  C   UNL     1      -1.003  13.346  23.021  0.00  0.00    +0.000 A 
ATOM     27  N   UNL     1      -1.668  12.408  23.707  0.00  0.00    +0.000 NA
ATOM     28  O   UNL     1      -1.420  11.213  23.044  0.00  0.00    +0.000 OA
ATOM     29  C   UNL     1      -0.581  11.438  21.997  0.00  0.00    +0.000 A 
ATOM     30  C   UNL     1      -0.298  12.782  21.921  0.00  0.00    +0.000 A 
ATOM     31  C   UNL     1       0.490  13.493  20.896  0.00  0.00    +0.000 C 
ENDBRANCH  23  29
ENDBRANCH  20  23
ENDBRANCH   1  20
TORSDOF 5
ENDMDL
MODEL 9
REMARK VINA RESULT:      -8.7      1.314      1.853
REMARK  Name = 
REMARK  7 active torsions:
REMARK  status: ('A' for Active; 'I' for Inactive)
REMARK    1  A    between atoms: C_1  and  C_2
REMARK    2  A    between atoms: C_5  and  N_6
REMARK    3  A    between atoms: N_6  and  S_7
REMARK    4  A    between atoms: S_7  and  C_10
REMARK    5  A    between atoms: C_13  and  N_14
REMARK    6  A    between atoms: C_15  and  C_17
REMARK    7  A    between atoms: C_28  and  C_29
REMARK                            x       y       z     vdW  Elec       q    Type
REMARK                         _______ _______ _______ _____ _____    ______ ____
ROOT
ATOM      1  C   UNL     1       3.427   4.628  18.648  0.00  0.00    +0.000 A 
ATOM      2  C   UNL     1       2.437   5.066  17.773  0.00  0.00    +0.000 A 
ATOM      3  C   UNL     1       1.870   6.333  17.939  0.00  0.00    +0.000 A 
ATOM      4  C   UNL     1       2.271   7.181  18.971  0.00  0.00    +0.000 A 
ATOM      5  C   UNL     1       3.257   6.721  19.866  0.00  0.00    +0.000 A 
ATOM      6  C   UNL     1       3.841   5.449  19.701  0.00  0.00    +0.000 A 
ENDROOT
BRANCH   4   7
ATOM      7  N   UNL     1       1.724   8.477  19.160  0.00  0.00    +0.000 N 
ATOM      8  C   UNL     1       1.028   8.929  20.277  0.00  0.00    +0.000 C 
ATOM      9  O   UNL     1       0.739   8.240  21.252  0.00  0.00    +0.000 OA
ATOM     10  H   UNL     1       1.826   9.150  18.410  0.00  0.00    +0.000 HD
BRANCH   8  11
ATOM     11  C   UNL     1       0.628  10.327  20.222  0.00  0.00    +0.000 A 
ATOM     12  C   UNL     1       0.127  11.139  21.225  0.00  0.00    +0.000 A 
ATOM     13  C   UNL     1      -0.080  12.420  20.661  0.00  0.00    +0.000 A 
ATOM     14  C   UNL     1      -0.548  13.663  21.133  0.00  0.00    +0.000 A 
ATOM     15  C   UNL     1      -0.596  14.744  20.243  0.00  0.00    +0.000 A 
ATOM     16  C   UNL     1      -0.191  14.599  18.914  0.00  0.00    +0.000 A 
ATOM     17  C   UNL     1       0.270  13.370  18.424  0.00  0.00    +0.000 A 
ATOM     18  C   UNL     1       0.309  12.312  19.330  0.00  0.00    +0.000 A 
ATOM     19  O   UNL     1       0.730  11.040  19.055  0.00  0.00    +0.000 OA
ENDBRANCH   8  11
ENDBRANCH   4   7
BRANCH   1  20
ATOM     20  S   UNL     1       4.149   3.020  18.358  0.00  0.00    +0.000 S 
ATOM     21  O   UNL     1       3.082   2.153  17.909  0.00  0.00    +0.000 OA
ATOM     22  O   UNL     1       4.980   2.711  19.501  0.00  0.00    +0.000 OA
BRANCH  20  23
ATOM     23  N   UNL     1       5.190   3.373  17.043  0.00  0.00    +0.000 N 
ATOM     24  H   UNL     1       4.593   3.712  16.289  0.00  0.00    +0.000 HD
BRANCH  23  29
ATOM     25  C   UNL     1       7.573   7.751  17.526  0.00  0.00    +0.000 C 
ATOM     26  C   UNL     1       7.151   6.331  17.638  0.00  0.00    +0.000 A 
ATOM     27  N   UNL     1       7.677   5.525  18.569  0.00  0.00    +0.000 NA
ATOM     28  O   UNL     1       7.016   4.311  18.429  0.00  0.00    +0.000 OA
ATOM     29  C   UNL     1       6.134   4.388  17.396  0.00  0.00    +0.000 A 
ATOM     30  C   UNL     1       6.162   5.658  16.868  0.00  0.00    +0.000 A 
ATOM     31  C   UNL     1       5.313   6.222  15.801  0.00  0.00    +0.000 C 
ENDBRANCH  23  29
ENDBRANCH  20  23
ENDBRANCH   1  20
TORSDOF 5
ENDMDL
