MODEL 1
REMARK VINA RESULT:      -9.4      0.000      0.000
REMARK  Name = 
REMARK  4 active torsions:
REMARK  status: ('A' for Active; 'I' for Inactive)
REMARK    1  A    between atoms: C_6  and  C_7
REMARK    2  A    between atoms: C_7  and  C_8
REMARK    3  A    between atoms: C_8  and  C_9
REMARK    4  A    between atoms: C_9  and  C_10
REMARK                            x       y       z     vdW  Elec       q    Type
REMARK                         _______ _______ _______ _____ _____    ______ ____
ROOT
ATOM      1  C   UNL     1       2.184   7.549  19.491  0.00  0.00    +0.000 C 
ATOM      2  O   UNL     1       2.251   8.515  18.723  0.00  0.00    +0.000 OA
ATOM      3  N   UNL     1       2.875   6.386  19.223  0.00  0.00    +0.000 N 
ATOM      4  C   UNL     1       3.826   6.373  18.103  0.00  0.00    +0.000 C 
ATOM      5  C   UNL     1       4.527   4.994  18.093  0.00  0.00    +0.000 C 
ATOM      6  C   UNL     1       6.056   5.113  18.301  0.00  0.00    +0.000 C 
ATOM      7  C   UNL     1       6.696   4.466  17.074  0.00  0.00    +0.000 C 
ATOM      8  C   UNL     1       5.640   4.575  15.990  0.00  0.00    +0.000 C 
ATOM      9  C   UNL     1       4.349   4.282  16.739  0.00  0.00    +0.000 C 
ATOM     10  C   UNL     1       3.820   4.297  19.229  0.00  0.00    +0.000 A 
ATOM     11  C   UNL     1       4.027   2.994  19.677  0.00  0.00    +0.000 A 
ATOM     12  C   UNL     1       3.259   2.514  20.737  0.00  0.00    +0.000 A 
ATOM     13  C   UNL     1       2.293   3.329  21.329  0.00  0.00    +0.000 A 
ATOM     14  C   UNL     1       2.096   4.637  20.879  0.00  0.00    +0.000 A 
ATOM     15  C   UNL     1       2.873   5.125  19.840  0.00  0.00    +0.000 A 
ENDROOT
BRANCH   1  16
ATOM     16  C   UNL     1       1.374   7.636  20.766  0.00  0.00    +0.000 C 
BRANCH  16  17
ATOM     17  C   UNL     1       1.444   9.026  21.389  0.00  0.00    +0.000 C 
BRANCH  17  18
ATOM     18  C   UNL     1       0.047   9.607  21.597  0.00  0.00    +0.000 C 
BRANCH  18  24
ATOM     19  O   UNL     1      -3.086  11.174  15.165  0.00  0.00    +0.000 OA
ATOM     20  C   UNL     1      -2.524  11.076  16.247  0.00  0.00    +0.000 C 
ATOM     21  C   UNL     1      -2.413   9.811  17.107  0.00  0.00    +0.000 C 
ATOM     22  C   UNL     1      -1.619  10.301  18.280  0.00  0.00    +0.000 A 
ATOM     23  C   UNL     1      -1.184   9.618  19.399  0.00  0.00    +0.000 A 
ATOM     24  C   UNL     1      -0.436  10.321  20.357  0.00  0.00    +0.000 A 
ATOM     25  C   UNL     1      -0.165  11.697  20.176  0.00  0.00    +0.000 A 
ATOM     26  C   UNL     1      -0.613  12.375  19.039  0.00  0.00    +0.000 A 
ATOM     27  C   UNL     1      -1.328  11.652  18.115  0.00  0.00    +0.000 A 
ATOM     28  N   UNL     1      -1.866  12.098  16.917  0.00  0.00    +0.000 N 
ATOM     29  H   UNL     1      -1.799  13.039  16.557  0.00  0.00    +0.000 HD
ENDBRANCH  18  24
ENDBRANCH  17  18
ENDBRANCH  16  17
ENDBRANCH   1  16
TORSDOF 4
ENDMDL
MODEL 2
REMARK VINA RESULT:      -9.2      2.231      8.189
REMARK  Name = 
REMARK  4 active torsions:
REMARK  status: ('A' for Active; 'I' for Inactive)
REMARK    1  A    between atoms: C_6  and  C_7
REMARK    2  A    between atoms: C_7  and  C_8
REMARK    3  A    between atoms: C_8  and  C_9
REMARK    4  A    between atoms: C_9  and  C_10
REMARK                            x       y       z     vdW  Elec       q    Type
REMARK                         _______ _______ _______ _____ _____    ______ ____
ROOT
ATOM      1  C   UNL     1       2.215   7.942  18.690  0.00  0.00    +0.000 C 
ATOM      2  O   UNL     1       2.587   7.987  17.513  0.00  0.00    +0.000 OA
ATOM      3  N   UNL     1       1.327   8.874  19.185  0.00  0.00    +0.000 N 
ATOM      4  C   UNL     1       0.701   9.817  18.248  0.00  0.00    +0.000 C 
ATOM      5  C   UNL     1      -0.314  10.671  19.044  0.00  0.00    +0.000 C 
ATOM      6  C   UNL     1      -1.762  10.491  18.529  0.00  0.00    +0.000 C 
ATOM      7  C   UNL     1      -2.238  11.886  18.126  0.00  0.00    +0.000 C 
ATOM      8  C   UNL     1      -0.964  12.652  17.823  0.00  0.00    +0.000 C 
ATOM      9  C   UNL     1      -0.012  12.176  18.909  0.00  0.00    +0.000 C 
ATOM     10  C   UNL     1      -0.106  10.147  20.443  0.00  0.00    +0.000 A 
ATOM     11  C   UNL     1      -0.748  10.569  21.605  0.00  0.00    +0.000 A 
ATOM     12  C   UNL     1      -0.408   9.973  22.819  0.00  0.00    +0.000 A 
ATOM     13  C   UNL     1       0.569   8.977  22.864  0.00  0.00    +0.000 A 
ATOM     14  C   UNL     1       1.203   8.554  21.692  0.00  0.00    +0.000 A 
ATOM     15  C   UNL     1       0.851   9.127  20.481  0.00  0.00    +0.000 A 
ENDROOT
BRANCH   1  16
ATOM     16  C   UNL     1       2.691   6.835  19.605  0.00  0.00    +0.000 C 
BRANCH  16  17
ATOM     17  C   UNL     1       2.154   5.473  19.176  0.00  0.00    +0.000 C 
BRANCH  17  18
ATOM     18  C   UNL     1       3.190   4.376  19.404  0.00  0.00    +0.000 C 
BRANCH  18  24
ATOM     19  O   UNL     1       7.453   5.043  13.485  0.00  0.00    +0.000 OA
ATOM     20  C   UNL     1       6.880   4.960  14.563  0.00  0.00    +0.000 C 
ATOM     21  C   UNL     1       5.376   4.757  14.786  0.00  0.00    +0.000 C 
ATOM     22  C   UNL     1       5.285   4.723  16.281  0.00  0.00    +0.000 A 
ATOM     23  C   UNL     1       4.181   4.554  17.095  0.00  0.00    +0.000 A 
ATOM     24  C   UNL     1       4.376   4.549  18.486  0.00  0.00    +0.000 A 
ATOM     25  C   UNL     1       5.672   4.736  19.021  0.00  0.00    +0.000 A 
ATOM     26  C   UNL     1       6.778   4.907  18.186  0.00  0.00    +0.000 A 
ATOM     27  C   UNL     1       6.553   4.890  16.831  0.00  0.00    +0.000 A 
ATOM     28  N   UNL     1       7.483   5.031  15.811  0.00  0.00    +0.000 N 
ATOM     29  H   UNL     1       8.476   5.166  15.937  0.00  0.00    +0.000 HD
ENDBRANCH  18  24
ENDBRANCH  17  18
ENDBRANCH  16  17
ENDBRANCH   1  16
TORSDOF 4
ENDMDL
MODEL 3
REMARK VINA RESULT:      -9.1      1.822      3.372
REMARK  Name = 
REMARK  4 active torsions:
REMARK  status: ('A' for Active; 'I' for Inactive)
REMARK    1  A    between atoms: C_6  and  C_7
REMARK    2  A    between atoms: C_7  and  C_8
REMARK    3  A    between atoms: C_8  and  C_9
REMARK    4  A    between atoms: C_9  and  C_10
REMARK                            x       y       z     vdW  Elec       q    Type
REMARK                         _______ _______ _______ _____ _____    ______ ____
ROOT
ATOM      1  C   UNL     1       2.588   7.357  18.810  0.00  0.00    +0.000 C 
ATOM      2  O   UNL     1       1.981   7.381  19.886  0.00  0.00    +0.000 OA
ATOM      3  N   UNL     1       3.230   6.212  18.388  0.00  0.00    +0.000 N 
ATOM      4  C   UNL     1       3.038   4.973  19.153  0.00  0.00    +0.000 C 
ATOM      5  C   UNL     1       3.779   3.837  18.409  0.00  0.00    +0.000 C 
ATOM      6  C   UNL     1       2.818   2.716  17.946  0.00  0.00    +0.000 C 
ATOM      7  C   UNL     1       3.329   1.432  18.597  0.00  0.00    +0.000 C 
ATOM      8  C   UNL     1       4.092   1.902  19.822  0.00  0.00    +0.000 C 
ATOM      9  C   UNL     1       4.810   3.145  19.322  0.00  0.00    +0.000 C 
ATOM     10  C   UNL     1       4.409   4.595  17.268  0.00  0.00    +0.000 A 
ATOM     11  C   UNL     1       5.227   4.081  16.264  0.00  0.00    +0.000 A 
ATOM     12  C   UNL     1       5.735   4.947  15.297  0.00  0.00    +0.000 A 
ATOM     13  C   UNL     1       5.432   6.309  15.344  0.00  0.00    +0.000 A 
ATOM     14  C   UNL     1       4.605   6.816  16.350  0.00  0.00    +0.000 A 
ATOM     15  C   UNL     1       4.079   5.955  17.300  0.00  0.00    +0.000 A 
ENDROOT
BRANCH   1  16
ATOM     16  C   UNL     1       2.604   8.573  17.910  0.00  0.00    +0.000 C 
BRANCH  16  17
ATOM     17  C   UNL     1       1.226   9.218  17.803  0.00  0.00    +0.000 C 
BRANCH  17  18
ATOM     18  C   UNL     1       1.132  10.466  18.676  0.00  0.00    +0.000 C 
BRANCH  18  24
ATOM     19  O   UNL     1      -6.069  11.358  17.678  0.00  0.00    +0.000 OA
ATOM     20  C   UNL     1      -4.877  11.335  17.956  0.00  0.00    +0.000 C 
ATOM     21  C   UNL     1      -3.834  10.345  17.422  0.00  0.00    +0.000 C 
ATOM     22  C   UNL     1      -2.582  10.819  18.096  0.00  0.00    +0.000 A 
ATOM     23  C   UNL     1      -1.292  10.333  18.007  0.00  0.00    +0.000 A 
ATOM     24  C   UNL     1      -0.286  10.978  18.744  0.00  0.00    +0.000 A 
ATOM     25  C   UNL     1      -0.608  12.081  19.569  0.00  0.00    +0.000 A 
ATOM     26  C   UNL     1      -1.918  12.561  19.651  0.00  0.00    +0.000 A 
ATOM     27  C   UNL     1      -2.873  11.915  18.903  0.00  0.00    +0.000 A 
ATOM     28  N   UNL     1      -4.226  12.209  18.815  0.00  0.00    +0.000 N 
ATOM     29  H   UNL     1      -4.697  12.958  19.301  0.00  0.00    +0.000 HD
ENDBRANCH  18  24
ENDBRANCH  17  18
ENDBRANCH  16  17
ENDBRANCH   1  16
TORSDOF 4
ENDMDL
MODEL 4
REMARK VINA RESULT:      -9.1      1.352      1.761
REMARK  Name = 
REMARK  4 active torsions:
REMARK  status: ('A' for Active; 'I' for Inactive)
REMARK    1  A    between atoms: C_6  and  C_7
REMARK    2  A    between atoms: C_7  and  C_8
REMARK    3  A    between atoms: C_8  and  C_9
REMARK    4  A    between atoms: C_9  and  C_10
REMARK                            x       y       z     vdW  Elec       q    Type
REMARK                         _______ _______ _______ _____ _____    ______ ____
ROOT
ATOM      1  C   UNL     1       2.376   8.353  18.143  0.00  0.00    +0.000 C 
ATOM      2  O   UNL     1       2.600   9.115  17.197  0.00  0.00    +0.000 OA
ATOM      3  N   UNL     1       3.031   7.144  18.245  0.00  0.00    +0.000 N 
ATOM      4  C   UNL     1       4.123   6.853  17.307  0.00  0.00    +0.000 C 
ATOM      5  C   UNL     1       4.742   5.493  17.707  0.00  0.00    +0.000 C 
ATOM      6  C   UNL     1       6.233   5.621  18.102  0.00  0.00    +0.000 C 
ATOM      7  C   UNL     1       6.996   4.696  17.157  0.00  0.00    +0.000 C 
ATOM      8  C   UNL     1       6.105   4.578  15.935  0.00  0.00    +0.000 C 
ATOM      9  C   UNL     1       4.711   4.494  16.535  0.00  0.00    +0.000 C 
ATOM     10  C   UNL     1       3.850   5.091  18.856  0.00  0.00    +0.000 A 
ATOM     11  C   UNL     1       3.922   3.922  19.610  0.00  0.00    +0.000 A 
ATOM     12  C   UNL     1       2.992   3.716  20.628  0.00  0.00    +0.000 A 
ATOM     13  C   UNL     1       2.001   4.667  20.876  0.00  0.00    +0.000 A 
ATOM     14  C   UNL     1       1.940   5.840  20.120  0.00  0.00    +0.000 A 
ATOM     15  C   UNL     1       2.876   6.060  19.123  0.00  0.00    +0.000 A 
ENDROOT
BRANCH   1  16
ATOM     16  C   UNL     1       1.407   8.749  19.236  0.00  0.00    +0.000 C 
BRANCH  16  17
ATOM     17  C   UNL     1       1.043  10.229  19.163  0.00  0.00    +0.000 C 
BRANCH  17  18
ATOM     18  C   UNL     1      -0.309  10.496  19.820  0.00  0.00    +0.000 C 
BRANCH  18  24
ATOM     19  O   UNL     1      -4.314  10.010  13.707  0.00  0.00    +0.000 OA
ATOM     20  C   UNL     1      -3.772  10.183  14.791  0.00  0.00    +0.000 C 
ATOM     21  C   UNL     1      -2.432   9.591  15.246  0.00  0.00    +0.000 C 
ATOM     22  C   UNL     1      -2.294  10.158  16.626  0.00  0.00    +0.000 A 
ATOM     23  C   UNL     1      -1.281   9.996  17.550  0.00  0.00    +0.000 A 
ATOM     24  C   UNL     1      -1.394  10.659  18.783  0.00  0.00    +0.000 A 
ATOM     25  C   UNL     1      -2.534  11.448  19.063  0.00  0.00    +0.000 A 
ATOM     26  C   UNL     1      -3.553  11.602  18.118  0.00  0.00    +0.000 A 
ATOM     27  C   UNL     1      -3.400  10.952  16.917  0.00  0.00    +0.000 A 
ATOM     28  N   UNL     1      -4.264  10.958  15.831  0.00  0.00    +0.000 N 
ATOM     29  H   UNL     1      -5.141  11.457  15.781  0.00  0.00    +0.000 HD
ENDBRANCH  18  24
ENDBRANCH  17  18
ENDBRANCH  16  17
ENDBRANCH   1  16
TORSDOF 4
ENDMDL
MODEL 5
REMARK VINA RESULT:      -9.1      5.980      8.704
REMARK  Name = 
REMARK  4 active torsions:
REMARK  status: ('A' for Active; 'I' for Inactive)
REMARK    1  A    between atoms: C_6  and  C_7
REMARK    2  A    between atoms: C_7  and  C_8
REMARK    3  A    between atoms: C_8  and  C_9
REMARK    4  A    between atoms: C_9  and  C_10
REMARK                            x       y       z     vdW  Elec       q    Type
REMARK                         _______ _______ _______ _____ _____    ______ ____
ROOT
ATOM      1  C   UNL     1       7.140   5.578  18.983  0.00  0.00    +0.000 C 
ATOM      2  O   UNL     1       7.068   5.495  20.213  0.00  0.00    +0.000 OA
ATOM      3  N   UNL     1       6.230   4.927  18.177  0.00  0.00    +0.000 N 
ATOM      4  C   UNL     1       5.074   4.274  18.805  0.00  0.00    +0.000 C 
ATOM      5  C   UNL     1       4.174   3.717  17.677  0.00  0.00    +0.000 C 
ATOM      6  C   UNL     1       2.763   4.354  17.684  0.00  0.00    +0.000 C 
ATOM      7  C   UNL     1       1.782   3.194  17.840  0.00  0.00    +0.000 C 
ATOM      8  C   UNL     1       2.587   2.101  18.518  0.00  0.00    +0.000 C 
ATOM      9  C   UNL     1       3.943   2.203  17.836  0.00  0.00    +0.000 C 
ATOM     10  C   UNL     1       4.983   4.070  16.454  0.00  0.00    +0.000 A 
ATOM     11  C   UNL     1       4.669   3.791  15.126  0.00  0.00    +0.000 A 
ATOM     12  C   UNL     1       5.557   4.182  14.125  0.00  0.00    +0.000 A 
ATOM     13  C   UNL     1       6.746   4.835  14.456  0.00  0.00    +0.000 A 
ATOM     14  C   UNL     1       7.050   5.118  15.790  0.00  0.00    +0.000 A 
ATOM     15  C   UNL     1       6.160   4.751  16.787  0.00  0.00    +0.000 A 
ENDROOT
BRANCH   1  16
ATOM     16  C   UNL     1       8.205   6.434  18.332  0.00  0.00    +0.000 C 
BRANCH  16  17
ATOM     17  C   UNL     1       8.382   7.766  19.053  0.00  0.00    +0.000 C 
BRANCH  17  18
ATOM     18  C   UNL     1       8.228   8.939  18.088  0.00  0.00    +0.000 C 
BRANCH  18  24
ATOM     19  O   UNL     1      12.283  15.038  18.153  0.00  0.00    +0.000 OA
ATOM     20  C   UNL     1      11.615  14.024  18.310  0.00  0.00    +0.000 C 
ATOM     21  C   UNL     1      10.937  13.197  17.210  0.00  0.00    +0.000 C 
ATOM     22  C   UNL     1      10.295  12.097  17.999  0.00  0.00    +0.000 A 
ATOM     23  C   UNL     1       9.542  11.023  17.566  0.00  0.00    +0.000 A 
ATOM     24  C   UNL     1       9.062  10.118  18.527  0.00  0.00    +0.000 A 
ATOM     25  C   UNL     1       9.334  10.329  19.899  0.00  0.00    +0.000 A 
ATOM     26  C   UNL     1      10.096  11.421  20.322  0.00  0.00    +0.000 A 
ATOM     27  C   UNL     1      10.563  12.276  19.354  0.00  0.00    +0.000 A 
ATOM     28  N   UNL     1      11.338  13.414  19.525  0.00  0.00    +0.000 N 
ATOM     29  H   UNL     1      11.672  13.770  20.410  0.00  0.00    +0.000 HD
ENDBRANCH  18  24
ENDBRANCH  17  18
ENDBRANCH  16  17
ENDBRANCH   1  16
TORSDOF 4
ENDMDL
MODEL 6
REMARK VINA RESULT:      -9.0      2.122      8.202
REMARK  Name = 
REMARK  4 active torsions:
REMARK  status: ('A' for Active; 'I' for Inactive)
REMARK    1  A    between atoms: C_6  and  C_7
REMARK    2  A    between atoms: C_7  and  C_8
REMARK    3  A    between atoms: C_8  and  C_9
REMARK    4  A    between atoms: C_9  and  C_10
REMARK                            x       y       z     vdW  Elec       q    Type
REMARK                         _______ _______ _______ _____ _____    ______ ____
ROOT
ATOM      1  C   UNL     1       1.976   7.900  19.495  0.00  0.00    +0.000 C 
ATOM      2  O   UNL     1       2.462   7.779  18.366  0.00  0.00    +0.000 OA
ATOM      3  N   UNL     1       1.116   8.937  19.786  0.00  0.00    +0.000 N 
ATOM      4  C   UNL     1       0.652   9.797  18.689  0.00  0.00    +0.000 C 
ATOM      5  C   UNL     1      -0.369  10.801  19.274  0.00  0.00    +0.000 C 
ATOM      6  C   UNL     1      -1.771  10.649  18.637  0.00  0.00    +0.000 C 
ATOM      7  C   UNL     1      -2.105  12.011  18.030  0.00  0.00    +0.000 C 
ATOM      8  C   UNL     1      -0.755  12.655  17.774  0.00  0.00    +0.000 C 
ATOM      9  C   UNL     1       0.052  12.257  18.999  0.00  0.00    +0.000 C 
ATOM     10  C   UNL     1      -0.334  10.438  20.738  0.00  0.00    +0.000 A 
ATOM     11  C   UNL     1      -1.051  11.035  21.772  0.00  0.00    +0.000 A 
ATOM     12  C   UNL     1      -0.872  10.570  23.074  0.00  0.00    +0.000 A 
ATOM     13  C   UNL     1       0.021   9.529  23.332  0.00  0.00    +0.000 A 
ATOM     14  C   UNL     1       0.731   8.930  22.288  0.00  0.00    +0.000 A 
ATOM     15  C   UNL     1       0.539   9.373  20.989  0.00  0.00    +0.000 A 
ENDROOT
BRANCH   1  16
ATOM     16  C   UNL     1       2.282   6.884  20.575  0.00  0.00    +0.000 C 
BRANCH  16  17
ATOM     17  C   UNL     1       1.329   5.694  20.520  0.00  0.00    +0.000 C 
BRANCH  17  18
ATOM     18  C   UNL     1       2.093   4.374  20.588  0.00  0.00    +0.000 C 
BRANCH  18  24
ATOM     19  O   UNL     1       7.878   4.519  16.098  0.00  0.00    +0.000 OA
ATOM     20  C   UNL     1       6.833   4.410  16.725  0.00  0.00    +0.000 C 
ATOM     21  C   UNL     1       6.578   4.880  18.163  0.00  0.00    +0.000 C 
ATOM     22  C   UNL     1       5.145   4.491  18.368  0.00  0.00    +0.000 A 
ATOM     23  C   UNL     1       4.332   4.662  19.472  0.00  0.00    +0.000 A 
ATOM     24  C   UNL     1       3.004   4.212  19.395  0.00  0.00    +0.000 A 
ATOM     25  C   UNL     1       2.536   3.581  18.220  0.00  0.00    +0.000 A 
ATOM     26  C   UNL     1       3.370   3.413  17.111  0.00  0.00    +0.000 A 
ATOM     27  C   UNL     1       4.657   3.881  17.216  0.00  0.00    +0.000 A 
ATOM     28  N   UNL     1       5.659   3.837  16.257  0.00  0.00    +0.000 N 
ATOM     29  H   UNL     1       5.569   3.446  15.330  0.00  0.00    +0.000 HD
ENDBRANCH  18  24
ENDBRANCH  17  18
ENDBRANCH  16  17
ENDBRANCH   1  16
TORSDOF 4
ENDMDL
MODEL 7
REMARK VINA RESULT:      -9.0      2.001      3.787
REMARK  Name = 
REMARK  4 active torsions:
REMARK  status: ('A' for Active; 'I' for Inactive)
REMARK    1  A    between atoms: C_6  and  C_7
REMARK    2  A    between atoms: C_7  and  C_8
REMARK    3  A    between atoms: C_8  and  C_9
REMARK    4  A    between atoms: C_9  and  C_10
REMARK                            x       y       z     vdW  Elec       q    Type
REMARK                         _______ _______ _______ _____ _____    ______ ____
ROOT
ATOM      1  C   UNL     1       1.722   8.155  19.835  0.00  0.00    +0.000 C 
ATOM      2  O   UNL     1       1.075   8.408  20.856  0.00  0.00    +0.000 OA
ATOM      3  N   UNL     1       2.161   6.873  19.577  0.00  0.00    +0.000 N 
ATOM      4  C   UNL     1       1.701   5.783  20.448  0.00  0.00    +0.000 C 
ATOM      5  C   UNL     1       2.255   4.456  19.879  0.00  0.00    +0.000 C 
ATOM      6  C   UNL     1       1.128   3.481  19.463  0.00  0.00    +0.000 C 
ATOM      7  C   UNL     1       1.357   2.208  20.276  0.00  0.00    +0.000 C 
ATOM      8  C   UNL     1       2.128   2.668  21.499  0.00  0.00    +0.000 C 
ATOM      9  C   UNL     1       3.090   3.698  20.928  0.00  0.00    +0.000 C 
ATOM     10  C   UNL     1       3.075   4.955  18.714  0.00  0.00    +0.000 A 
ATOM     11  C   UNL     1       3.833   4.193  17.829  0.00  0.00    +0.000 A 
ATOM     12  C   UNL     1       4.544   4.839  16.818  0.00  0.00    +0.000 A 
ATOM     13  C   UNL     1       4.498   6.229  16.706  0.00  0.00    +0.000 A 
ATOM     14  C   UNL     1       3.728   6.986  17.593  0.00  0.00    +0.000 A 
ATOM     15  C   UNL     1       3.002   6.346  18.585  0.00  0.00    +0.000 A 
ENDROOT
BRANCH   1  16
ATOM     16  C   UNL     1       2.011   9.239  18.819  0.00  0.00    +0.000 C 
BRANCH  16  17
ATOM     17  C   UNL     1       0.762   9.631  18.036  0.00  0.00    +0.000 C 
BRANCH  17  18
ATOM     18  C   UNL     1      -0.144  10.538  18.864  0.00  0.00    +0.000 C 
BRANCH  18  24
ATOM     19  O   UNL     1      -7.100  12.369  17.481  0.00  0.00    +0.000 OA
ATOM     20  C   UNL     1      -5.943  11.980  17.565  0.00  0.00    +0.000 C 
ATOM     21  C   UNL     1      -4.940  12.330  18.673  0.00  0.00    +0.000 C 
ATOM     22  C   UNL     1      -3.725  11.563  18.246  0.00  0.00    +0.000 A 
ATOM     23  C   UNL     1      -2.486  11.466  18.847  0.00  0.00    +0.000 A 
ATOM     24  C   UNL     1      -1.513  10.658  18.237  0.00  0.00    +0.000 A 
ATOM     25  C   UNL     1      -1.805   9.987  17.027  0.00  0.00    +0.000 A 
ATOM     26  C   UNL     1      -3.063  10.096  16.429  0.00  0.00    +0.000 A 
ATOM     27  C   UNL     1      -3.995  10.882  17.062  0.00  0.00    +0.000 A 
ATOM     28  N   UNL     1      -5.302  11.135  16.670  0.00  0.00    +0.000 N 
ATOM     29  H   UNL     1      -5.750  10.763  15.845  0.00  0.00    +0.000 HD
ENDBRANCH  18  24
ENDBRANCH  17  18
ENDBRANCH  16  17
ENDBRANCH   1  16
TORSDOF 4
ENDMDL
MODEL 8
REMARK VINA RESULT:      -8.9      1.985      3.686
REMARK  Name = 
REMARK  4 active torsions:
REMARK  status: ('A' for Active; 'I' for Inactive)
REMARK    1  A    between atoms: C_6  and  C_7
REMARK    2  A    between atoms: C_7  and  C_8
REMARK    3  A    between atoms: C_8  and  C_9
REMARK    4  A    between atoms: C_9  and  C_10
REMARK                            x       y       z     vdW  Elec       q    Type
REMARK                         _______ _______ _______ _____ _____    ______ ____
ROOT
ATOM      1  C   UNL     1       2.171   7.548  19.226  0.00  0.00    +0.000 C 
ATOM      2  O   UNL     1       1.562   7.486  20.299  0.00  0.00    +0.000 OA
ATOM      3  N   UNL     1       2.854   6.454  18.739  0.00  0.00    +0.000 N 
ATOM      4  C   UNL     1       2.704   5.166  19.429  0.00  0.00    +0.000 C 
ATOM      5  C   UNL     1       3.486   4.103  18.621  0.00  0.00    +0.000 C 
ATOM      6  C   UNL     1       2.566   2.978  18.088  0.00  0.00    +0.000 C 
ATOM      7  C   UNL     1       3.121   1.676  18.663  0.00  0.00    +0.000 C 
ATOM      8  C   UNL     1       3.864   2.099  19.918  0.00  0.00    +0.000 C 
ATOM      9  C   UNL     1       4.539   3.394  19.495  0.00  0.00    +0.000 C 
ATOM     10  C   UNL     1       4.092   4.949  17.530  0.00  0.00    +0.000 A 
ATOM     11  C   UNL     1       4.929   4.525  16.500  0.00  0.00    +0.000 A 
ATOM     12  C   UNL     1       5.408   5.464  15.588  0.00  0.00    +0.000 A 
ATOM     13  C   UNL     1       5.057   6.809  15.716  0.00  0.00    +0.000 A 
ATOM     14  C   UNL     1       4.211   7.226  16.746  0.00  0.00    +0.000 A 
ATOM     15  C   UNL     1       3.714   6.292  17.642  0.00  0.00    +0.000 A 
ENDROOT
BRANCH   1  16
ATOM     16  C   UNL     1       2.146   8.816  18.400  0.00  0.00    +0.000 C 
BRANCH  16  17
ATOM     17  C   UNL     1       0.758   9.096  17.833  0.00  0.00    +0.000 C 
BRANCH  17  18
ATOM     18  C   UNL     1       0.106  10.285  18.535  0.00  0.00    +0.000 C 
BRANCH  18  24
ATOM     19  O   UNL     1      -6.897  12.374  18.045  0.00  0.00    +0.000 OA
ATOM     20  C   UNL     1      -5.751  11.949  17.978  0.00  0.00    +0.000 C 
ATOM     21  C   UNL     1      -4.618  12.216  18.978  0.00  0.00    +0.000 C 
ATOM     22  C   UNL     1      -3.485  11.438  18.380  0.00  0.00    +0.000 A 
ATOM     23  C   UNL     1      -2.190  11.278  18.830  0.00  0.00    +0.000 A 
ATOM     24  C   UNL     1      -1.320  10.474  18.076  0.00  0.00    +0.000 A 
ATOM     25  C   UNL     1      -1.769   9.872  16.878  0.00  0.00    +0.000 A 
ATOM     26  C   UNL     1      -3.082  10.045  16.434  0.00  0.00    +0.000 A 
ATOM     27  C   UNL     1      -3.910  10.824  17.205  0.00  0.00    +0.000 A 
ATOM     28  N   UNL     1      -5.243  11.133  16.977  0.00  0.00    +0.000 N 
ATOM     29  H   UNL     1      -5.795  10.814  16.194  0.00  0.00    +0.000 HD
ENDBRANCH  18  24
ENDBRANCH  17  18
ENDBRANCH  16  17
ENDBRANCH   1  16
TORSDOF 4
ENDMDL
MODEL 9
REMARK VINA RESULT:      -8.8      2.533      8.260
REMARK  Name = 
REMARK  4 active torsions:
REMARK  status: ('A' for Active; 'I' for Inactive)
REMARK    1  A    between atoms: C_6  and  C_7
REMARK    2  A    between atoms: C_7  and  C_8
REMARK    3  A    between atoms: C_8  and  C_9
REMARK    4  A    between atoms: C_9  and  C_10
REMARK                            x       y       z     vdW  Elec       q    Type
REMARK                         _______ _______ _______ _____ _____    ______ ____
ROOT
ATOM      1  C   UNL     1       2.233   7.937  18.714  0.00  0.00    +0.000 C 
ATOM      2  O   UNL     1       2.866   8.024  17.657  0.00  0.00    +0.000 OA
ATOM      3  N   UNL     1       1.607   9.040  19.255  0.00  0.00    +0.000 N 
ATOM      4  C   UNL     1       1.559  10.279  18.467  0.00  0.00    +0.000 C 
ATOM      5  C   UNL     1       0.719  11.310  19.258  0.00  0.00    +0.000 C 
ATOM      6  C   UNL     1      -0.545  11.754  18.484  0.00  0.00    +0.000 C 
ATOM      7  C   UNL     1      -0.434  13.270  18.335  0.00  0.00    +0.000 C 
ATOM      8  C   UNL     1       1.053  13.555  18.429  0.00  0.00    +0.000 C 
ATOM      9  C   UNL     1       1.516  12.603  19.520  0.00  0.00    +0.000 C 
ATOM     10  C   UNL     1       0.411  10.537  20.515  0.00  0.00    +0.000 A 
ATOM     11  C   UNL     1      -0.314  10.977  21.620  0.00  0.00    +0.000 A 
ATOM     12  C   UNL     1      -0.480  10.119  22.706  0.00  0.00    +0.000 A 
ATOM     13  C   UNL     1       0.081   8.841  22.683  0.00  0.00    +0.000 A 
ATOM     14  C   UNL     1       0.800   8.403  21.568  0.00  0.00    +0.000 A 
ATOM     15  C   UNL     1       0.948   9.245  20.477  0.00  0.00    +0.000 A 
ENDROOT
BRANCH   1  16
ATOM     16  C   UNL     1       2.095   6.605  19.419  0.00  0.00    +0.000 C 
BRANCH  16  17
ATOM     17  C   UNL     1       3.450   5.946  19.657  0.00  0.00    +0.000 C 
BRANCH  17  18
ATOM     18  C   UNL     1       3.619   4.705  18.783  0.00  0.00    +0.000 C 
BRANCH  18  24
ATOM     19  O   UNL     1       7.578   4.676  12.621  0.00  0.00    +0.000 OA
ATOM     20  C   UNL     1       7.043   4.770  13.718  0.00  0.00    +0.000 C 
ATOM     21  C   UNL     1       5.647   4.260  14.100  0.00  0.00    +0.000 C 
ATOM     22  C   UNL     1       5.560   4.645  15.545  0.00  0.00    +0.000 A 
ATOM     23  C   UNL     1       4.538   4.445  16.453  0.00  0.00    +0.000 A 
ATOM     24  C   UNL     1       4.720   4.900  17.769  0.00  0.00    +0.000 A 
ATOM     25  C   UNL     1       5.915   5.565  18.131  0.00  0.00    +0.000 A 
ATOM     26  C   UNL     1       6.939   5.762  17.202  0.00  0.00    +0.000 A 
ATOM     27  C   UNL     1       6.734   5.289  15.929  0.00  0.00    +0.000 A 
ATOM     28  N   UNL     1       7.598   5.359  14.845  0.00  0.00    +0.000 N 
ATOM     29  H   UNL     1       8.517   5.776  14.853  0.00  0.00    +0.000 HD
ENDBRANCH  18  24
ENDBRANCH  17  18
ENDBRANCH  16  17
ENDBRANCH   1  16
TORSDOF 4
ENDMDL
