MODEL 1
REMARK VINA RESULT:      -7.6      0.000      0.000
REMARK  Name = 
REMARK  7 active torsions:
REMARK  status: ('A' for Active; 'I' for Inactive)
REMARK    1  A    between atoms: C_1  and  N_2
REMARK    2  A    between atoms: C_6  and  C_7
REMARK    3  A    between atoms: C_7  and  C_8
REMARK    4  A    between atoms: C_8  and  C_9
REMARK    5  A    between atoms: C_11  and  N_12
REMARK    6  A    between atoms: C_17  and  N_18
REMARK    7  A    between atoms: C_25  and  C_26
REMARK                            x       y       z     vdW  Elec       q    Type
REMARK                         _______ _______ _______ _____ _____    ______ ____
ROOT
ATOM      1  C   UNL     1      -4.043  12.616  19.800  0.00  0.00    +0.000 A 
ATOM      2  C   UNL     1      -4.035  12.187  18.460  0.00  0.00    +0.000 A 
ATOM      3  C   UNL     1      -2.988  11.415  17.946  0.00  0.00    +0.000 A 
ATOM      4  C   UNL     1      -1.973  11.027  18.814  0.00  0.00    +0.000 A 
ATOM      5  C   UNL     1      -1.861  11.626  20.082  0.00  0.00    +0.000 A 
ATOM      6  C   UNL     1      -2.939  12.332  20.610  0.00  0.00    +0.000 A 
ENDROOT
BRANCH   5   7
ATOM      7  N   UNL     1      -0.546  12.005  20.554  0.00  0.00    +0.000 N 
ATOM      8  C   UNL     1       0.476  11.594  19.554  0.00  0.00    +0.000 C 
ATOM      9  C   UNL     1       1.001  10.307  20.106  0.00  0.00    +0.000 A 
ATOM     10  C   UNL     1       0.705  10.269  21.472  0.00  0.00    +0.000 A 
ATOM     11  C   UNL     1       0.856   9.133  22.236  0.00  0.00    +0.000 A 
ATOM     12  C   UNL     1       1.293   7.979  21.588  0.00  0.00    +0.000 A 
ATOM     13  C   UNL     1       1.602   8.002  20.207  0.00  0.00    +0.000 A 
ATOM     14  C   UNL     1       1.496   9.184  19.448  0.00  0.00    +0.000 A 
ATOM     15  C   UNL     1      -0.161  11.417  21.779  0.00  0.00    +0.000 C 
ATOM     16  O   UNL     1      -0.551  11.699  22.899  0.00  0.00    +0.000 OA
BRANCH  14  17
ATOM     17  C   UNL     1       1.826   9.176  17.977  0.00  0.00    +0.000 C 
ATOM     18  F   UNL     1       0.725   9.163  17.173  0.00  0.00    +0.000 F 
ATOM     19  F   UNL     1       2.533  10.279  17.606  0.00  0.00    +0.000 F 
ATOM     20  F   UNL     1       2.576   8.109  17.599  0.00  0.00    +0.000 F 
ENDBRANCH  14  17
ENDBRANCH   5   7
BRANCH   3  21
ATOM     21  N   UNL     1      -2.895  11.125  16.560  0.00  0.00    +0.000 N 
ATOM     22  C   UNL     1      -2.673   9.798  16.041  0.00  0.00    +0.000 C 
ATOM     23  C   UNL     1      -3.682  10.148  14.965  0.00  0.00    +0.000 C 
ATOM     24  O   UNL     1      -4.026  11.322  15.729  0.00  0.00    +0.000 OA
ENDBRANCH   3  21
BRANCH   1  25
ATOM     25  C   UNL     1      -5.207  13.433  20.313  0.00  0.00    +0.000 C 
BRANCH  25  26
ATOM     26  C   UNL     1      -5.056  13.953  21.747  0.00  0.00    +0.000 C 
BRANCH  26  32
ATOM     27  C   UNL     1      -6.820  15.561  23.767  0.00  0.00    +0.000 C 
ATOM     28  N   UNL     1      -6.828  14.137  23.567  0.00  0.00    +0.000 N 
ATOM     29  C   UNL     1      -7.582  13.242  24.260  0.00  0.00    +0.000 A 
ATOM     30  N   UNL     1      -7.349  12.032  23.809  0.00  0.00    +0.000 NA
ATOM     31  N   UNL     1      -6.405  12.133  22.816  0.00  0.00    +0.000 NA
ATOM     32  C   UNL     1      -6.085  13.405  22.676  0.00  0.00    +0.000 A 
ENDBRANCH  26  32
ENDBRANCH  25  26
ENDBRANCH   1  25
TORSDOF 6
ENDMDL
MODEL 2
REMARK VINA RESULT:      -7.6      1.674      2.148
REMARK  Name = 
REMARK  7 active torsions:
REMARK  status: ('A' for Active; 'I' for Inactive)
REMARK    1  A    between atoms: C_1  and  N_2
REMARK    2  A    between atoms: C_6  and  C_7
REMARK    3  A    between atoms: C_7  and  C_8
REMARK    4  A    between atoms: C_8  and  C_9
REMARK    5  A    between atoms: C_11  and  N_12
REMARK    6  A    between atoms: C_17  and  N_18
REMARK    7  A    between atoms: C_25  and  C_26
REMARK                            x       y       z     vdW  Elec       q    Type
REMARK                         _______ _______ _______ _____ _____    ______ ____
ROOT
ATOM      1  C   UNL     1      -4.984  12.267  18.306  0.00  0.00    +0.000 A 
ATOM      2  C   UNL     1      -4.649  11.786  17.026  0.00  0.00    +0.000 A 
ATOM      3  C   UNL     1      -3.396  11.225  16.760  0.00  0.00    +0.000 A 
ATOM      4  C   UNL     1      -2.499  11.096  17.815  0.00  0.00    +0.000 A 
ATOM      5  C   UNL     1      -2.737  11.765  19.029  0.00  0.00    +0.000 A 
ATOM      6  C   UNL     1      -4.010  12.256  19.309  0.00  0.00    +0.000 A 
ENDROOT
BRANCH   5   7
ATOM      7  N   UNL     1      -1.629  12.431  19.682  0.00  0.00    +0.000 N 
ATOM      8  C   UNL     1      -0.350  11.967  19.081  0.00  0.00    +0.000 C 
ATOM      9  C   UNL     1       0.127  10.925  20.042  0.00  0.00    +0.000 A 
ATOM     10  C   UNL     1      -0.509  11.145  21.268  0.00  0.00    +0.000 A 
ATOM     11  C   UNL     1      -0.461  10.240  22.305  0.00  0.00    +0.000 A 
ATOM     12  C   UNL     1       0.232   9.051  22.085  0.00  0.00    +0.000 A 
ATOM     13  C   UNL     1       0.886   8.816  20.852  0.00  0.00    +0.000 A 
ATOM     14  C   UNL     1       0.874   9.772  19.818  0.00  0.00    +0.000 A 
ATOM     15  C   UNL     1      -1.525  12.190  21.069  0.00  0.00    +0.000 C 
ATOM     16  O   UNL     1      -2.216  12.650  21.963  0.00  0.00    +0.000 OA
BRANCH  14  17
ATOM     17  C   UNL     1       1.574   9.491  18.513  0.00  0.00    +0.000 C 
ATOM     18  F   UNL     1       0.732   9.089  17.519  0.00  0.00    +0.000 F 
ATOM     19  F   UNL     1       2.210  10.593  18.027  0.00  0.00    +0.000 F 
ATOM     20  F   UNL     1       2.524   8.525  18.608  0.00  0.00    +0.000 F 
ENDBRANCH  14  17
ENDBRANCH   5   7
BRANCH   3  21
ATOM     21  N   UNL     1      -2.999  10.895  15.438  0.00  0.00    +0.000 N 
ATOM     22  C   UNL     1      -2.719   9.548  15.007  0.00  0.00    +0.000 C 
ATOM     23  C   UNL     1      -3.438   9.906  13.721  0.00  0.00    +0.000 C 
ATOM     24  O   UNL     1      -3.900  11.111  14.365  0.00  0.00    +0.000 OA
ENDBRANCH   3  21
BRANCH   1  25
ATOM     25  C   UNL     1      -6.358  12.847  18.547  0.00  0.00    +0.000 C 
BRANCH  25  26
ATOM     26  C   UNL     1      -7.393  11.861  19.101  0.00  0.00    +0.000 C 
BRANCH  26  32
ATOM     27  C   UNL     1      -7.899   9.488  21.075  0.00  0.00    +0.000 C 
ATOM     28  N   UNL     1      -7.779  10.880  21.420  0.00  0.00    +0.000 N 
ATOM     29  C   UNL     1      -7.906  11.402  22.669  0.00  0.00    +0.000 A 
ATOM     30  N   UNL     1      -7.724  12.701  22.621  0.00  0.00    +0.000 NA
ATOM     31  N   UNL     1      -7.493  13.040  21.310  0.00  0.00    +0.000 NA
ATOM     32  C   UNL     1      -7.535  11.940  20.583  0.00  0.00    +0.000 A 
ENDBRANCH  26  32
ENDBRANCH  25  26
ENDBRANCH   1  25
TORSDOF 6
ENDMDL
MODEL 3
REMARK VINA RESULT:      -7.5      4.030      8.929
REMARK  Name = 
REMARK  7 active torsions:
REMARK  status: ('A' for Active; 'I' for Inactive)
REMARK    1  A    between atoms: C_1  and  N_2
REMARK    2  A    between atoms: C_6  and  C_7
REMARK    3  A    between atoms: C_7  and  C_8
REMARK    4  A    between atoms: C_8  and  C_9
REMARK    5  A    between atoms: C_11  and  N_12
REMARK    6  A    between atoms: C_17  and  N_18
REMARK    7  A    between atoms: C_25  and  C_26
REMARK                            x       y       z     vdW  Elec       q    Type
REMARK                         _______ _______ _______ _____ _____    ______ ____
ROOT
ATOM      1  C   UNL     1       1.160   8.908  18.460  0.00  0.00    +0.000 A 
ATOM      2  C   UNL     1       1.216   9.088  19.855  0.00  0.00    +0.000 A 
ATOM      3  C   UNL     1       0.214   9.780  20.544  0.00  0.00    +0.000 A 
ATOM      4  C   UNL     1      -0.881  10.239  19.819  0.00  0.00    +0.000 A 
ATOM      5  C   UNL     1      -0.840  10.257  18.413  0.00  0.00    +0.000 A 
ATOM      6  C   UNL     1       0.121   9.506  17.741  0.00  0.00    +0.000 A 
ENDROOT
BRANCH   5   7
ATOM      7  N   UNL     1      -1.352  11.422  17.721  0.00  0.00    +0.000 N 
ATOM      8  C   UNL     1      -1.850  12.409  18.716  0.00  0.00    +0.000 C 
ATOM      9  C   UNL     1      -3.326  12.168  18.734  0.00  0.00    +0.000 A 
ATOM     10  C   UNL     1      -3.672  11.516  17.546  0.00  0.00    +0.000 A 
ATOM     11  C   UNL     1      -4.913  10.957  17.338  0.00  0.00    +0.000 A 
ATOM     12  C   UNL     1      -5.832  11.030  18.384  0.00  0.00    +0.000 A 
ATOM     13  C   UNL     1      -5.499  11.691  19.590  0.00  0.00    +0.000 A 
ATOM     14  C   UNL     1      -4.245  12.307  19.770  0.00  0.00    +0.000 A 
ATOM     15  C   UNL     1      -2.429  11.166  16.844  0.00  0.00    +0.000 C 
ATOM     16  O   UNL     1      -2.390  10.636  15.746  0.00  0.00    +0.000 OA
BRANCH  14  17
ATOM     17  C   UNL     1      -3.915  12.998  21.069  0.00  0.00    +0.000 C 
ATOM     18  F   UNL     1      -3.431  14.261  20.906  0.00  0.00    +0.000 F 
ATOM     19  F   UNL     1      -5.009  13.128  21.870  0.00  0.00    +0.000 F 
ATOM     20  F   UNL     1      -2.988  12.337  21.810  0.00  0.00    +0.000 F 
ENDBRANCH  14  17
ENDBRANCH   5   7
BRANCH   3  21
ATOM     21  N   UNL     1       0.352  10.106  21.918  0.00  0.00    +0.000 N 
ATOM     22  C   UNL     1      -0.724   9.994  22.871  0.00  0.00    +0.000 C 
ATOM     23  C   UNL     1       0.310   9.453  23.839  0.00  0.00    +0.000 C 
ATOM     24  O   UNL     1       1.227   9.344  22.731  0.00  0.00    +0.000 OA
ENDBRANCH   3  21
BRANCH   1  25
ATOM     25  C   UNL     1       2.258   8.137  17.765  0.00  0.00    +0.000 C 
BRANCH  25  26
ATOM     26  C   UNL     1       2.950   7.071  18.625  0.00  0.00    +0.000 C 
BRANCH  26  32
ATOM     27  C   UNL     1       5.162   5.304  17.297  0.00  0.00    +0.000 C 
ATOM     28  N   UNL     1       3.779   4.952  17.482  0.00  0.00    +0.000 N 
ATOM     29  C   UNL     1       3.192   3.796  17.070  0.00  0.00    +0.000 A 
ATOM     30  N   UNL     1       1.926   3.801  17.415  0.00  0.00    +0.000 NA
ATOM     31  N   UNL     1       1.672   4.995  18.047  0.00  0.00    +0.000 NA
ATOM     32  C   UNL     1       2.791   5.693  18.080  0.00  0.00    +0.000 A 
ENDBRANCH  26  32
ENDBRANCH  25  26
ENDBRANCH   1  25
TORSDOF 6
ENDMDL
MODEL 4
REMARK VINA RESULT:      -7.5      4.002      9.046
REMARK  Name = 
REMARK  7 active torsions:
REMARK  status: ('A' for Active; 'I' for Inactive)
REMARK    1  A    between atoms: C_1  and  N_2
REMARK    2  A    between atoms: C_6  and  C_7
REMARK    3  A    between atoms: C_7  and  C_8
REMARK    4  A    between atoms: C_8  and  C_9
REMARK    5  A    between atoms: C_11  and  N_12
REMARK    6  A    between atoms: C_17  and  N_18
REMARK    7  A    between atoms: C_25  and  C_26
REMARK                            x       y       z     vdW  Elec       q    Type
REMARK                         _______ _______ _______ _____ _____    ______ ____
ROOT
ATOM      1  C   UNL     1       1.180   9.174  18.457  0.00  0.00    +0.000 A 
ATOM      2  C   UNL     1       1.224   9.295  19.858  0.00  0.00    +0.000 A 
ATOM      3  C   UNL     1       0.187   9.904  20.572  0.00  0.00    +0.000 A 
ATOM      4  C   UNL     1      -0.928  10.340  19.864  0.00  0.00    +0.000 A 
ATOM      5  C   UNL     1      -0.884  10.423  18.461  0.00  0.00    +0.000 A 
ATOM      6  C   UNL     1       0.114   9.752  17.760  0.00  0.00    +0.000 A 
ENDROOT
BRANCH   5   7
ATOM      7  N   UNL     1      -1.453  11.590  17.818  0.00  0.00    +0.000 N 
ATOM      8  C   UNL     1      -1.988  12.513  18.855  0.00  0.00    +0.000 C 
ATOM      9  C   UNL     1      -3.451  12.205  18.870  0.00  0.00    +0.000 A 
ATOM     10  C   UNL     1      -3.776  11.587  17.658  0.00  0.00    +0.000 A 
ATOM     11  C   UNL     1      -4.992  10.981  17.433  0.00  0.00    +0.000 A 
ATOM     12  C   UNL     1      -5.906  10.971  18.486  0.00  0.00    +0.000 A 
ATOM     13  C   UNL     1      -5.595  11.597  19.716  0.00  0.00    +0.000 A 
ATOM     14  C   UNL     1      -4.369  12.260  19.915  0.00  0.00    +0.000 A 
ATOM     15  C   UNL     1      -2.522  11.321  16.937  0.00  0.00    +0.000 C 
ATOM     16  O   UNL     1      -2.467  10.838  15.818  0.00  0.00    +0.000 OA
BRANCH  14  17
ATOM     17  C   UNL     1      -4.063  12.913  21.239  0.00  0.00    +0.000 C 
ATOM     18  F   UNL     1      -5.126  12.939  22.092  0.00  0.00    +0.000 F 
ATOM     19  F   UNL     1      -3.073  12.263  21.912  0.00  0.00    +0.000 F 
ATOM     20  F   UNL     1      -3.649  14.201  21.122  0.00  0.00    +0.000 F 
ENDBRANCH  14  17
ENDBRANCH   5   7
BRANCH   3  21
ATOM     21  N   UNL     1       0.306  10.176  21.960  0.00  0.00    +0.000 N 
ATOM     22  C   UNL     1      -0.758   9.947  22.906  0.00  0.00    +0.000 C 
ATOM     23  C   UNL     1       0.312   9.434  23.849  0.00  0.00    +0.000 C 
ATOM     24  O   UNL     1       1.232   9.438  22.738  0.00  0.00    +0.000 OA
ENDBRANCH   3  21
BRANCH   1  25
ATOM     25  C   UNL     1       2.317   8.491  17.733  0.00  0.00    +0.000 C 
BRANCH  25  26
ATOM     26  C   UNL     1       2.446   6.986  17.998  0.00  0.00    +0.000 C 
BRANCH  26  32
ATOM     27  C   UNL     1       3.688   4.696  19.729  0.00  0.00    +0.000 C 
ATOM     28  N   UNL     1       4.378   5.517  18.770  0.00  0.00    +0.000 N 
ATOM     29  C   UNL     1       5.706   5.458  18.484  0.00  0.00    +0.000 A 
ATOM     30  N   UNL     1       5.994   6.337  17.554  0.00  0.00    +0.000 NA
ATOM     31  N   UNL     1       4.834   7.003  17.239  0.00  0.00    +0.000 NA
ATOM     32  C   UNL     1       3.859   6.511  17.980  0.00  0.00    +0.000 A 
ENDBRANCH  26  32
ENDBRANCH  25  26
ENDBRANCH   1  25
TORSDOF 6
ENDMDL
MODEL 5
REMARK VINA RESULT:      -7.4      3.997      9.047
REMARK  Name = 
REMARK  7 active torsions:
REMARK  status: ('A' for Active; 'I' for Inactive)
REMARK    1  A    between atoms: C_1  and  N_2
REMARK    2  A    between atoms: C_6  and  C_7
REMARK    3  A    between atoms: C_7  and  C_8
REMARK    4  A    between atoms: C_8  and  C_9
REMARK    5  A    between atoms: C_11  and  N_12
REMARK    6  A    between atoms: C_17  and  N_18
REMARK    7  A    between atoms: C_25  and  C_26
REMARK                            x       y       z     vdW  Elec       q    Type
REMARK                         _______ _______ _______ _____ _____    ______ ____
ROOT
ATOM      1  C   UNL     1       1.354   9.038  18.504  0.00  0.00    +0.000 A 
ATOM      2  C   UNL     1       1.335   9.200  19.902  0.00  0.00    +0.000 A 
ATOM      3  C   UNL     1       0.265   9.825  20.551  0.00  0.00    +0.000 A 
ATOM      4  C   UNL     1      -0.819  10.234  19.781  0.00  0.00    +0.000 A 
ATOM      5  C   UNL     1      -0.714  10.275  18.379  0.00  0.00    +0.000 A 
ATOM      6  C   UNL     1       0.317   9.588  17.744  0.00  0.00    +0.000 A 
ENDROOT
BRANCH   5   7
ATOM      7  N   UNL     1      -1.258  11.419  17.678  0.00  0.00    +0.000 N 
ATOM      8  C   UNL     1      -1.713  12.434  18.665  0.00  0.00    +0.000 C 
ATOM      9  C   UNL     1      -3.186  12.193  18.755  0.00  0.00    +0.000 A 
ATOM     10  C   UNL     1      -3.584  11.508  17.603  0.00  0.00    +0.000 A 
ATOM     11  C   UNL     1      -4.832  10.943  17.465  0.00  0.00    +0.000 A 
ATOM     12  C   UNL     1      -5.704  11.046  18.548  0.00  0.00    +0.000 A 
ATOM     13  C   UNL     1      -5.319  11.740  19.719  0.00  0.00    +0.000 A 
ATOM     14  C   UNL     1      -4.059  12.361  19.827  0.00  0.00    +0.000 A 
ATOM     15  C   UNL     1      -2.372  11.138  16.856  0.00  0.00    +0.000 C 
ATOM     16  O   UNL     1      -2.381  10.577  15.774  0.00  0.00    +0.000 OA
BRANCH  14  17
ATOM     17  C   UNL     1      -3.674  13.088  21.090  0.00  0.00    +0.000 C 
ATOM     18  F   UNL     1      -3.219  14.355  20.871  0.00  0.00    +0.000 F 
ATOM     19  F   UNL     1      -4.726  13.222  21.944  0.00  0.00    +0.000 F 
ATOM     20  F   UNL     1      -2.699  12.460  21.797  0.00  0.00    +0.000 F 
ENDBRANCH  14  17
ENDBRANCH   5   7
BRANCH   3  21
ATOM     21  N   UNL     1       0.320  10.138  21.934  0.00  0.00    +0.000 N 
ATOM     22  C   UNL     1      -0.765   9.883  22.849  0.00  0.00    +0.000 C 
ATOM     23  C   UNL     1       0.294   9.448  23.842  0.00  0.00    +0.000 C 
ATOM     24  O   UNL     1       1.252   9.468  22.764  0.00  0.00    +0.000 OA
ENDBRANCH   3  21
BRANCH   1  25
ATOM     25  C   UNL     1       2.525   8.339  17.853  0.00  0.00    +0.000 C 
BRANCH  25  26
ATOM     26  C   UNL     1       2.478   6.807  17.903  0.00  0.00    +0.000 C 
BRANCH  26  32
ATOM     27  C   UNL     1       5.029   6.525  16.116  0.00  0.00    +0.000 C 
ATOM     28  N   UNL     1       4.878   6.071  17.473  0.00  0.00    +0.000 N 
ATOM     29  C   UNL     1       5.816   5.401  18.195  0.00  0.00    +0.000 A 
ATOM     30  N   UNL     1       5.349   5.153  19.396  0.00  0.00    +0.000 NA
ATOM     31  N   UNL     1       4.070   5.651  19.455  0.00  0.00    +0.000 NA
ATOM     32  C   UNL     1       3.783   6.199  18.290  0.00  0.00    +0.000 A 
ENDBRANCH  26  32
ENDBRANCH  25  26
ENDBRANCH   1  25
TORSDOF 6
ENDMDL
MODEL 6
REMARK VINA RESULT:      -7.4     10.509     12.683
REMARK  Name = 
REMARK  7 active torsions:
REMARK  status: ('A' for Active; 'I' for Inactive)
REMARK    1  A    between atoms: C_1  and  N_2
REMARK    2  A    between atoms: C_6  and  C_7
REMARK    3  A    between atoms: C_7  and  C_8
REMARK    4  A    between atoms: C_8  and  C_9
REMARK    5  A    between atoms: C_11  and  N_12
REMARK    6  A    between atoms: C_17  and  N_18
REMARK    7  A    between atoms: C_25  and  C_26
REMARK                            x       y       z     vdW  Elec       q    Type
REMARK                         _______ _______ _______ _____ _____    ______ ____
ROOT
ATOM      1  C   UNL     1       8.327  10.867  17.764  0.00  0.00    +0.000 A 
ATOM      2  C   UNL     1       7.628  12.060  17.505  0.00  0.00    +0.000 A 
ATOM      3  C   UNL     1       8.255  13.307  17.583  0.00  0.00    +0.000 A 
ATOM      4  C   UNL     1       9.616  13.339  17.866  0.00  0.00    +0.000 A 
ATOM      5  C   UNL     1      10.266  12.184  18.336  0.00  0.00    +0.000 A 
ATOM      6  C   UNL     1       9.658  10.940  18.188  0.00  0.00    +0.000 A 
ENDROOT
BRANCH   5   7
ATOM      7  N   UNL     1      11.209  12.316  19.428  0.00  0.00    +0.000 N 
ATOM      8  C   UNL     1      10.615  11.746  20.667  0.00  0.00    +0.000 C 
ATOM      9  C   UNL     1      10.100  12.950  21.389  0.00  0.00    +0.000 A 
ATOM     10  C   UNL     1      10.772  14.072  20.894  0.00  0.00    +0.000 A 
ATOM     11  C   UNL     1      10.387  15.361  21.187  0.00  0.00    +0.000 A 
ATOM     12  C   UNL     1       9.259  15.525  21.989  0.00  0.00    +0.000 A 
ATOM     13  C   UNL     1       8.571  14.401  22.502  0.00  0.00    +0.000 A 
ATOM     14  C   UNL     1       9.006  13.087  22.239  0.00  0.00    +0.000 A 
ATOM     15  C   UNL     1      11.576  13.644  19.739  0.00  0.00    +0.000 C 
ATOM     16  O   UNL     1      12.324  14.379  19.117  0.00  0.00    +0.000 OA
BRANCH  14  17
ATOM     17  C   UNL     1       8.249  11.908  22.795  0.00  0.00    +0.000 C 
ATOM     18  F   UNL     1       6.895  12.065  22.760  0.00  0.00    +0.000 F 
ATOM     19  F   UNL     1       8.501  10.765  22.099  0.00  0.00    +0.000 F 
ATOM     20  F   UNL     1       8.557  11.631  24.088  0.00  0.00    +0.000 F 
ENDBRANCH  14  17
ENDBRANCH   5   7
BRANCH   3  21
ATOM     21  N   UNL     1       7.515  14.514  17.487  0.00  0.00    +0.000 N 
ATOM     22  C   UNL     1       6.123  14.621  17.846  0.00  0.00    +0.000 C 
ATOM     23  C   UNL     1       6.476  15.960  18.461  0.00  0.00    +0.000 C 
ATOM     24  O   UNL     1       7.868  15.615  18.306  0.00  0.00    +0.000 OA
ENDBRANCH   3  21
BRANCH   1  25
ATOM     25  C   UNL     1       7.608   9.542  17.648  0.00  0.00    +0.000 C 
BRANCH  25  26
ATOM     26  C   UNL     1       8.341   8.348  18.270  0.00  0.00    +0.000 C 
BRANCH  26  32
ATOM     27  C   UNL     1       7.928   5.703  19.886  0.00  0.00    +0.000 C 
ATOM     28  N   UNL     1       7.718   5.887  18.475  0.00  0.00    +0.000 N 
ATOM     29  C   UNL     1       7.340   4.921  17.596  0.00  0.00    +0.000 A 
ATOM     30  N   UNL     1       7.230   5.439  16.396  0.00  0.00    +0.000 NA
ATOM     31  N   UNL     1       7.566   6.769  16.486  0.00  0.00    +0.000 NA
ATOM     32  C   UNL     1       7.868   7.036  17.741  0.00  0.00    +0.000 A 
ENDBRANCH  26  32
ENDBRANCH  25  26
ENDBRANCH   1  25
TORSDOF 6
ENDMDL
MODEL 7
REMARK VINA RESULT:      -7.3      3.926      8.687
REMARK  Name = 
REMARK  7 active torsions:
REMARK  status: ('A' for Active; 'I' for Inactive)
REMARK    1  A    between atoms: C_1  and  N_2
REMARK    2  A    between atoms: C_6  and  C_7
REMARK    3  A    between atoms: C_7  and  C_8
REMARK    4  A    between atoms: C_8  and  C_9
REMARK    5  A    between atoms: C_11  and  N_12
REMARK    6  A    between atoms: C_17  and  N_18
REMARK    7  A    between atoms: C_25  and  C_26
REMARK                            x       y       z     vdW  Elec       q    Type
REMARK                         _______ _______ _______ _____ _____    ______ ____
ROOT
ATOM      1  C   UNL     1       1.082   9.004  18.450  0.00  0.00    +0.000 A 
ATOM      2  C   UNL     1       1.163   9.161  19.845  0.00  0.00    +0.000 A 
ATOM      3  C   UNL     1       0.169   9.832  20.565  0.00  0.00    +0.000 A 
ATOM      4  C   UNL     1      -0.943  10.296  19.869  0.00  0.00    +0.000 A 
ATOM      5  C   UNL     1      -0.929  10.338  18.463  0.00  0.00    +0.000 A 
ATOM      6  C   UNL     1       0.025   9.606  17.760  0.00  0.00    +0.000 A 
ENDROOT
BRANCH   5   7
ATOM      7  N   UNL     1      -1.462  11.510  17.801  0.00  0.00    +0.000 N 
ATOM      8  C   UNL     1      -1.997  12.454  18.819  0.00  0.00    +0.000 C 
ATOM      9  C   UNL     1      -3.466  12.174  18.812  0.00  0.00    +0.000 A 
ATOM     10  C   UNL     1      -3.782  11.552  17.601  0.00  0.00    +0.000 A 
ATOM     11  C   UNL     1      -5.006  10.968  17.361  0.00  0.00    +0.000 A 
ATOM     12  C   UNL     1      -5.938  10.986  18.397  0.00  0.00    +0.000 A 
ATOM     13  C   UNL     1      -5.635  11.617  19.627  0.00  0.00    +0.000 A 
ATOM     14  C   UNL     1      -4.400  12.258  19.842  0.00  0.00    +0.000 A 
ATOM     15  C   UNL     1      -2.522  11.254  16.903  0.00  0.00    +0.000 C 
ATOM     16  O   UNL     1      -2.458  10.759  15.791  0.00  0.00    +0.000 OA
BRANCH  14  17
ATOM     17  C   UNL     1      -4.103  12.917  21.165  0.00  0.00    +0.000 C 
ATOM     18  F   UNL     1      -5.169  12.935  22.014  0.00  0.00    +0.000 F 
ATOM     19  F   UNL     1      -3.109  12.278  21.842  0.00  0.00    +0.000 F 
ATOM     20  F   UNL     1      -3.701  14.208  21.045  0.00  0.00    +0.000 F 
ENDBRANCH  14  17
ENDBRANCH   5   7
BRANCH   3  21
ATOM     21  N   UNL     1       0.330  10.136  21.942  0.00  0.00    +0.000 N 
ATOM     22  C   UNL     1      -0.716   9.964  22.919  0.00  0.00    +0.000 C 
ATOM     23  C   UNL     1       0.363   9.444  23.849  0.00  0.00    +0.000 C 
ATOM     24  O   UNL     1       1.254   9.392  22.716  0.00  0.00    +0.000 OA
ENDBRANCH   3  21
BRANCH   1  25
ATOM     25  C   UNL     1       2.172   8.253  17.721  0.00  0.00    +0.000 C 
BRANCH  25  26
ATOM     26  C   UNL     1       3.105   7.428  18.616  0.00  0.00    +0.000 C 
BRANCH  26  32
ATOM     27  C   UNL     1       1.744   5.413  20.584  0.00  0.00    +0.000 C 
ATOM     28  N   UNL     1       2.357   5.097  19.322  0.00  0.00    +0.000 N 
ATOM     29  C   UNL     1       2.484   3.852  18.790  0.00  0.00    +0.000 A 
ATOM     30  N   UNL     1       3.080   3.932  17.624  0.00  0.00    +0.000 NA
ATOM     31  N   UNL     1       3.371   5.255  17.396  0.00  0.00    +0.000 NA
ATOM     32  C   UNL     1       2.941   5.958  18.427  0.00  0.00    +0.000 A 
ENDBRANCH  26  32
ENDBRANCH  25  26
ENDBRANCH   1  25
TORSDOF 6
ENDMDL
MODEL 8
REMARK VINA RESULT:      -7.3      1.038      1.131
REMARK  Name = 
REMARK  7 active torsions:
REMARK  status: ('A' for Active; 'I' for Inactive)
REMARK    1  A    between atoms: C_1  and  N_2
REMARK    2  A    between atoms: C_6  and  C_7
REMARK    3  A    between atoms: C_7  and  C_8
REMARK    4  A    between atoms: C_8  and  C_9
REMARK    5  A    between atoms: C_11  and  N_12
REMARK    6  A    between atoms: C_17  and  N_18
REMARK    7  A    between atoms: C_25  and  C_26
REMARK                            x       y       z     vdW  Elec       q    Type
REMARK                         _______ _______ _______ _____ _____    ______ ____
ROOT
ATOM      1  C   UNL     1      -4.641  12.848  19.410  0.00  0.00    +0.000 A 
ATOM      2  C   UNL     1      -4.740  12.073  18.240  0.00  0.00    +0.000 A 
ATOM      3  C   UNL     1      -3.713  11.210  17.844  0.00  0.00    +0.000 A 
ATOM      4  C   UNL     1      -2.602  11.091  18.674  0.00  0.00    +0.000 A 
ATOM      5  C   UNL     1      -2.398  12.013  19.716  0.00  0.00    +0.000 A 
ATOM      6  C   UNL     1      -3.452  12.815  20.146  0.00  0.00    +0.000 A 
ENDROOT
BRANCH   5   7
ATOM      7  N   UNL     1      -1.062  12.531  19.929  0.00  0.00    +0.000 N 
ATOM      8  C   UNL     1      -0.119  11.872  18.986  0.00  0.00    +0.000 C 
ATOM      9  C   UNL     1       0.510  10.801  19.818  0.00  0.00    +0.000 A 
ATOM     10  C   UNL     1       0.343  11.143  21.163  0.00  0.00    +0.000 A 
ATOM     11  C   UNL     1       0.613  10.271  22.194  0.00  0.00    +0.000 A 
ATOM     12  C   UNL     1       1.039   8.988  21.851  0.00  0.00    +0.000 A 
ATOM     13  C   UNL     1       1.219   8.628  20.495  0.00  0.00    +0.000 A 
ATOM     14  C   UNL     1       0.991   9.546  19.452  0.00  0.00    +0.000 A 
ATOM     15  C   UNL     1      -0.541  12.317  21.224  0.00  0.00    +0.000 C 
ATOM     16  O   UNL     1      -0.838  12.896  22.255  0.00  0.00    +0.000 OA
BRANCH  14  17
ATOM     17  C   UNL     1       1.184   9.131  18.015  0.00  0.00    +0.000 C 
ATOM     18  F   UNL     1       0.063   9.272  17.253  0.00  0.00    +0.000 F 
ATOM     19  F   UNL     1       2.142   9.873  17.393  0.00  0.00    +0.000 F 
ATOM     20  F   UNL     1       1.568   7.836  17.876  0.00  0.00    +0.000 F 
ENDBRANCH  14  17
ENDBRANCH   5   7
BRANCH   3  21
ATOM     21  N   UNL     1      -3.739  10.558  16.584  0.00  0.00    +0.000 N 
ATOM     22  C   UNL     1      -3.239  11.155  15.371  0.00  0.00    +0.000 C 
ATOM     23  C   UNL     1      -2.673   9.789  15.038  0.00  0.00    +0.000 C 
ATOM     24  O   UNL     1      -2.969   9.384  16.391  0.00  0.00    +0.000 OA
ENDBRANCH   3  21
BRANCH   1  25
ATOM     25  C   UNL     1      -5.787  13.750  19.804  0.00  0.00    +0.000 C 
BRANCH  25  26
ATOM     26  C   UNL     1      -7.046  13.026  20.295  0.00  0.00    +0.000 C 
BRANCH  26  32
ATOM     27  C   UNL     1      -7.917  15.195  22.373  0.00  0.00    +0.000 C 
ATOM     28  N   UNL     1      -7.459  13.862  22.665  0.00  0.00    +0.000 N 
ATOM     29  C   UNL     1      -7.290  13.335  23.907  0.00  0.00    +0.000 A 
ATOM     30  N   UNL     1      -6.875  12.095  23.804  0.00  0.00    +0.000 NA
ATOM     31  N   UNL     1      -6.747  11.810  22.466  0.00  0.00    +0.000 NA
ATOM     32  C   UNL     1      -7.093  12.881  21.778  0.00  0.00    +0.000 A 
ENDBRANCH  26  32
ENDBRANCH  25  26
ENDBRANCH   1  25
TORSDOF 6
ENDMDL
MODEL 9
REMARK VINA RESULT:      -7.3      2.380      3.316
REMARK  Name = 
REMARK  7 active torsions:
REMARK  status: ('A' for Active; 'I' for Inactive)
REMARK    1  A    between atoms: C_1  and  N_2
REMARK    2  A    between atoms: C_6  and  C_7
REMARK    3  A    between atoms: C_7  and  C_8
REMARK    4  A    between atoms: C_8  and  C_9
REMARK    5  A    between atoms: C_11  and  N_12
REMARK    6  A    between atoms: C_17  and  N_18
REMARK    7  A    between atoms: C_25  and  C_26
REMARK                            x       y       z     vdW  Elec       q    Type
REMARK                         _______ _______ _______ _____ _____    ______ ____
ROOT
ATOM      1  C   UNL     1      -4.060  11.304  18.272  0.00  0.00    +0.000 A 
ATOM      2  C   UNL     1      -4.227  11.132  16.886  0.00  0.00    +0.000 A 
ATOM      3  C   UNL     1      -3.190  10.653  16.078  0.00  0.00    +0.000 A 
ATOM      4  C   UNL     1      -1.996  10.291  16.692  0.00  0.00    +0.000 A 
ATOM      5  C   UNL     1      -1.747  10.662  18.026  0.00  0.00    +0.000 A 
ATOM      6  C   UNL     1      -2.802  11.069  18.838  0.00  0.00    +0.000 A 
ENDROOT
BRANCH   5   7
ATOM      7  N   UNL     1      -0.434  11.167  18.371  0.00  0.00    +0.000 N 
ATOM      8  C   UNL     1       0.159  10.315  19.437  0.00  0.00    +0.000 C 
ATOM      9  C   UNL     1      -0.115  11.088  20.688  0.00  0.00    +0.000 A 
ATOM     10  C   UNL     1      -0.349  12.419  20.332  0.00  0.00    +0.000 A 
ATOM     11  C   UNL     1      -0.843  13.352  21.218  0.00  0.00    +0.000 A 
ATOM     12  C   UNL     1      -1.141  12.914  22.507  0.00  0.00    +0.000 A 
ATOM     13  C   UNL     1      -0.904  11.571  22.884  0.00  0.00    +0.000 A 
ATOM     14  C   UNL     1      -0.349  10.640  21.986  0.00  0.00    +0.000 A 
ATOM     15  C   UNL     1      -0.417  12.490  18.865  0.00  0.00    +0.000 C 
ATOM     16  O   UNL     1      -0.556  13.525  18.236  0.00  0.00    +0.000 OA
BRANCH  14  17
ATOM     17  C   UNL     1      -0.114   9.214  22.414  0.00  0.00    +0.000 C 
ATOM     18  F   UNL     1      -0.999   8.330  21.872  0.00  0.00    +0.000 F 
ATOM     19  F   UNL     1       1.119   8.766  22.047  0.00  0.00    +0.000 F 
ATOM     20  F   UNL     1      -0.189   9.037  23.759  0.00  0.00    +0.000 F 
ENDBRANCH  14  17
ENDBRANCH   5   7
BRANCH   3  21
ATOM     21  N   UNL     1      -3.302  10.638  14.663  0.00  0.00    +0.000 N 
ATOM     22  C   UNL     1      -2.621   9.683  13.825  0.00  0.00    +0.000 C 
ATOM     23  C   UNL     1      -3.898   9.624  13.010  0.00  0.00    +0.000 C 
ATOM     24  O   UNL     1      -4.555  10.354  14.066  0.00  0.00    +0.000 OA
ENDBRANCH   3  21
BRANCH   1  25
ATOM     25  C   UNL     1      -5.217  11.807  19.105  0.00  0.00    +0.000 C 
BRANCH  25  26
ATOM     26  C   UNL     1      -5.010  13.186  19.742  0.00  0.00    +0.000 C 
BRANCH  26  32
ATOM     27  C   UNL     1      -3.965  15.369  21.722  0.00  0.00    +0.000 C 
ATOM     28  N   UNL     1      -4.586  14.120  22.073  0.00  0.00    +0.000 N 
ATOM     29  C   UNL     1      -4.786  13.660  23.337  0.00  0.00    +0.000 A 
ATOM     30  N   UNL     1      -5.389  12.496  23.290  0.00  0.00    +0.000 NA
ATOM     31  N   UNL     1      -5.567  12.174  21.966  0.00  0.00    +0.000 NA
ATOM     32  C   UNL     1      -5.075  13.153  21.231  0.00  0.00    +0.000 A 
ENDBRANCH  26  32
ENDBRANCH  25  26
ENDBRANCH   1  25
TORSDOF 6
ENDMDL
