MODEL 1
REMARK VINA RESULT:      -9.7      0.000      0.000
REMARK  Name = 
REMARK  3 active torsions:
REMARK  status: ('A' for Active; 'I' for Inactive)
REMARK    1  A    between atoms: C_2  and  C_14
REMARK    2  A    between atoms: N_3  and  C_4
REMARK    3  A    between atoms: N_8  and  C_9
REMARK                            x       y       z     vdW  Elec       q    Type
REMARK                         _______ _______ _______ _____ _____    ______ ____
ROOT
ATOM      1  C   UNL     1       1.174   9.549  18.967  0.00  0.00    +0.000 A 
ATOM      2  C   UNL     1       0.576  10.663  18.387  0.00  0.00    +0.000 A 
ATOM      3  C   UNL     1      -0.300  11.465  19.134  0.00  0.00    +0.000 A 
ATOM      4  C   UNL     1      -0.585  11.226  20.496  0.00  0.00    +0.000 A 
ATOM      5  C   UNL     1       0.036  10.091  21.022  0.00  0.00    +0.000 A 
ATOM      6  C   UNL     1       0.904   9.253  20.294  0.00  0.00    +0.000 A 
ATOM      7  S   UNL     1      -0.271   9.624  22.683  0.00  0.00    +0.000 S 
ATOM      8  O   UNL     1       1.009   9.771  23.350  0.00  0.00    +0.000 OA
ATOM      9  O   UNL     1      -0.894   8.320  22.578  0.00  0.00    +0.000 OA
ATOM     10  N   UNL     1      -1.309  10.667  23.281  0.00  0.00    +0.000 NA
ATOM     11  C   UNL     1      -1.739  11.688  22.618  0.00  0.00    +0.000 C 
ATOM     12  C   UNL     1      -2.647  12.546  23.526  0.00  0.00    +0.000 C 
ATOM     13  C   UNL     1      -3.772  13.326  22.878  0.00  0.00    +0.000 C 
ATOM     14  C   UNL     1      -3.274  14.644  22.304  0.00  0.00    +0.000 C 
ATOM     15  C   UNL     1      -1.995  14.497  21.498  0.00  0.00    +0.000 C 
ATOM     16  C   UNL     1      -1.994  13.245  20.631  0.00  0.00    +0.000 C 
ATOM     17  N   UNL     1      -1.411  12.058  21.301  0.00  0.00    +0.000 N 
ENDROOT
BRANCH   1  19
ATOM     18  O   UNL     1       2.375   9.017  17.007  0.00  0.00    +0.000 OA
ATOM     19  C   UNL     1       2.070   8.710  18.146  0.00  0.00    +0.000 C 
ATOM     20  N   UNL     1       2.462   7.465  18.737  0.00  0.00    +0.000 N 
ATOM     21  H   UNL     1       2.057   7.197  19.625  0.00  0.00    +0.000 HD
BRANCH  20  22
ATOM     22  C   UNL     1       3.294   6.553  18.101  0.00  0.00    +0.000 A 
ATOM     23  C   UNL     1       4.492   6.795  17.468  0.00  0.00    +0.000 A 
ATOM     24  C   UNL     1       4.921   5.544  16.996  0.00  0.00    +0.000 A 
ATOM     25  N   UNL     1       4.069   4.567  17.307  0.00  0.00    +0.000 NA
ATOM     26  N   UNL     1       3.081   5.195  17.979  0.00  0.00    +0.000 N 
BRANCH  26  27
ATOM     27  C   UNL     1       1.908   4.447  18.381  0.00  0.00    +0.000 C 
ATOM     28  C   UNL     1       1.711   4.351  19.893  0.00  0.00    +0.000 C 
ATOM     29  C   UNL     1       0.844   3.112  20.103  0.00  0.00    +0.000 C 
ATOM     30  C   UNL     1       0.896   2.308  18.805  0.00  0.00    +0.000 C 
ATOM     31  C   UNL     1       1.928   2.991  17.920  0.00  0.00    +0.000 C 
ENDBRANCH  26  27
ENDBRANCH  20  22
ENDBRANCH   1  19
TORSDOF 3
ENDMDL
MODEL 2
REMARK VINA RESULT:      -9.6      1.779      3.217
REMARK  Name = 
REMARK  3 active torsions:
REMARK  status: ('A' for Active; 'I' for Inactive)
REMARK    1  A    between atoms: C_2  and  C_14
REMARK    2  A    between atoms: N_3  and  C_4
REMARK    3  A    between atoms: N_8  and  C_9
REMARK                            x       y       z     vdW  Elec       q    Type
REMARK                         _______ _______ _______ _____ _____    ______ ____
ROOT
ATOM      1  C   UNL     1       1.742   8.261  19.487  0.00  0.00    +0.000 A 
ATOM      2  C   UNL     1       1.550   9.317  18.602  0.00  0.00    +0.000 A 
ATOM      3  C   UNL     1       0.884  10.480  19.021  0.00  0.00    +0.000 A 
ATOM      4  C   UNL     1       0.421  10.663  20.342  0.00  0.00    +0.000 A 
ATOM      5  C   UNL     1       0.633   9.568  21.182  0.00  0.00    +0.000 A 
ATOM      6  C   UNL     1       1.279   8.379  20.788  0.00  0.00    +0.000 A 
ATOM      7  S   UNL     1       0.057   9.619  22.836  0.00  0.00    +0.000 S 
ATOM      8  O   UNL     1       1.258   9.580  23.648  0.00  0.00    +0.000 OA
ATOM      9  O   UNL     1      -0.909   8.540  22.911  0.00  0.00    +0.000 OA
ATOM     10  N   UNL     1      -0.680  11.012  23.036  0.00  0.00    +0.000 NA
ATOM     11  C   UNL     1      -0.731  11.916  22.117  0.00  0.00    +0.000 C 
ATOM     12  C   UNL     1      -1.426  13.178  22.674  0.00  0.00    +0.000 C 
ATOM     13  C   UNL     1      -2.210  14.045  21.713  0.00  0.00    +0.000 C 
ATOM     14  C   UNL     1      -1.300  15.004  20.961  0.00  0.00    +0.000 C 
ATOM     15  C   UNL     1      -0.052  14.333  20.410  0.00  0.00    +0.000 C 
ATOM     16  C   UNL     1      -0.341  12.953  19.834  0.00  0.00    +0.000 C 
ATOM     17  N   UNL     1      -0.193  11.854  20.819  0.00  0.00    +0.000 N 
ENDROOT
BRANCH   1  19
ATOM     18  O   UNL     1       2.489   6.765  17.823  0.00  0.00    +0.000 OA
ATOM     19  C   UNL     1       2.422   7.042  19.007  0.00  0.00    +0.000 C 
ATOM     20  N   UNL     1       2.896   6.158  20.031  0.00  0.00    +0.000 N 
ATOM     21  H   UNL     1       2.680   6.367  20.996  0.00  0.00    +0.000 HD
BRANCH  20  22
ATOM     22  C   UNL     1       3.552   4.964  19.757  0.00  0.00    +0.000 A 
ATOM     23  C   UNL     1       3.085   3.680  19.929  0.00  0.00    +0.000 A 
ATOM     24  C   UNL     1       4.133   2.846  19.506  0.00  0.00    +0.000 A 
ATOM     25  N   UNL     1       5.192   3.538  19.086  0.00  0.00    +0.000 NA
ATOM     26  N   UNL     1       4.826   4.827  19.246  0.00  0.00    +0.000 N 
BRANCH  26  27
ATOM     27  C   UNL     1       5.791   5.877  18.991  0.00  0.00    +0.000 C 
ATOM     28  C   UNL     1       5.938   6.251  17.517  0.00  0.00    +0.000 C 
ATOM     29  C   UNL     1       7.324   6.882  17.403  0.00  0.00    +0.000 C 
ATOM     30  C   UNL     1       8.090   6.504  18.669  0.00  0.00    +0.000 C 
ATOM     31  C   UNL     1       7.211   5.515  19.420  0.00  0.00    +0.000 C 
ENDBRANCH  26  27
ENDBRANCH  20  22
ENDBRANCH   1  19
TORSDOF 3
ENDMDL
MODEL 3
REMARK VINA RESULT:      -9.6      1.429      2.927
REMARK  Name = 
REMARK  3 active torsions:
REMARK  status: ('A' for Active; 'I' for Inactive)
REMARK    1  A    between atoms: C_2  and  C_14
REMARK    2  A    between atoms: N_3  and  C_4
REMARK    3  A    between atoms: N_8  and  C_9
REMARK                            x       y       z     vdW  Elec       q    Type
REMARK                         _______ _______ _______ _____ _____    ______ ____
ROOT
ATOM      1  C   UNL     1       1.718   8.945  18.814  0.00  0.00    +0.000 A 
ATOM      2  C   UNL     1       1.479  10.162  18.184  0.00  0.00    +0.000 A 
ATOM      3  C   UNL     1       0.840  11.203  18.874  0.00  0.00    +0.000 A 
ATOM      4  C   UNL     1       0.451  11.099  20.227  0.00  0.00    +0.000 A 
ATOM      5  C   UNL     1       0.708   9.855  20.805  0.00  0.00    +0.000 A 
ATOM      6  C   UNL     1       1.329   8.782  20.134  0.00  0.00    +0.000 A 
ATOM      7  S   UNL     1       0.224   9.549  22.461  0.00  0.00    +0.000 S 
ATOM      8  O   UNL     1       1.470   9.352  23.179  0.00  0.00    +0.000 OA
ATOM      9  O   UNL     1      -0.738   8.470  22.360  0.00  0.00    +0.000 OA
ATOM     10  N   UNL     1      -0.497  10.861  22.991  0.00  0.00    +0.000 NA
ATOM     11  C   UNL     1      -0.598  11.938  22.287  0.00  0.00    +0.000 C 
ATOM     12  C   UNL     1      -1.258  13.048  23.136  0.00  0.00    +0.000 C 
ATOM     13  C   UNL     1      -2.094  14.090  22.423  0.00  0.00    +0.000 C 
ATOM     14  C   UNL     1      -1.225  15.195  21.842  0.00  0.00    +0.000 C 
ATOM     15  C   UNL     1      -0.011  14.667  21.094  0.00  0.00    +0.000 C 
ATOM     16  C   UNL     1      -0.334  13.437  20.257  0.00  0.00    +0.000 C 
ATOM     17  N   UNL     1      -0.134  12.157  20.978  0.00  0.00    +0.000 N 
ENDROOT
BRANCH   1  19
ATOM     18  O   UNL     1       2.769   8.026  16.912  0.00  0.00    +0.000 OA
ATOM     19  C   UNL     1       2.368   7.862  18.051  0.00  0.00    +0.000 C 
ATOM     20  N   UNL     1       2.394   6.582  18.697  0.00  0.00    +0.000 N 
ATOM     21  H   UNL     1       1.912   6.471  19.579  0.00  0.00    +0.000 HD
BRANCH  20  22
ATOM     22  C   UNL     1       2.960   5.453  18.119  0.00  0.00    +0.000 A 
ATOM     23  C   UNL     1       2.321   4.317  17.672  0.00  0.00    +0.000 A 
ATOM     24  C   UNL     1       3.343   3.487  17.183  0.00  0.00    +0.000 A 
ATOM     25  N   UNL     1       4.547   4.046  17.299  0.00  0.00    +0.000 NA
ATOM     26  N   UNL     1       4.300   5.242  17.873  0.00  0.00    +0.000 N 
BRANCH  26  27
ATOM     27  C   UNL     1       5.411   6.089  18.256  0.00  0.00    +0.000 C 
ATOM     28  C   UNL     1       6.047   6.856  17.097  0.00  0.00    +0.000 C 
ATOM     29  C   UNL     1       7.463   7.181  17.565  0.00  0.00    +0.000 C 
ATOM     30  C   UNL     1       7.753   6.281  18.765  0.00  0.00    +0.000 C 
ATOM     31  C   UNL     1       6.578   5.321  18.871  0.00  0.00    +0.000 C 
ENDBRANCH  26  27
ENDBRANCH  20  22
ENDBRANCH   1  19
TORSDOF 3
ENDMDL
MODEL 4
REMARK VINA RESULT:      -9.4      1.850      3.554
REMARK  Name = 
REMARK  3 active torsions:
REMARK  status: ('A' for Active; 'I' for Inactive)
REMARK    1  A    between atoms: C_2  and  C_14
REMARK    2  A    between atoms: N_3  and  C_4
REMARK    3  A    between atoms: N_8  and  C_9
REMARK                            x       y       z     vdW  Elec       q    Type
REMARK                         _______ _______ _______ _____ _____    ______ ____
ROOT
ATOM      1  C   UNL     1       2.120   7.445  19.505  0.00  0.00    +0.000 A 
ATOM      2  C   UNL     1       2.138   8.305  18.412  0.00  0.00    +0.000 A 
ATOM      3  C   UNL     1       1.583   9.590  18.513  0.00  0.00    +0.000 A 
ATOM      4  C   UNL     1       1.029  10.093  19.710  0.00  0.00    +0.000 A 
ATOM      5  C   UNL     1       1.031   9.184  20.770  0.00  0.00    +0.000 A 
ATOM      6  C   UNL     1       1.561   7.880  20.695  0.00  0.00    +0.000 A 
ATOM      7  S   UNL     1       0.319   9.638  22.305  0.00  0.00    +0.000 S 
ATOM      8  O   UNL     1       1.429   9.651  23.239  0.00  0.00    +0.000 OA
ATOM      9  O   UNL     1      -0.774   8.702  22.484  0.00  0.00    +0.000 OA
ATOM     10  N   UNL     1      -0.258  11.109  22.140  0.00  0.00    +0.000 NA
ATOM     11  C   UNL     1      -0.117  11.800  21.059  0.00  0.00    +0.000 C 
ATOM     12  C   UNL     1      -0.701  13.215  21.273  0.00  0.00    +0.000 C 
ATOM     13  C   UNL     1      -1.285  13.933  20.076  0.00  0.00    +0.000 C 
ATOM     14  C   UNL     1      -0.202  14.617  19.255  0.00  0.00    +0.000 C 
ATOM     15  C   UNL     1       1.000  13.723  18.993  0.00  0.00    +0.000 C 
ATOM     16  C   UNL     1       0.598  12.289  18.675  0.00  0.00    +0.000 C 
ATOM     17  N   UNL     1       0.523  11.413  19.868  0.00  0.00    +0.000 N 
ENDROOT
BRANCH   1  19
ATOM     18  O   UNL     1       3.602   5.694  20.057  0.00  0.00    +0.000 OA
ATOM     19  C   UNL     1       2.688   6.091  19.356  0.00  0.00    +0.000 C 
ATOM     20  N   UNL     1       2.168   5.321  18.265  0.00  0.00    +0.000 N 
ATOM     21  H   UNL     1       1.518   5.757  17.625  0.00  0.00    +0.000 HD
BRANCH  20  22
ATOM     22  C   UNL     1       2.595   4.030  17.976  0.00  0.00    +0.000 A 
ATOM     23  C   UNL     1       1.961   2.842  18.263  0.00  0.00    +0.000 A 
ATOM     24  C   UNL     1       2.810   1.840  17.763  0.00  0.00    +0.000 A 
ATOM     25  N   UNL     1       3.904   2.344  17.192  0.00  0.00    +0.000 NA
ATOM     26  N   UNL     1       3.762   3.679  17.330  0.00  0.00    +0.000 N 
BRANCH  26  27
ATOM     27  C   UNL     1       4.838   4.554  16.914  0.00  0.00    +0.000 C 
ATOM     28  C   UNL     1       5.437   4.212  15.551  0.00  0.00    +0.000 C 
ATOM     29  C   UNL     1       6.840   4.812  15.570  0.00  0.00    +0.000 C 
ATOM     30  C   UNL     1       7.173   5.118  17.029  0.00  0.00    +0.000 C 
ATOM     31  C   UNL     1       6.039   4.532  17.857  0.00  0.00    +0.000 C 
ENDBRANCH  26  27
ENDBRANCH  20  22
ENDBRANCH   1  19
TORSDOF 3
ENDMDL
MODEL 5
REMARK VINA RESULT:      -9.1      1.988      2.639
REMARK  Name = 
REMARK  3 active torsions:
REMARK  status: ('A' for Active; 'I' for Inactive)
REMARK    1  A    between atoms: C_2  and  C_14
REMARK    2  A    between atoms: N_3  and  C_4
REMARK    3  A    between atoms: N_8  and  C_9
REMARK                            x       y       z     vdW  Elec       q    Type
REMARK                         _______ _______ _______ _____ _____    ______ ____
ROOT
ATOM      1  C   UNL     1       1.290   9.667  19.162  0.00  0.00    +0.000 A 
ATOM      2  C   UNL     1       0.773   9.182  20.359  0.00  0.00    +0.000 A 
ATOM      3  C   UNL     1       0.071  10.036  21.224  0.00  0.00    +0.000 A 
ATOM      4  C   UNL     1      -0.187  11.390  20.920  0.00  0.00    +0.000 A 
ATOM      5  C   UNL     1       0.362  11.822  19.711  0.00  0.00    +0.000 A 
ATOM      6  C   UNL     1       1.090  10.997  18.830  0.00  0.00    +0.000 A 
ATOM      7  S   UNL     1       0.182  13.496  19.224  0.00  0.00    +0.000 S 
ATOM      8  O   UNL     1      -0.634  13.447  18.026  0.00  0.00    +0.000 OA
ATOM      9  O   UNL     1       1.540  13.999  19.162  0.00  0.00    +0.000 OA
ATOM     10  N   UNL     1      -0.612  14.240  20.382  0.00  0.00    +0.000 NA
ATOM     11  C   UNL     1      -1.070  13.630  21.422  0.00  0.00    +0.000 C 
ATOM     12  C   UNL     1      -1.875  14.623  22.289  0.00  0.00    +0.000 C 
ATOM     13  C   UNL     1      -1.908  14.401  23.786  0.00  0.00    +0.000 C 
ATOM     14  C   UNL     1      -2.959  13.372  24.172  0.00  0.00    +0.000 C 
ATOM     15  C   UNL     1      -2.924  12.128  23.299  0.00  0.00    +0.000 C 
ATOM     16  C   UNL     1      -1.503  11.679  22.985  0.00  0.00    +0.000 C 
ATOM     17  N   UNL     1      -0.955  12.264  21.738  0.00  0.00    +0.000 N 
ENDROOT
BRANCH   1  19
ATOM     18  O   UNL     1       2.156   8.942  17.090  0.00  0.00    +0.000 OA
ATOM     19  C   UNL     1       2.047   8.749  18.288  0.00  0.00    +0.000 C 
ATOM     20  N   UNL     1       2.545   7.564  18.923  0.00  0.00    +0.000 N 
ATOM     21  H   UNL     1       2.296   7.385  19.886  0.00  0.00    +0.000 HD
BRANCH  20  22
ATOM     22  C   UNL     1       3.272   6.591  18.248  0.00  0.00    +0.000 A 
ATOM     23  C   UNL     1       4.402   6.755  17.479  0.00  0.00    +0.000 A 
ATOM     24  C   UNL     1       4.733   5.467  17.027  0.00  0.00    +0.000 A 
ATOM     25  N   UNL     1       3.885   4.541  17.477  0.00  0.00    +0.000 NA
ATOM     26  N   UNL     1       2.999   5.239  18.217  0.00  0.00    +0.000 N 
BRANCH  26  27
ATOM     27  C   UNL     1       1.850   4.558  18.779  0.00  0.00    +0.000 C 
ATOM     28  C   UNL     1       1.948   4.295  20.281  0.00  0.00    +0.000 C 
ATOM     29  C   UNL     1       1.003   3.124  20.541  0.00  0.00    +0.000 C 
ATOM     30  C   UNL     1       0.702   2.485  19.187  0.00  0.00    +0.000 C 
ATOM     31  C   UNL     1       1.610   3.175  18.179  0.00  0.00    +0.000 C 
ENDBRANCH  26  27
ENDBRANCH  20  22
ENDBRANCH   1  19
TORSDOF 3
ENDMDL
MODEL 6
REMARK VINA RESULT:      -9.1      2.347      3.983
REMARK  Name = 
REMARK  3 active torsions:
REMARK  status: ('A' for Active; 'I' for Inactive)
REMARK    1  A    between atoms: C_2  and  C_14
REMARK    2  A    between atoms: N_3  and  C_4
REMARK    3  A    between atoms: N_8  and  C_9
REMARK                            x       y       z     vdW  Elec       q    Type
REMARK                         _______ _______ _______ _____ _____    ______ ____
ROOT
ATOM      1  C   UNL     1       1.621   7.993  19.929  0.00  0.00    +0.000 A 
ATOM      2  C   UNL     1       1.160   7.915  21.239  0.00  0.00    +0.000 A 
ATOM      3  C   UNL     1       0.514   9.012  21.829  0.00  0.00    +0.000 A 
ATOM      4  C   UNL     1       0.257  10.214  21.134  0.00  0.00    +0.000 A 
ATOM      5  C   UNL     1       0.749  10.237  19.827  0.00  0.00    +0.000 A 
ATOM      6  C   UNL     1       1.420   9.161  19.212  0.00  0.00    +0.000 A 
ATOM      7  S   UNL     1       0.564  11.685  18.856  0.00  0.00    +0.000 S 
ATOM      8  O   UNL     1      -0.313  11.291  17.769  0.00  0.00    +0.000 OA
ATOM      9  O   UNL     1       1.924  12.106  18.580  0.00  0.00    +0.000 OA
ATOM     10  N   UNL     1      -0.159  12.771  19.762  0.00  0.00    +0.000 NA
ATOM     11  C   UNL     1      -0.571  12.523  20.959  0.00  0.00    +0.000 C 
ATOM     12  C   UNL     1      -1.318  13.757  21.512  0.00  0.00    +0.000 C 
ATOM     13  C   UNL     1      -1.276  14.007  23.005  0.00  0.00    +0.000 C 
ATOM     14  C   UNL     1      -2.319  13.176  23.737  0.00  0.00    +0.000 C 
ATOM     15  C   UNL     1      -2.344  11.724  23.290  0.00  0.00    +0.000 C 
ATOM     16  C   UNL     1      -0.947  11.161  23.066  0.00  0.00    +0.000 C 
ATOM     17  N   UNL     1      -0.457  11.318  21.676  0.00  0.00    +0.000 N 
ENDROOT
BRANCH   1  19
ATOM     18  O   UNL     1       2.313   6.605  18.151  0.00  0.00    +0.000 OA
ATOM     19  C   UNL     1       2.320   6.830  19.348  0.00  0.00    +0.000 C 
ATOM     20  N   UNL     1       2.909   5.928  20.295  0.00  0.00    +0.000 N 
ATOM     21  H   UNL     1       2.754   6.087  21.282  0.00  0.00    +0.000 HD
BRANCH  20  22
ATOM     22  C   UNL     1       3.598   4.781  19.922  0.00  0.00    +0.000 A 
ATOM     23  C   UNL     1       3.208   3.469  20.076  0.00  0.00    +0.000 A 
ATOM     24  C   UNL     1       4.258   2.706  19.540  0.00  0.00    +0.000 A 
ATOM     25  N   UNL     1       5.246   3.467  19.069  0.00  0.00    +0.000 NA
ATOM     26  N   UNL     1       4.832   4.729  19.310  0.00  0.00    +0.000 N 
BRANCH  26  27
ATOM     27  C   UNL     1       5.723   5.835  19.025  0.00  0.00    +0.000 C 
ATOM     28  C   UNL     1       5.784   6.228  17.549  0.00  0.00    +0.000 C 
ATOM     29  C   UNL     1       7.125   6.940  17.383  0.00  0.00    +0.000 C 
ATOM     30  C   UNL     1       7.965   6.599  18.612  0.00  0.00    +0.000 C 
ATOM     31  C   UNL     1       7.178   5.554  19.390  0.00  0.00    +0.000 C 
ENDBRANCH  26  27
ENDBRANCH  20  22
ENDBRANCH   1  19
TORSDOF 3
ENDMDL
MODEL 7
REMARK VINA RESULT:      -8.9      2.040      2.624
REMARK  Name = 
REMARK  3 active torsions:
REMARK  status: ('A' for Active; 'I' for Inactive)
REMARK    1  A    between atoms: C_2  and  C_14
REMARK    2  A    between atoms: N_3  and  C_4
REMARK    3  A    between atoms: N_8  and  C_9
REMARK                            x       y       z     vdW  Elec       q    Type
REMARK                         _______ _______ _______ _____ _____    ______ ____
ROOT
ATOM      1  C   UNL     1       0.893   9.643  18.805  0.00  0.00    +0.000 A 
ATOM      2  C   UNL     1       1.163  10.137  20.077  0.00  0.00    +0.000 A 
ATOM      3  C   UNL     1       0.224  10.945  20.736  0.00  0.00    +0.000 A 
ATOM      4  C   UNL     1      -1.036  11.262  20.184  0.00  0.00    +0.000 A 
ATOM      5  C   UNL     1      -1.248  10.746  18.904  0.00  0.00    +0.000 A 
ATOM      6  C   UNL     1      -0.319   9.949  18.206  0.00  0.00    +0.000 A 
ATOM      7  S   UNL     1      -2.741  11.106  18.060  0.00  0.00    +0.000 S 
ATOM      8  O   UNL     1      -3.405   9.824  17.920  0.00  0.00    +0.000 OA
ATOM      9  O   UNL     1      -2.318  11.840  16.883  0.00  0.00    +0.000 OA
ATOM     10  N   UNL     1      -3.599  12.054  19.002  0.00  0.00    +0.000 NA
ATOM     11  C   UNL     1      -3.223  12.387  20.191  0.00  0.00    +0.000 C 
ATOM     12  C   UNL     1      -4.332  13.224  20.866  0.00  0.00    +0.000 C 
ATOM     13  C   UNL     1      -3.919  14.271  21.879  0.00  0.00    +0.000 C 
ATOM     14  C   UNL     1      -3.691  13.656  23.251  0.00  0.00    +0.000 C 
ATOM     15  C   UNL     1      -2.856  12.387  23.204  0.00  0.00    +0.000 C 
ATOM     16  C   UNL     1      -1.700  12.489  22.218  0.00  0.00    +0.000 C 
ATOM     17  N   UNL     1      -2.038  12.018  20.853  0.00  0.00    +0.000 N 
ENDROOT
BRANCH   1  19
ATOM     18  O   UNL     1       2.401   9.144  17.061  0.00  0.00    +0.000 OA
ATOM     19  C   UNL     1       1.913   8.818  18.128  0.00  0.00    +0.000 C 
ATOM     20  N   UNL     1       2.204   7.562  18.754  0.00  0.00    +0.000 N 
ATOM     21  H   UNL     1       1.658   7.279  19.558  0.00  0.00    +0.000 HD
BRANCH  20  22
ATOM     22  C   UNL     1       3.131   6.659  18.249  0.00  0.00    +0.000 A 
ATOM     23  C   UNL     1       4.347   6.931  17.662  0.00  0.00    +0.000 A 
ATOM     24  C   UNL     1       4.884   5.677  17.328  0.00  0.00    +0.000 A 
ATOM     25  N   UNL     1       4.080   4.673  17.678  0.00  0.00    +0.000 NA
ATOM     26  N   UNL     1       3.015   5.285  18.236  0.00  0.00    +0.000 N 
BRANCH  26  27
ATOM     27  C   UNL     1       1.870   4.494  18.638  0.00  0.00    +0.000 C 
ATOM     28  C   UNL     1       1.806   4.196  20.135  0.00  0.00    +0.000 C 
ATOM     29  C   UNL     1       0.943   2.942  20.255  0.00  0.00    +0.000 C 
ATOM     30  C   UNL     1       0.867   2.319  18.862  0.00  0.00    +0.000 C 
ATOM     31  C   UNL     1       1.827   3.113  17.988  0.00  0.00    +0.000 C 
ENDBRANCH  26  27
ENDBRANCH  20  22
ENDBRANCH   1  19
TORSDOF 3
ENDMDL
MODEL 8
REMARK VINA RESULT:      -8.9      2.196      3.622
REMARK  Name = 
REMARK  3 active torsions:
REMARK  status: ('A' for Active; 'I' for Inactive)
REMARK    1  A    between atoms: C_2  and  C_14
REMARK    2  A    between atoms: N_3  and  C_4
REMARK    3  A    between atoms: N_8  and  C_9
REMARK                            x       y       z     vdW  Elec       q    Type
REMARK                         _______ _______ _______ _____ _____    ______ ____
ROOT
ATOM      1  C   UNL     1       2.019   7.454  19.093  0.00  0.00    +0.000 A 
ATOM      2  C   UNL     1       2.092   8.346  18.028  0.00  0.00    +0.000 A 
ATOM      3  C   UNL     1       1.699   9.682  18.195  0.00  0.00    +0.000 A 
ATOM      4  C   UNL     1       1.260  10.202  19.432  0.00  0.00    +0.000 A 
ATOM      5  C   UNL     1       1.200   9.261  20.462  0.00  0.00    +0.000 A 
ATOM      6  C   UNL     1       1.567   7.908  20.321  0.00  0.00    +0.000 A 
ATOM      7  S   UNL     1       0.613   9.739  22.042  0.00  0.00    +0.000 S 
ATOM      8  O   UNL     1       1.756   9.587  22.922  0.00  0.00    +0.000 OA
ATOM      9  O   UNL     1      -0.574   8.931  22.242  0.00  0.00    +0.000 OA
ATOM     10  N   UNL     1       0.208  11.272  21.950  0.00  0.00    +0.000 NA
ATOM     11  C   UNL     1       0.383  11.981  20.886  0.00  0.00    +0.000 C 
ATOM     12  C   UNL     1      -0.019  13.445  21.172  0.00  0.00    +0.000 C 
ATOM     13  C   UNL     1      -0.565  14.271  20.026  0.00  0.00    +0.000 C 
ATOM     14  C   UNL     1       0.556  14.853  19.178  0.00  0.00    +0.000 C 
ATOM     15  C   UNL     1       1.631  13.835  18.832  0.00  0.00    +0.000 C 
ATOM     16  C   UNL     1       1.049  12.470  18.488  0.00  0.00    +0.000 C 
ATOM     17  N   UNL     1       0.922  11.565  19.655  0.00  0.00    +0.000 N 
ENDROOT
BRANCH   1  19
ATOM     18  O   UNL     1       1.937   5.375  17.981  0.00  0.00    +0.000 OA
ATOM     19  C   UNL     1       2.416   6.049  18.876  0.00  0.00    +0.000 C 
ATOM     20  N   UNL     1       3.313   5.504  19.852  0.00  0.00    +0.000 N 
ATOM     21  H   UNL     1       3.560   6.066  20.656  0.00  0.00    +0.000 HD
BRANCH  20  22
ATOM     22  C   UNL     1       3.782   4.197  19.804  0.00  0.00    +0.000 A 
ATOM     23  C   UNL     1       3.340   3.110  20.525  0.00  0.00    +0.000 A 
ATOM     24  C   UNL     1       4.144   2.037  20.107  0.00  0.00    +0.000 A 
ATOM     25  N   UNL     1       5.032   2.402  19.182  0.00  0.00    +0.000 NA
ATOM     26  N   UNL     1       4.802   3.720  19.008  0.00  0.00    +0.000 N 
BRANCH  26  27
ATOM     27  C   UNL     1       5.673   4.485  18.140  0.00  0.00    +0.000 C 
ATOM     28  C   UNL     1       6.151   5.809  18.735  0.00  0.00    +0.000 C 
ATOM     29  C   UNL     1       6.521   6.675  17.534  0.00  0.00    +0.000 C 
ATOM     30  C   UNL     1       5.890   6.024  16.304  0.00  0.00    +0.000 C 
ATOM     31  C   UNL     1       5.016   4.891  16.823  0.00  0.00    +0.000 C 
ENDBRANCH  26  27
ENDBRANCH  20  22
ENDBRANCH   1  19
TORSDOF 3
ENDMDL
MODEL 9
REMARK VINA RESULT:      -8.9      2.142      3.934
REMARK  Name = 
REMARK  3 active torsions:
REMARK  status: ('A' for Active; 'I' for Inactive)
REMARK    1  A    between atoms: C_2  and  C_14
REMARK    2  A    between atoms: N_3  and  C_4
REMARK    3  A    between atoms: N_8  and  C_9
REMARK                            x       y       z     vdW  Elec       q    Type
REMARK                         _______ _______ _______ _____ _____    ______ ____
ROOT
ATOM      1  C   UNL     1       1.451   7.716  20.379  0.00  0.00    +0.000 A 
ATOM      2  C   UNL     1       0.972   7.818  21.681  0.00  0.00    +0.000 A 
ATOM      3  C   UNL     1       0.360   9.003  22.119  0.00  0.00    +0.000 A 
ATOM      4  C   UNL     1       0.158  10.118  21.276  0.00  0.00    +0.000 A 
ATOM      5  C   UNL     1       0.667   9.961  19.985  0.00  0.00    +0.000 A 
ATOM      6  C   UNL     1       1.304   8.793  19.520  0.00  0.00    +0.000 A 
ATOM      7  S   UNL     1       0.550  11.282  18.839  0.00  0.00    +0.000 S 
ATOM      8  O   UNL     1      -0.328  10.789  17.795  0.00  0.00    +0.000 OA
ATOM      9  O   UNL     1       1.928  11.616  18.537  0.00  0.00    +0.000 OA
ATOM     10  N   UNL     1      -0.143  12.498  19.591  0.00  0.00    +0.000 NA
ATOM     11  C   UNL     1      -0.578  12.416  20.803  0.00  0.00    +0.000 C 
ATOM     12  C   UNL     1      -1.285  13.735  21.186  0.00  0.00    +0.000 C 
ATOM     13  C   UNL     1      -1.252  14.167  22.637  0.00  0.00    +0.000 C 
ATOM     14  C   UNL     1      -2.335  13.472  23.448  0.00  0.00    +0.000 C 
ATOM     15  C   UNL     1      -2.410  11.977  23.184  0.00  0.00    +0.000 C 
ATOM     16  C   UNL     1      -1.033  11.340  23.056  0.00  0.00    +0.000 C 
ATOM     17  N   UNL     1      -0.520  11.306  21.665  0.00  0.00    +0.000 N 
ENDROOT
BRANCH   1  19
ATOM     18  O   UNL     1       2.423   5.599  20.758  0.00  0.00    +0.000 OA
ATOM     19  C   UNL     1       2.113   6.465  19.959  0.00  0.00    +0.000 C 
ATOM     20  N   UNL     1       2.464   6.390  18.571  0.00  0.00    +0.000 N 
ATOM     21  H   UNL     1       2.316   7.202  17.985  0.00  0.00    +0.000 HD
BRANCH  20  22
ATOM     22  C   UNL     1       3.098   5.289  18.007  0.00  0.00    +0.000 A 
ATOM     23  C   UNL     1       2.526   4.126  17.543  0.00  0.00    +0.000 A 
ATOM     24  C   UNL     1       3.598   3.346  17.081  0.00  0.00    +0.000 A 
ATOM     25  N   UNL     1       4.771   3.961  17.229  0.00  0.00    +0.000 NA
ATOM     26  N   UNL     1       4.453   5.143  17.796  0.00  0.00    +0.000 N 
BRANCH  26  27
ATOM     27  C   UNL     1       5.512   6.041  18.210  0.00  0.00    +0.000 C 
ATOM     28  C   UNL     1       6.104   6.879  17.077  0.00  0.00    +0.000 C 
ATOM     29  C   UNL     1       7.498   7.272  17.560  0.00  0.00    +0.000 C 
ATOM     30  C   UNL     1       7.838   6.353  18.732  0.00  0.00    +0.000 C 
ATOM     31  C   UNL     1       6.721   5.323  18.805  0.00  0.00    +0.000 C 
ENDBRANCH  26  27
ENDBRANCH  20  22
ENDBRANCH   1  19
TORSDOF 3
ENDMDL
