MODEL 1
REMARK VINA RESULT:      -8.0      0.000      0.000
REMARK  Name = 
REMARK  9 active torsions:
REMARK  status: ('A' for Active; 'I' for Inactive)
REMARK    1  A    between atoms: C_1  and  N_2
REMARK    2  A    between atoms: N_2  and  C_3
REMARK    3  A    between atoms: N_2  and  C_10
REMARK    4  A    between atoms: C_3  and  C_4
REMARK    5  A    between atoms: N_8  and  C_9
REMARK    6  A    between atoms: C_14  and  N_15
REMARK    7  A    between atoms: C_20  and  C_21
REMARK    8  A    between atoms: C_21  and  N_22
REMARK    9  A    between atoms: C_24  and  C_25
REMARK                            x       y       z     vdW  Elec       q    Type
REMARK                         _______ _______ _______ _____ _____    ______ ____
ROOT
ATOM      1  N   UNL     1       3.832   4.924  19.310  0.00  0.00    +0.000 N 
ATOM      2  C   UNL     1       5.218   5.450  19.424  0.00  0.00    +0.000 C 
ATOM      3  C   UNL     1       5.786   5.132  18.073  0.00  0.00    +0.000 A 
ATOM      4  C   UNL     1       5.112   4.006  17.594  0.00  0.00    +0.000 A 
ATOM      5  C   UNL     1       5.249   3.534  16.299  0.00  0.00    +0.000 A 
ATOM      6  C   UNL     1       6.087   4.248  15.434  0.00  0.00    +0.000 A 
ATOM      7  C   UNL     1       6.757   5.405  15.910  0.00  0.00    +0.000 A 
ATOM      8  C   UNL     1       6.620   5.868  17.238  0.00  0.00    +0.000 A 
ATOM      9  C   UNL     1       3.945   3.768  18.479  0.00  0.00    +0.000 C 
ATOM     10  O   UNL     1       3.153   2.859  18.327  0.00  0.00    +0.000 OA
ENDROOT
BRANCH   1  15
ATOM     11  C   UNL     1       1.840   7.987  19.655  0.00  0.00    +0.000 A 
ATOM     12  C   UNL     1       2.379   8.652  18.542  0.00  0.00    +0.000 A 
ATOM     13  C   UNL     1       3.026   7.971  17.508  0.00  0.00    +0.000 A 
ATOM     14  C   UNL     1       3.245   6.608  17.608  0.00  0.00    +0.000 A 
ATOM     15  C   UNL     1       2.943   5.963  18.812  0.00  0.00    +0.000 A 
ATOM     16  C   UNL     1       2.108   6.608  19.740  0.00  0.00    +0.000 A 
BRANCH  11  18
ATOM     17  C   UNL     1       1.634   8.747  21.993  0.00  0.00    +0.000 C 
ATOM     18  N   UNL     1       1.111   8.666  20.631  0.00  0.00    +0.000 N 
BRANCH  18  19
ATOM     19  C   UNL     1       0.164   9.728  20.246  0.00  0.00    +0.000 C 
BRANCH  19  20
ATOM     20  C   UNL     1       0.392  11.104  20.802  0.00  0.00    +0.000 A 
ATOM     21  N   UNL     1      -0.064  11.589  21.942  0.00  0.00    +0.000 NA
ATOM     22  N   UNL     1       0.279  12.920  22.016  0.00  0.00    +0.000 NA
ATOM     23  C   UNL     1       0.936  13.222  20.922  0.00  0.00    +0.000 A 
ATOM     24  N   UNL     1       1.041  12.117  20.137  0.00  0.00    +0.000 N 
ATOM     25  C   UNL     1       1.670  12.065  18.844  0.00  0.00    +0.000 C 
ENDBRANCH  19  20
ENDBRANCH  18  19
ENDBRANCH  11  18
ENDBRANCH   1  15
BRANCH   8  26
ATOM     26  C   UNL     1       7.255   7.180  17.630  0.00  0.00    +0.000 C 
ATOM     27  F   UNL     1       6.363   8.177  17.849  0.00  0.00    +0.000 F 
ATOM     28  F   UNL     1       7.975   7.067  18.782  0.00  0.00    +0.000 F 
ATOM     29  F   UNL     1       8.130   7.625  16.686  0.00  0.00    +0.000 F 
ENDBRANCH   8  26
BRANCH   6  30
ATOM     30  C   UNL     1       6.173   3.877  13.974  0.00  0.00    +0.000 C 
BRANCH  30  31
ATOM     31  N   UNL     1       7.155   4.699  13.278  0.00  0.00    +0.000 NA
ATOM     32  H   UNL     1       8.060   4.230  13.301  0.00  0.00    +0.000 HD
ATOM     33  H   UNL     1       7.280   5.571  13.791  0.00  0.00    +0.000 HD
ENDBRANCH  30  31
ENDBRANCH   6  30
TORSDOF 7
ENDMDL
MODEL 2
REMARK VINA RESULT:      -8.0      1.303      1.797
REMARK  Name = 
REMARK  9 active torsions:
REMARK  status: ('A' for Active; 'I' for Inactive)
REMARK    1  A    between atoms: C_1  and  N_2
REMARK    2  A    between atoms: N_2  and  C_3
REMARK    3  A    between atoms: N_2  and  C_10
REMARK    4  A    between atoms: C_3  and  C_4
REMARK    5  A    between atoms: N_8  and  C_9
REMARK    6  A    between atoms: C_14  and  N_15
REMARK    7  A    between atoms: C_20  and  C_21
REMARK    8  A    between atoms: C_21  and  N_22
REMARK    9  A    between atoms: C_24  and  C_25
REMARK                            x       y       z     vdW  Elec       q    Type
REMARK                         _______ _______ _______ _____ _____    ______ ____
ROOT
ATOM      1  N   UNL     1       3.768   5.037  19.222  0.00  0.00    +0.000 N 
ATOM      2  C   UNL     1       5.165   5.522  19.378  0.00  0.00    +0.000 C 
ATOM      3  C   UNL     1       5.772   5.161  18.055  0.00  0.00    +0.000 A 
ATOM      4  C   UNL     1       5.080   4.047  17.571  0.00  0.00    +0.000 A 
ATOM      5  C   UNL     1       5.250   3.547  16.291  0.00  0.00    +0.000 A 
ATOM      6  C   UNL     1       6.141   4.217  15.445  0.00  0.00    +0.000 A 
ATOM      7  C   UNL     1       6.830   5.362  15.924  0.00  0.00    +0.000 A 
ATOM      8  C   UNL     1       6.659   5.854  17.238  0.00  0.00    +0.000 A 
ATOM      9  C   UNL     1       3.875   3.862  18.417  0.00  0.00    +0.000 C 
ATOM     10  O   UNL     1       3.061   2.975  18.252  0.00  0.00    +0.000 OA
ENDROOT
BRANCH   1  15
ATOM     11  C   UNL     1       1.884   8.179  19.432  0.00  0.00    +0.000 A 
ATOM     12  C   UNL     1       2.475   8.793  18.316  0.00  0.00    +0.000 A 
ATOM     13  C   UNL     1       3.122   8.060  17.318  0.00  0.00    +0.000 A 
ATOM     14  C   UNL     1       3.288   6.693  17.461  0.00  0.00    +0.000 A 
ATOM     15  C   UNL     1       2.931   6.094  18.673  0.00  0.00    +0.000 A 
ATOM     16  C   UNL     1       2.098   6.794  19.560  0.00  0.00    +0.000 A 
BRANCH  11  18
ATOM     17  C   UNL     1       1.179   8.507  21.773  0.00  0.00    +0.000 C 
ATOM     18  N   UNL     1       1.155   8.911  20.369  0.00  0.00    +0.000 N 
BRANCH  18  19
ATOM     19  C   UNL     1       0.834  10.328  20.118  0.00  0.00    +0.000 C 
BRANCH  19  20
ATOM     20  C   UNL     1      -0.457  10.639  19.418  0.00  0.00    +0.000 A 
ATOM     21  N   UNL     1      -0.844  10.210  18.230  0.00  0.00    +0.000 NA
ATOM     22  N   UNL     1      -2.037  10.820  17.915  0.00  0.00    +0.000 NA
ATOM     23  C   UNL     1      -2.356  11.608  18.914  0.00  0.00    +0.000 A 
ATOM     24  N   UNL     1      -1.404  11.521  19.881  0.00  0.00    +0.000 N 
ATOM     25  C   UNL     1      -1.393  12.261  21.115  0.00  0.00    +0.000 C 
ENDBRANCH  19  20
ENDBRANCH  18  19
ENDBRANCH  11  18
ENDBRANCH   1  15
BRANCH   8  26
ATOM     26  C   UNL     1       7.321   7.152  17.630  0.00  0.00    +0.000 C 
ATOM     27  F   UNL     1       8.055   7.072  18.768  0.00  0.00    +0.000 F 
ATOM     28  F   UNL     1       8.177   7.594  16.667  0.00  0.00    +0.000 F 
ATOM     29  F   UNL     1       6.414   8.153  17.809  0.00  0.00    +0.000 F 
ENDBRANCH   8  26
BRANCH   6  30
ATOM     30  C   UNL     1       6.268   3.816  13.996  0.00  0.00    +0.000 C 
BRANCH  30  31
ATOM     31  N   UNL     1       7.151   4.722  13.273  0.00  0.00    +0.000 NA
ATOM     32  H   UNL     1       8.080   4.689  13.692  0.00  0.00    +0.000 HD
ATOM     33  H   UNL     1       6.821   5.678  13.402  0.00  0.00    +0.000 HD
ENDBRANCH  30  31
ENDBRANCH   6  30
TORSDOF 7
ENDMDL
MODEL 3
REMARK VINA RESULT:      -8.0      6.821      9.542
REMARK  Name = 
REMARK  9 active torsions:
REMARK  status: ('A' for Active; 'I' for Inactive)
REMARK    1  A    between atoms: C_1  and  N_2
REMARK    2  A    between atoms: N_2  and  C_3
REMARK    3  A    between atoms: N_2  and  C_10
REMARK    4  A    between atoms: C_3  and  C_4
REMARK    5  A    between atoms: N_8  and  C_9
REMARK    6  A    between atoms: C_14  and  N_15
REMARK    7  A    between atoms: C_20  and  C_21
REMARK    8  A    between atoms: C_21  and  N_22
REMARK    9  A    between atoms: C_24  and  C_25
REMARK                            x       y       z     vdW  Elec       q    Type
REMARK                         _______ _______ _______ _____ _____    ______ ____
ROOT
ATOM      1  N   UNL     1      -0.363  11.582  18.689  0.00  0.00    +0.000 N 
ATOM      2  C   UNL     1       0.438  10.832  19.692  0.00  0.00    +0.000 C 
ATOM      3  C   UNL     1      -0.166  11.295  20.985  0.00  0.00    +0.000 A 
ATOM      4  C   UNL     1      -0.669  12.581  20.770  0.00  0.00    +0.000 A 
ATOM      5  C   UNL     1      -1.455  13.251  21.693  0.00  0.00    +0.000 A 
ATOM      6  C   UNL     1      -1.773  12.583  22.881  0.00  0.00    +0.000 A 
ATOM      7  C   UNL     1      -1.284  11.268  23.094  0.00  0.00    +0.000 A 
ATOM      8  C   UNL     1      -0.471  10.600  22.151  0.00  0.00    +0.000 A 
ATOM      9  C   UNL     1      -0.648  12.836  19.309  0.00  0.00    +0.000 C 
ATOM     10  O   UNL     1      -1.026  13.871  18.796  0.00  0.00    +0.000 OA
ENDROOT
BRANCH   1  15
ATOM     11  C   UNL     1      -3.922  11.165  17.898  0.00  0.00    +0.000 A 
ATOM     12  C   UNL     1      -3.736  10.523  16.663  0.00  0.00    +0.000 A 
ATOM     13  C   UNL     1      -2.539   9.887  16.328  0.00  0.00    +0.000 A 
ATOM     14  C   UNL     1      -1.452   9.964  17.181  0.00  0.00    +0.000 A 
ATOM     15  C   UNL     1      -1.528  10.803  18.297  0.00  0.00    +0.000 A 
ATOM     16  C   UNL     1      -2.788  11.251  18.726  0.00  0.00    +0.000 A 
BRANCH  11  18
ATOM     17  C   UNL     1      -6.332  10.848  18.325  0.00  0.00    +0.000 C 
ATOM     18  N   UNL     1      -5.154  11.711  18.261  0.00  0.00    +0.000 N 
BRANCH  18  19
ATOM     19  C   UNL     1      -5.211  12.933  19.084  0.00  0.00    +0.000 C 
BRANCH  19  20
ATOM     20  C   UNL     1      -5.850  12.834  20.438  0.00  0.00    +0.000 A 
ATOM     21  N   UNL     1      -5.421  12.136  21.474  0.00  0.00    +0.000 NA
ATOM     22  N   UNL     1      -6.357  12.229  22.479  0.00  0.00    +0.000 NA
ATOM     23  C   UNL     1      -7.338  12.981  22.040  0.00  0.00    +0.000 A 
ATOM     24  N   UNL     1      -7.061  13.391  20.772  0.00  0.00    +0.000 N 
ATOM     25  C   UNL     1      -7.916  14.206  19.952  0.00  0.00    +0.000 C 
ENDBRANCH  19  20
ENDBRANCH  18  19
ENDBRANCH  11  18
ENDBRANCH   1  15
BRANCH   8  26
ATOM     26  C   UNL     1      -0.102   9.156  22.387  0.00  0.00    +0.000 C 
ATOM     27  F   UNL     1      -0.338   8.730  23.653  0.00  0.00    +0.000 F 
ATOM     28  F   UNL     1      -0.804   8.316  21.576  0.00  0.00    +0.000 F 
ATOM     29  F   UNL     1       1.213   8.916  22.123  0.00  0.00    +0.000 F 
ENDBRANCH   8  26
BRANCH   6  30
ATOM     30  C   UNL     1      -2.740  13.193  23.866  0.00  0.00    +0.000 C 
BRANCH  30  31
ATOM     31  N   UNL     1      -3.840  12.283  24.159  0.00  0.00    +0.000 NA
ATOM     32  H   UNL     1      -3.498  11.523  24.745  0.00  0.00    +0.000 HD
ATOM     33  H   UNL     1      -4.149  11.848  23.290  0.00  0.00    +0.000 HD
ENDBRANCH  30  31
ENDBRANCH   6  30
TORSDOF 7
ENDMDL
MODEL 4
REMARK VINA RESULT:      -8.0      0.533      1.273
REMARK  Name = 
REMARK  9 active torsions:
REMARK  status: ('A' for Active; 'I' for Inactive)
REMARK    1  A    between atoms: C_1  and  N_2
REMARK    2  A    between atoms: N_2  and  C_3
REMARK    3  A    between atoms: N_2  and  C_10
REMARK    4  A    between atoms: C_3  and  C_4
REMARK    5  A    between atoms: N_8  and  C_9
REMARK    6  A    between atoms: C_14  and  N_15
REMARK    7  A    between atoms: C_20  and  C_21
REMARK    8  A    between atoms: C_21  and  N_22
REMARK    9  A    between atoms: C_24  and  C_25
REMARK                            x       y       z     vdW  Elec       q    Type
REMARK                         _______ _______ _______ _____ _____    ______ ____
ROOT
ATOM      1  N   UNL     1       3.891   4.968  19.223  0.00  0.00    +0.000 N 
ATOM      2  C   UNL     1       5.272   5.494  19.387  0.00  0.00    +0.000 C 
ATOM      3  C   UNL     1       5.876   5.215  18.043  0.00  0.00    +0.000 A 
ATOM      4  C   UNL     1       5.217   4.100  17.516  0.00  0.00    +0.000 A 
ATOM      5  C   UNL     1       5.390   3.665  16.212  0.00  0.00    +0.000 A 
ATOM      6  C   UNL     1       6.247   4.404  15.390  0.00  0.00    +0.000 A 
ATOM      7  C   UNL     1       6.901   5.550  15.913  0.00  0.00    +0.000 A 
ATOM      8  C   UNL     1       6.728   5.975  17.249  0.00  0.00    +0.000 A 
ATOM      9  C   UNL     1       4.029   3.835  18.364  0.00  0.00    +0.000 C 
ATOM     10  O   UNL     1       3.245   2.929  18.167  0.00  0.00    +0.000 OA
ENDROOT
BRANCH   1  15
ATOM     11  C   UNL     1       1.861   8.001  19.606  0.00  0.00    +0.000 A 
ATOM     12  C   UNL     1       2.435   8.711  18.538  0.00  0.00    +0.000 A 
ATOM     13  C   UNL     1       3.125   8.073  17.505  0.00  0.00    +0.000 A 
ATOM     14  C   UNL     1       3.352   6.709  17.563  0.00  0.00    +0.000 A 
ATOM     15  C   UNL     1       3.012   6.018  18.731  0.00  0.00    +0.000 A 
ATOM     16  C   UNL     1       2.138   6.623  19.650  0.00  0.00    +0.000 A 
BRANCH  11  18
ATOM     17  C   UNL     1       1.608   8.760  21.940  0.00  0.00    +0.000 C 
ATOM     18  N   UNL     1       1.091   8.639  20.578  0.00  0.00    +0.000 N 
BRANCH  18  19
ATOM     19  C   UNL     1       0.080   9.639  20.187  0.00  0.00    +0.000 C 
BRANCH  19  20
ATOM     20  C   UNL     1       0.375  11.081  20.477  0.00  0.00    +0.000 A 
ATOM     21  N   UNL     1       1.237  11.861  19.849  0.00  0.00    +0.000 NA
ATOM     22  N   UNL     1       1.280  13.073  20.501  0.00  0.00    +0.000 NA
ATOM     23  C   UNL     1       0.447  13.011  21.511  0.00  0.00    +0.000 A 
ATOM     24  N   UNL     1      -0.151  11.789  21.531  0.00  0.00    +0.000 N 
ATOM     25  C   UNL     1      -1.104  11.339  22.510  0.00  0.00    +0.000 C 
ENDBRANCH  19  20
ENDBRANCH  18  19
ENDBRANCH  11  18
ENDBRANCH   1  15
BRANCH   8  26
ATOM     26  C   UNL     1       7.349   7.277  17.694  0.00  0.00    +0.000 C 
ATOM     27  F   UNL     1       8.065   7.180  18.842  0.00  0.00    +0.000 F 
ATOM     28  F   UNL     1       8.210   7.771  16.761  0.00  0.00    +0.000 F 
ATOM     29  F   UNL     1       6.413   8.248  17.887  0.00  0.00    +0.000 F 
ENDBRANCH   8  26
BRANCH   6  30
ATOM     30  C   UNL     1       6.372   4.073  13.922  0.00  0.00    +0.000 C 
BRANCH  30  31
ATOM     31  N   UNL     1       7.273   4.999  13.247  0.00  0.00    +0.000 NA
ATOM     32  H   UNL     1       7.653   4.549  12.416  0.00  0.00    +0.000 HD
ATOM     33  H   UNL     1       8.071   5.185  13.854  0.00  0.00    +0.000 HD
ENDBRANCH  30  31
ENDBRANCH   6  30
TORSDOF 7
ENDMDL
MODEL 5
REMARK VINA RESULT:      -7.9      1.000      1.395
REMARK  Name = 
REMARK  9 active torsions:
REMARK  status: ('A' for Active; 'I' for Inactive)
REMARK    1  A    between atoms: C_1  and  N_2
REMARK    2  A    between atoms: N_2  and  C_3
REMARK    3  A    between atoms: N_2  and  C_10
REMARK    4  A    between atoms: C_3  and  C_4
REMARK    5  A    between atoms: N_8  and  C_9
REMARK    6  A    between atoms: C_14  and  N_15
REMARK    7  A    between atoms: C_20  and  C_21
REMARK    8  A    between atoms: C_21  and  N_22
REMARK    9  A    between atoms: C_24  and  C_25
REMARK                            x       y       z     vdW  Elec       q    Type
REMARK                         _______ _______ _______ _____ _____    ______ ____
ROOT
ATOM      1  N   UNL     1       4.191   4.697  18.992  0.00  0.00    +0.000 N 
ATOM      2  C   UNL     1       5.537   5.286  19.220  0.00  0.00    +0.000 C 
ATOM      3  C   UNL     1       6.164   5.168  17.862  0.00  0.00    +0.000 A 
ATOM      4  C   UNL     1       5.575   4.071  17.227  0.00  0.00    +0.000 A 
ATOM      5  C   UNL     1       5.780   3.769  15.891  0.00  0.00    +0.000 A 
ATOM      6  C   UNL     1       6.597   4.630  15.149  0.00  0.00    +0.000 A 
ATOM      7  C   UNL     1       7.179   5.758  15.784  0.00  0.00    +0.000 A 
ATOM      8  C   UNL     1       6.974   6.047  17.151  0.00  0.00    +0.000 A 
ATOM      9  C   UNL     1       4.400   3.659  18.034  0.00  0.00    +0.000 C 
ATOM     10  O   UNL     1       3.671   2.731  17.745  0.00  0.00    +0.000 OA
ENDROOT
BRANCH   1  15
ATOM     11  C   UNL     1       1.988   7.562  19.631  0.00  0.00    +0.000 A 
ATOM     12  C   UNL     1       2.523   8.398  18.636  0.00  0.00    +0.000 A 
ATOM     13  C   UNL     1       3.251   7.896  17.555  0.00  0.00    +0.000 A 
ATOM     14  C   UNL     1       3.556   6.548  17.492  0.00  0.00    +0.000 A 
ATOM     15  C   UNL     1       3.253   5.736  18.590  0.00  0.00    +0.000 A 
ATOM     16  C   UNL     1       2.344   6.203  19.553  0.00  0.00    +0.000 A 
BRANCH  11  18
ATOM     17  C   UNL     1       0.188   7.192  21.278  0.00  0.00    +0.000 C 
ATOM     18  N   UNL     1       1.179   8.064  20.650  0.00  0.00    +0.000 N 
BRANCH  18  19
ATOM     19  C   UNL     1       1.635   9.203  21.468  0.00  0.00    +0.000 C 
BRANCH  19  20
ATOM     20  C   UNL     1       0.593  10.138  22.009  0.00  0.00    +0.000 A 
ATOM     21  N   UNL     1       0.081  10.142  23.226  0.00  0.00    +0.000 NA
ATOM     22  N   UNL     1      -0.923  11.084  23.272  0.00  0.00    +0.000 NA
ATOM     23  C   UNL     1      -1.004  11.635  22.085  0.00  0.00    +0.000 A 
ATOM     24  N   UNL     1      -0.070  11.084  21.264  0.00  0.00    +0.000 N 
ATOM     25  C   UNL     1       0.125  11.412  19.878  0.00  0.00    +0.000 C 
ENDBRANCH  19  20
ENDBRANCH  18  19
ENDBRANCH  11  18
ENDBRANCH   1  15
BRANCH   8  26
ATOM     26  C   UNL     1       7.514   7.336  17.721  0.00  0.00    +0.000 C 
ATOM     27  F   UNL     1       8.220   7.176  18.868  0.00  0.00    +0.000 F 
ATOM     28  F   UNL     1       8.359   7.958  16.851  0.00  0.00    +0.000 F 
ATOM     29  F   UNL     1       6.523   8.233  17.982  0.00  0.00    +0.000 F 
ENDBRANCH   8  26
BRANCH   6  30
ATOM     30  C   UNL     1       6.748   4.445  13.659  0.00  0.00    +0.000 C 
BRANCH  30  31
ATOM     31  N   UNL     1       6.161   3.185  13.221  0.00  0.00    +0.000 NA
ATOM     32  H   UNL     1       5.626   3.345  12.368  0.00  0.00    +0.000 HD
ATOM     33  H   UNL     1       5.486   2.875  13.919  0.00  0.00    +0.000 HD
ENDBRANCH  30  31
ENDBRANCH   6  30
TORSDOF 7
ENDMDL
MODEL 6
REMARK VINA RESULT:      -7.9      3.424      8.337
REMARK  Name = 
REMARK  9 active torsions:
REMARK  status: ('A' for Active; 'I' for Inactive)
REMARK    1  A    between atoms: C_1  and  N_2
REMARK    2  A    between atoms: N_2  and  C_3
REMARK    3  A    between atoms: N_2  and  C_10
REMARK    4  A    between atoms: C_3  and  C_4
REMARK    5  A    between atoms: N_8  and  C_9
REMARK    6  A    between atoms: C_14  and  N_15
REMARK    7  A    between atoms: C_20  and  C_21
REMARK    8  A    between atoms: C_21  and  N_22
REMARK    9  A    between atoms: C_24  and  C_25
REMARK                            x       y       z     vdW  Elec       q    Type
REMARK                         _______ _______ _______ _____ _____    ______ ____
ROOT
ATOM      1  N   UNL     1       0.798   8.284  21.198  0.00  0.00    +0.000 N 
ATOM      2  C   UNL     1      -0.481   8.600  20.510  0.00  0.00    +0.000 C 
ATOM      3  C   UNL     1      -0.334  10.066  20.231  0.00  0.00    +0.000 A 
ATOM      4  C   UNL     1       0.501  10.594  21.220  0.00  0.00    +0.000 A 
ATOM      5  C   UNL     1       1.002  11.885  21.179  0.00  0.00    +0.000 A 
ATOM      6  C   UNL     1       0.668  12.675  20.074  0.00  0.00    +0.000 A 
ATOM      7  C   UNL     1      -0.162  12.136  19.055  0.00  0.00    +0.000 A 
ATOM      8  C   UNL     1      -0.678  10.823  19.116  0.00  0.00    +0.000 A 
ATOM      9  C   UNL     1       1.108   9.457  21.953  0.00  0.00    +0.000 C 
ATOM     10  O   UNL     1       1.888   9.584  22.876  0.00  0.00    +0.000 OA
ENDROOT
BRANCH   1  15
ATOM     11  C   UNL     1       2.531   5.847  19.071  0.00  0.00    +0.000 A 
ATOM     12  C   UNL     1       2.423   6.576  17.875  0.00  0.00    +0.000 A 
ATOM     13  C   UNL     1       2.189   7.953  17.861  0.00  0.00    +0.000 A 
ATOM     14  C   UNL     1       1.951   8.627  19.046  0.00  0.00    +0.000 A 
ATOM     15  C   UNL     1       1.805   7.888  20.224  0.00  0.00    +0.000 A 
ATOM     16  C   UNL     1       2.253   6.557  20.253  0.00  0.00    +0.000 A 
BRANCH  11  18
ATOM     17  C   UNL     1       1.975   3.536  19.732  0.00  0.00    +0.000 C 
ATOM     18  N   UNL     1       2.863   4.493  19.074  0.00  0.00    +0.000 N 
BRANCH  18  19
ATOM     19  C   UNL     1       3.730   3.938  18.019  0.00  0.00    +0.000 C 
BRANCH  19  20
ATOM     20  C   UNL     1       5.204   4.210  18.109  0.00  0.00    +0.000 A 
ATOM     21  N   UNL     1       5.905   4.451  19.201  0.00  0.00    +0.000 NA
ATOM     22  N   UNL     1       7.194   4.760  18.830  0.00  0.00    +0.000 NA
ATOM     23  C   UNL     1       7.256   4.701  17.522  0.00  0.00    +0.000 A 
ATOM     24  N   UNL     1       6.039   4.351  17.026  0.00  0.00    +0.000 N 
ATOM     25  C   UNL     1       5.710   4.214  15.633  0.00  0.00    +0.000 C 
ENDBRANCH  19  20
ENDBRANCH  18  19
ENDBRANCH  11  18
ENDBRANCH   1  15
BRANCH   8  26
ATOM     26  C   UNL     1      -1.440  10.275  17.934  0.00  0.00    +0.000 C 
ATOM     27  F   UNL     1      -2.576   9.615  18.271  0.00  0.00    +0.000 F 
ATOM     28  F   UNL     1      -1.825  11.264  17.080  0.00  0.00    +0.000 F 
ATOM     29  F   UNL     1      -0.683   9.418  17.194  0.00  0.00    +0.000 F 
ENDBRANCH   8  26
BRANCH   6  30
ATOM     30  C   UNL     1       1.291  14.037  19.891  0.00  0.00    +0.000 C 
BRANCH  30  31
ATOM     31  N   UNL     1       2.323  14.012  18.861  0.00  0.00    +0.000 NA
ATOM     32  H   UNL     1       3.239  13.995  19.307  0.00  0.00    +0.000 HD
ATOM     33  H   UNL     1       2.285  14.884  18.334  0.00  0.00    +0.000 HD
ENDBRANCH  30  31
ENDBRANCH   6  30
TORSDOF 7
ENDMDL
MODEL 7
REMARK VINA RESULT:      -7.9      3.734      8.189
REMARK  Name = 
REMARK  9 active torsions:
REMARK  status: ('A' for Active; 'I' for Inactive)
REMARK    1  A    between atoms: C_1  and  N_2
REMARK    2  A    between atoms: N_2  and  C_3
REMARK    3  A    between atoms: N_2  and  C_10
REMARK    4  A    between atoms: C_3  and  C_4
REMARK    5  A    between atoms: N_8  and  C_9
REMARK    6  A    between atoms: C_14  and  N_15
REMARK    7  A    between atoms: C_20  and  C_21
REMARK    8  A    between atoms: C_21  and  N_22
REMARK    9  A    between atoms: C_24  and  C_25
REMARK                            x       y       z     vdW  Elec       q    Type
REMARK                         _______ _______ _______ _____ _____    ______ ____
ROOT
ATOM      1  N   UNL     1       2.602   7.997  19.333  0.00  0.00    +0.000 N 
ATOM      2  C   UNL     1       2.225   8.797  20.529  0.00  0.00    +0.000 C 
ATOM      3  C   UNL     1       0.963   9.466  20.072  0.00  0.00    +0.000 A 
ATOM      4  C   UNL     1       1.045   9.601  18.683  0.00  0.00    +0.000 A 
ATOM      5  C   UNL     1      -0.019  10.015  17.899  0.00  0.00    +0.000 A 
ATOM      6  C   UNL     1      -1.234  10.281  18.541  0.00  0.00    +0.000 A 
ATOM      7  C   UNL     1      -1.328  10.123  19.949  0.00  0.00    +0.000 A 
ATOM      8  C   UNL     1      -0.231   9.714  20.740  0.00  0.00    +0.000 A 
ATOM      9  C   UNL     1       2.195   8.790  18.217  0.00  0.00    +0.000 C 
ATOM     10  O   UNL     1       2.531   8.696  17.053  0.00  0.00    +0.000 OA
ENDROOT
BRANCH   1  15
ATOM     11  C   UNL     1       2.593   4.360  18.839  0.00  0.00    +0.000 A 
ATOM     12  C   UNL     1       2.223   4.023  20.151  0.00  0.00    +0.000 A 
ATOM     13  C   UNL     1       1.600   4.935  21.007  0.00  0.00    +0.000 A 
ATOM     14  C   UNL     1       1.422   6.248  20.608  0.00  0.00    +0.000 A 
ATOM     15  C   UNL     1       2.002   6.673  19.408  0.00  0.00    +0.000 A 
ATOM     16  C   UNL     1       2.426   5.710  18.478  0.00  0.00    +0.000 A 
BRANCH  11  18
ATOM     17  C   UNL     1       2.376   2.188  17.689  0.00  0.00    +0.000 C 
ATOM     18  N   UNL     1       3.123   3.414  17.962  0.00  0.00    +0.000 N 
BRANCH  18  19
ATOM     19  C   UNL     1       4.083   3.823  16.920  0.00  0.00    +0.000 C 
BRANCH  19  20
ATOM     20  C   UNL     1       5.500   4.087  17.339  0.00  0.00    +0.000 A 
ATOM     21  N   UNL     1       5.948   4.269  18.568  0.00  0.00    +0.000 NA
ATOM     22  N   UNL     1       7.283   4.595  18.500  0.00  0.00    +0.000 NA
ATOM     23  C   UNL     1       7.625   4.606  17.234  0.00  0.00    +0.000 A 
ATOM     24  N   UNL     1       6.547   4.284  16.470  0.00  0.00    +0.000 N 
ATOM     25  C   UNL     1       6.527   4.223  15.034  0.00  0.00    +0.000 C 
ENDBRANCH  19  20
ENDBRANCH  18  19
ENDBRANCH  11  18
ENDBRANCH   1  15
BRANCH   8  26
ATOM     26  C   UNL     1      -0.444   9.438  22.208  0.00  0.00    +0.000 C 
ATOM     27  F   UNL     1       0.681   9.553  22.957  0.00  0.00    +0.000 F 
ATOM     28  F   UNL     1      -1.344  10.301  22.759  0.00  0.00    +0.000 F 
ATOM     29  F   UNL     1      -0.944   8.190  22.425  0.00  0.00    +0.000 F 
ENDBRANCH   8  26
BRANCH   6  30
ATOM     30  C   UNL     1      -2.471  10.596  17.737  0.00  0.00    +0.000 C 
BRANCH  30  31
ATOM     31  N   UNL     1      -2.178  10.636  16.310  0.00  0.00    +0.000 NA
ATOM     32  H   UNL     1      -2.131  11.608  16.006  0.00  0.00    +0.000 HD
ATOM     33  H   UNL     1      -2.957  10.222  15.800  0.00  0.00    +0.000 HD
ENDBRANCH  30  31
ENDBRANCH   6  30
TORSDOF 7
ENDMDL
MODEL 8
REMARK VINA RESULT:      -7.9      3.300      4.519
REMARK  Name = 
REMARK  9 active torsions:
REMARK  status: ('A' for Active; 'I' for Inactive)
REMARK    1  A    between atoms: C_1  and  N_2
REMARK    2  A    between atoms: N_2  and  C_3
REMARK    3  A    between atoms: N_2  and  C_10
REMARK    4  A    between atoms: C_3  and  C_4
REMARK    5  A    between atoms: N_8  and  C_9
REMARK    6  A    between atoms: C_14  and  N_15
REMARK    7  A    between atoms: C_20  and  C_21
REMARK    8  A    between atoms: C_21  and  N_22
REMARK    9  A    between atoms: C_24  and  C_25
REMARK                            x       y       z     vdW  Elec       q    Type
REMARK                         _______ _______ _______ _____ _____    ______ ____
ROOT
ATOM      1  N   UNL     1       2.230   6.985  17.900  0.00  0.00    +0.000 N 
ATOM      2  C   UNL     1       2.138   5.517  18.123  0.00  0.00    +0.000 C 
ATOM      3  C   UNL     1       3.572   5.146  18.356  0.00  0.00    +0.000 A 
ATOM      4  C   UNL     1       4.359   6.070  17.662  0.00  0.00    +0.000 A 
ATOM      5  C   UNL     1       5.735   6.144  17.795  0.00  0.00    +0.000 A 
ATOM      6  C   UNL     1       6.349   5.262  18.691  0.00  0.00    +0.000 A 
ATOM      7  C   UNL     1       5.553   4.337  19.416  0.00  0.00    +0.000 A 
ATOM      8  C   UNL     1       4.150   4.261  19.260  0.00  0.00    +0.000 A 
ATOM      9  C   UNL     1       3.474   7.176  17.224  0.00  0.00    +0.000 C 
ATOM     10  O   UNL     1       3.857   8.143  16.595  0.00  0.00    +0.000 OA
ENDROOT
BRANCH   1  15
ATOM     11  C   UNL     1       0.768   9.533  20.098  0.00  0.00    +0.000 A 
ATOM     12  C   UNL     1       0.446   8.665  21.155  0.00  0.00    +0.000 A 
ATOM     13  C   UNL     1       1.061   7.421  21.309  0.00  0.00    +0.000 A 
ATOM     14  C   UNL     1       1.945   6.961  20.348  0.00  0.00    +0.000 A 
ATOM     15  C   UNL     1       2.094   7.691  19.165  0.00  0.00    +0.000 A 
ATOM     16  C   UNL     1       1.645   9.022  19.124  0.00  0.00    +0.000 A 
BRANCH  11  18
ATOM     17  C   UNL     1       0.575  11.817  21.011  0.00  0.00    +0.000 C 
ATOM     18  N   UNL     1       0.220  10.812  20.011  0.00  0.00    +0.000 N 
BRANCH  18  19
ATOM     19  C   UNL     1      -0.234  11.339  18.710  0.00  0.00    +0.000 C 
BRANCH  19  20
ATOM     20  C   UNL     1      -1.528  10.816  18.157  0.00  0.00    +0.000 A 
ATOM     21  N   UNL     1      -1.682   9.932  17.188  0.00  0.00    +0.000 NA
ATOM     22  N   UNL     1      -3.027   9.819  16.913  0.00  0.00    +0.000 NA
ATOM     23  C   UNL     1      -3.666  10.634  17.717  0.00  0.00    +0.000 A 
ATOM     24  N   UNL     1      -2.773  11.271  18.521  0.00  0.00    +0.000 N 
ATOM     25  C   UNL     1      -3.097  12.262  19.512  0.00  0.00    +0.000 C 
ENDBRANCH  19  20
ENDBRANCH  18  19
ENDBRANCH  11  18
ENDBRANCH   1  15
BRANCH   8  26
ATOM     26  C   UNL     1       3.358   3.347  20.163  0.00  0.00    +0.000 C 
ATOM     27  F   UNL     1       2.395   2.641  19.519  0.00  0.00    +0.000 F 
ATOM     28  F   UNL     1       4.153   2.421  20.768  0.00  0.00    +0.000 F 
ATOM     29  F   UNL     1       2.747   4.029  21.171  0.00  0.00    +0.000 F 
ENDBRANCH   8  26
BRANCH   6  30
ATOM     30  C   UNL     1       7.823   5.381  18.993  0.00  0.00    +0.000 C 
BRANCH  30  31
ATOM     31  N   UNL     1       8.066   5.424  20.429  0.00  0.00    +0.000 NA
ATOM     32  H   UNL     1       8.836   6.064  20.619  0.00  0.00    +0.000 HD
ATOM     33  H   UNL     1       8.384   4.506  20.738  0.00  0.00    +0.000 HD
ENDBRANCH  30  31
ENDBRANCH   6  30
TORSDOF 7
ENDMDL
MODEL 9
REMARK VINA RESULT:      -7.9      1.292      1.633
REMARK  Name = 
REMARK  9 active torsions:
REMARK  status: ('A' for Active; 'I' for Inactive)
REMARK    1  A    between atoms: C_1  and  N_2
REMARK    2  A    between atoms: N_2  and  C_3
REMARK    3  A    between atoms: N_2  and  C_10
REMARK    4  A    between atoms: C_3  and  C_4
REMARK    5  A    between atoms: N_8  and  C_9
REMARK    6  A    between atoms: C_14  and  N_15
REMARK    7  A    between atoms: C_20  and  C_21
REMARK    8  A    between atoms: C_21  and  N_22
REMARK    9  A    between atoms: C_24  and  C_25
REMARK                            x       y       z     vdW  Elec       q    Type
REMARK                         _______ _______ _______ _____ _____    ______ ____
ROOT
ATOM      1  N   UNL     1       3.856   5.030  19.156  0.00  0.00    +0.000 N 
ATOM      2  C   UNL     1       5.244   5.534  19.331  0.00  0.00    +0.000 C 
ATOM      3  C   UNL     1       5.871   5.189  18.012  0.00  0.00    +0.000 A 
ATOM      4  C   UNL     1       5.201   4.068  17.515  0.00  0.00    +0.000 A 
ATOM      5  C   UNL     1       5.392   3.577  16.234  0.00  0.00    +0.000 A 
ATOM      6  C   UNL     1       6.283   4.265  15.402  0.00  0.00    +0.000 A 
ATOM      7  C   UNL     1       6.949   5.417  15.895  0.00  0.00    +0.000 A 
ATOM      8  C   UNL     1       6.757   5.899  17.209  0.00  0.00    +0.000 A 
ATOM      9  C   UNL     1       3.989   3.861  18.346  0.00  0.00    +0.000 C 
ATOM     10  O   UNL     1       3.190   2.964  18.166  0.00  0.00    +0.000 OA
ENDROOT
BRANCH   1  15
ATOM     11  C   UNL     1       1.939   8.152  19.356  0.00  0.00    +0.000 A 
ATOM     12  C   UNL     1       2.528   8.772  18.241  0.00  0.00    +0.000 A 
ATOM     13  C   UNL     1       3.185   8.044  17.247  0.00  0.00    +0.000 A 
ATOM     14  C   UNL     1       3.364   6.679  17.391  0.00  0.00    +0.000 A 
ATOM     15  C   UNL     1       3.010   6.077  18.603  0.00  0.00    +0.000 A 
ATOM     16  C   UNL     1       2.167   6.770  19.487  0.00  0.00    +0.000 A 
BRANCH  11  18
ATOM     17  C   UNL     1       1.102   8.390  21.665  0.00  0.00    +0.000 C 
ATOM     18  N   UNL     1       1.201   8.878  20.291  0.00  0.00    +0.000 N 
BRANCH  18  19
ATOM     19  C   UNL     1       0.995  10.327  20.111  0.00  0.00    +0.000 C 
BRANCH  19  20
ATOM     20  C   UNL     1      -0.216  10.772  19.342  0.00  0.00    +0.000 A 
ATOM     21  N   UNL     1      -1.295  10.060  19.072  0.00  0.00    +0.000 NA
ATOM     22  N   UNL     1      -2.111  10.804  18.251  0.00  0.00    +0.000 NA
ATOM     23  C   UNL     1      -1.517  11.953  18.035  0.00  0.00    +0.000 A 
ATOM     24  N   UNL     1      -0.334  11.984  18.705  0.00  0.00    +0.000 N 
ATOM     25  C   UNL     1       0.610  13.068  18.687  0.00  0.00    +0.000 C 
ENDBRANCH  19  20
ENDBRANCH  18  19
ENDBRANCH  11  18
ENDBRANCH   1  15
BRANCH   8  26
ATOM     26  C   UNL     1       7.395   7.205  17.616  0.00  0.00    +0.000 C 
ATOM     27  F   UNL     1       8.240   7.716  16.685  0.00  0.00    +0.000 F 
ATOM     28  F   UNL     1       6.464   8.173  17.842  0.00  0.00    +0.000 F 
ATOM     29  F   UNL     1       8.100   7.088  18.775  0.00  0.00    +0.000 F 
ENDBRANCH   8  26
BRANCH   6  30
ATOM     30  C   UNL     1       6.432   3.874  13.952  0.00  0.00    +0.000 C 
BRANCH  30  31
ATOM     31  N   UNL     1       5.148   3.898  13.264  0.00  0.00    +0.000 NA
ATOM     32  H   UNL     1       4.969   4.841  12.922  0.00  0.00    +0.000 HD
ATOM     33  H   UNL     1       4.408   3.700  13.937  0.00  0.00    +0.000 HD
ENDBRANCH  30  31
ENDBRANCH   6  30
TORSDOF 7
ENDMDL
