MODEL 1
REMARK VINA RESULT:      -9.0      0.000      0.000
REMARK  Name = 
REMARK  7 active torsions:
REMARK  status: ('A' for Active; 'I' for Inactive)
REMARK    1  A    between atoms: C_2  and  C_3
REMARK    2  A    between atoms: C_3  and  C_4
REMARK    3  A    between atoms: C_4  and  C_5
REMARK    4  A    between atoms: C_5  and  N_6
REMARK    5  A    between atoms: N_17  and  C_18
REMARK    6  A    between atoms: C_21  and  S_22
REMARK    7  A    between atoms: S_22  and  N_25
REMARK                            x       y       z     vdW  Elec       q    Type
REMARK                         _______ _______ _______ _____ _____    ______ ____
ROOT
ATOM      1  O   UNL     1      -0.794   8.034  21.543  0.00  0.00    +0.000 OA
ATOM      2  C   UNL     1       0.290   8.557  21.776  0.00  0.00    +0.000 C 
ATOM      3  N   UNL     1       1.529   8.108  21.341  0.00  0.00    +0.000 N 
ATOM      4  H   UNL     1       2.341   8.623  21.656  0.00  0.00    +0.000 HD
ENDROOT
BRANCH   3   5
ATOM      5  C   UNL     1       1.792   6.963  20.555  0.00  0.00    +0.000 A 
ATOM      6  C   UNL     1       1.567   5.653  20.989  0.00  0.00    +0.000 A 
ATOM      7  C   UNL     1       1.899   4.560  20.180  0.00  0.00    +0.000 A 
ATOM      8  C   UNL     1       2.433   4.775  18.908  0.00  0.00    +0.000 A 
ATOM      9  C   UNL     1       2.647   6.075  18.451  0.00  0.00    +0.000 A 
ATOM     10  C   UNL     1       2.324   7.162  19.273  0.00  0.00    +0.000 A 
BRANCH   8  11
ATOM     11  S   UNL     1       3.031   3.385  17.972  0.00  0.00    +0.000 S 
ATOM     12  O   UNL     1       2.676   2.195  18.724  0.00  0.00    +0.000 OA
ATOM     13  O   UNL     1       2.576   3.539  16.608  0.00  0.00    +0.000 OA
BRANCH  11  14
ATOM     14  N   UNL     1       4.701   3.495  18.076  0.00  0.00    +0.000 N 
ATOM     15  C   UNL     1       5.283   4.083  16.959  0.00  0.00    +0.000 A 
ATOM     16  N   UNL     1       5.383   5.415  16.954  0.00  0.00    +0.000 NA
ATOM     17  C   UNL     1       5.843   5.948  15.807  0.00  0.00    +0.000 A 
ATOM     18  C   UNL     1       6.141   5.201  14.690  0.00  0.00    +0.000 A 
ATOM     19  C   UNL     1       5.983   3.841  14.823  0.00  0.00    +0.000 A 
ATOM     20  N   UNL     1       5.583   3.249  15.963  0.00  0.00    +0.000 NA
ATOM     21  H   UNL     1       5.076   2.568  18.246  0.00  0.00    +0.000 HD
ENDBRANCH  11  14
ENDBRANCH   8  11
ENDBRANCH   3   5
BRANCH   2  22
ATOM     22  C   UNL     1       0.386   9.855  22.565  0.00  0.00    +0.000 C 
BRANCH  22  23
ATOM     23  C   UNL     1      -0.714  10.843  22.172  0.00  0.00    +0.000 C 
BRANCH  23  24
ATOM     24  C   UNL     1      -0.318  11.664  20.944  0.00  0.00    +0.000 C 
BRANCH  24  25
ATOM     25  N   UNL     1      -1.152  11.349  19.800  0.00  0.00    +0.000 N 
ATOM     26  C   UNL     1      -2.366  11.931  19.550  0.00  0.00    +0.000 C 
ATOM     27  O   UNL     1      -2.980  12.744  20.213  0.00  0.00    +0.000 OA
ATOM     28  C   UNL     1      -2.833  11.384  18.276  0.00  0.00    +0.000 A 
ATOM     29  C   UNL     1      -3.987  11.639  17.560  0.00  0.00    +0.000 A 
ATOM     30  C   UNL     1      -4.146  10.968  16.343  0.00  0.00    +0.000 A 
ATOM     31  C   UNL     1      -3.163  10.068  15.879  0.00  0.00    +0.000 A 
ATOM     32  C   UNL     1      -2.005   9.824  16.625  0.00  0.00    +0.000 A 
ATOM     33  C   UNL     1      -1.871  10.500  17.822  0.00  0.00    +0.000 A 
ATOM     34  C   UNL     1      -0.790  10.479  18.806  0.00  0.00    +0.000 C 
ATOM     35  O   UNL     1       0.215   9.803  18.708  0.00  0.00    +0.000 OA
ENDBRANCH  24  25
ENDBRANCH  23  24
ENDBRANCH  22  23
ENDBRANCH   2  22
TORSDOF 7
ENDMDL
MODEL 2
REMARK VINA RESULT:      -9.0      3.062      8.985
REMARK  Name = 
REMARK  7 active torsions:
REMARK  status: ('A' for Active; 'I' for Inactive)
REMARK    1  A    between atoms: C_2  and  C_3
REMARK    2  A    between atoms: C_3  and  C_4
REMARK    3  A    between atoms: C_4  and  C_5
REMARK    4  A    between atoms: C_5  and  N_6
REMARK    5  A    between atoms: N_17  and  C_18
REMARK    6  A    between atoms: C_21  and  S_22
REMARK    7  A    between atoms: S_22  and  N_25
REMARK                            x       y       z     vdW  Elec       q    Type
REMARK                         _______ _______ _______ _____ _____    ______ ____
ROOT
ATOM      1  O   UNL     1       5.912   7.593  17.755  0.00  0.00    +0.000 OA
ATOM      2  C   UNL     1       5.230   6.778  17.143  0.00  0.00    +0.000 C 
ATOM      3  N   UNL     1       3.863   6.586  17.276  0.00  0.00    +0.000 N 
ATOM      4  H   UNL     1       3.448   5.840  16.732  0.00  0.00    +0.000 HD
ENDROOT
BRANCH   3   5
ATOM      5  C   UNL     1       2.986   7.278  18.142  0.00  0.00    +0.000 A 
ATOM      6  C   UNL     1       2.412   8.517  17.840  0.00  0.00    +0.000 A 
ATOM      7  C   UNL     1       1.591   9.174  18.765  0.00  0.00    +0.000 A 
ATOM      8  C   UNL     1       1.314   8.575  19.995  0.00  0.00    +0.000 A 
ATOM      9  C   UNL     1       1.863   7.332  20.306  0.00  0.00    +0.000 A 
ATOM     10  C   UNL     1       2.693   6.687  19.380  0.00  0.00    +0.000 A 
BRANCH   8  11
ATOM     11  S   UNL     1       0.436   9.504  21.235  0.00  0.00    +0.000 S 
ATOM     12  O   UNL     1      -0.606   8.631  21.745  0.00  0.00    +0.000 OA
ATOM     13  O   UNL     1       1.412  10.068  22.140  0.00  0.00    +0.000 OA
BRANCH  11  14
ATOM     14  N   UNL     1      -0.366  10.698  20.375  0.00  0.00    +0.000 N 
ATOM     15  C   UNL     1      -0.005  11.985  20.757  0.00  0.00    +0.000 A 
ATOM     16  N   UNL     1       1.057  12.526  20.153  0.00  0.00    +0.000 NA
ATOM     17  C   UNL     1       1.440  13.722  20.636  0.00  0.00    +0.000 A 
ATOM     18  C   UNL     1       0.834  14.336  21.709  0.00  0.00    +0.000 A 
ATOM     19  C   UNL     1      -0.242  13.669  22.248  0.00  0.00    +0.000 A 
ATOM     20  N   UNL     1      -0.705  12.499  21.770  0.00  0.00    +0.000 NA
ATOM     21  H   UNL     1      -1.365  10.549  20.468  0.00  0.00    +0.000 HD
ENDBRANCH  11  14
ENDBRANCH   8  11
ENDBRANCH   3   5
BRANCH   2  22
ATOM     22  C   UNL     1       5.842   5.884  16.075  0.00  0.00    +0.000 C 
BRANCH  22  23
ATOM     23  C   UNL     1       4.897   4.751  15.670  0.00  0.00    +0.000 C 
BRANCH  23  24
ATOM     24  C   UNL     1       5.133   3.495  16.512  0.00  0.00    +0.000 C 
BRANCH  24  25
ATOM     25  N   UNL     1       4.207   3.418  17.626  0.00  0.00    +0.000 N 
ATOM     26  C   UNL     1       2.866   3.182  17.495  0.00  0.00    +0.000 C 
ATOM     27  O   UNL     1       2.204   3.042  16.485  0.00  0.00    +0.000 OA
ATOM     28  C   UNL     1       2.322   3.117  18.852  0.00  0.00    +0.000 A 
ATOM     29  C   UNL     1       1.032   2.891  19.292  0.00  0.00    +0.000 A 
ATOM     30  C   UNL     1       0.823   2.864  20.674  0.00  0.00    +0.000 A 
ATOM     31  C   UNL     1       1.893   3.065  21.572  0.00  0.00    +0.000 A 
ATOM     32  C   UNL     1       3.189   3.297  21.101  0.00  0.00    +0.000 A 
ATOM     33  C   UNL     1       3.370   3.316  19.732  0.00  0.00    +0.000 A 
ATOM     34  C   UNL     1       4.583   3.511  18.939  0.00  0.00    +0.000 C 
ATOM     35  O   UNL     1       5.686   3.709  19.409  0.00  0.00    +0.000 OA
ENDBRANCH  24  25
ENDBRANCH  23  24
ENDBRANCH  22  23
ENDBRANCH   2  22
TORSDOF 7
ENDMDL
MODEL 3
REMARK VINA RESULT:      -8.9      3.030      9.093
REMARK  Name = 
REMARK  7 active torsions:
REMARK  status: ('A' for Active; 'I' for Inactive)
REMARK    1  A    between atoms: C_2  and  C_3
REMARK    2  A    between atoms: C_3  and  C_4
REMARK    3  A    between atoms: C_4  and  C_5
REMARK    4  A    between atoms: C_5  and  N_6
REMARK    5  A    between atoms: N_17  and  C_18
REMARK    6  A    between atoms: C_21  and  S_22
REMARK    7  A    between atoms: S_22  and  N_25
REMARK                            x       y       z     vdW  Elec       q    Type
REMARK                         _______ _______ _______ _____ _____    ______ ____
ROOT
ATOM      1  O   UNL     1       5.764   7.110  17.563  0.00  0.00    +0.000 OA
ATOM      2  C   UNL     1       4.903   6.672  16.808  0.00  0.00    +0.000 C 
ATOM      3  N   UNL     1       3.531   6.762  16.987  0.00  0.00    +0.000 N 
ATOM      4  H   UNL     1       2.946   6.309  16.297  0.00  0.00    +0.000 HD
ENDROOT
BRANCH   3   5
ATOM      5  C   UNL     1       2.851   7.366  18.069  0.00  0.00    +0.000 A 
ATOM      6  C   UNL     1       2.688   6.760  19.319  0.00  0.00    +0.000 A 
ATOM      7  C   UNL     1       1.958   7.390  20.334  0.00  0.00    +0.000 A 
ATOM      8  C   UNL     1       1.408   8.654  20.111  0.00  0.00    +0.000 A 
ATOM      9  C   UNL     1       1.576   9.281  18.877  0.00  0.00    +0.000 A 
ATOM     10  C   UNL     1       2.297   8.638  17.863  0.00  0.00    +0.000 A 
BRANCH   8  11
ATOM     11  S   UNL     1       0.321   9.356  21.333  0.00  0.00    +0.000 S 
ATOM     12  O   UNL     1      -0.644   8.325  21.670  0.00  0.00    +0.000 OA
ATOM     13  O   UNL     1       1.139   9.944  22.370  0.00  0.00    +0.000 OA
BRANCH  11  14
ATOM     14  N   UNL     1      -0.548  10.524  20.502  0.00  0.00    +0.000 N 
ATOM     15  C   UNL     1      -0.635  11.732  21.184  0.00  0.00    +0.000 A 
ATOM     16  N   UNL     1       0.357  12.608  21.002  0.00  0.00    +0.000 NA
ATOM     17  C   UNL     1       0.291  13.711  21.770  0.00  0.00    +0.000 A 
ATOM     18  C   UNL     1      -0.684  13.917  22.720  0.00  0.00    +0.000 A 
ATOM     19  C   UNL     1      -1.640  12.933  22.816  0.00  0.00    +0.000 A 
ATOM     20  N   UNL     1      -1.658  11.837  22.034  0.00  0.00    +0.000 NA
ATOM     21  H   UNL     1      -1.467  10.152  20.286  0.00  0.00    +0.000 HD
ENDBRANCH  11  14
ENDBRANCH   8  11
ENDBRANCH   3   5
BRANCH   2  22
ATOM     22  C   UNL     1       5.276   5.994  15.497  0.00  0.00    +0.000 C 
BRANCH  22  23
ATOM     23  C   UNL     1       4.741   4.562  15.423  0.00  0.00    +0.000 C 
BRANCH  23  24
ATOM     24  C   UNL     1       5.284   3.701  16.565  0.00  0.00    +0.000 C 
BRANCH  24  25
ATOM     25  N   UNL     1       4.318   3.566  17.638  0.00  0.00    +0.000 N 
ATOM     26  C   UNL     1       2.995   3.271  17.449  0.00  0.00    +0.000 C 
ATOM     27  O   UNL     1       2.383   3.115  16.411  0.00  0.00    +0.000 OA
ATOM     28  C   UNL     1       2.400   3.163  18.781  0.00  0.00    +0.000 A 
ATOM     29  C   UNL     1       1.104   2.872  19.164  0.00  0.00    +0.000 A 
ATOM     30  C   UNL     1       0.840   2.816  20.535  0.00  0.00    +0.000 A 
ATOM     31  C   UNL     1       1.862   3.054  21.480  0.00  0.00    +0.000 A 
ATOM     32  C   UNL     1       3.164   3.351  21.067  0.00  0.00    +0.000 A 
ATOM     33  C   UNL     1       3.400   3.397  19.706  0.00  0.00    +0.000 A 
ATOM     34  C   UNL     1       4.634   3.658  18.967  0.00  0.00    +0.000 C 
ATOM     35  O   UNL     1       5.707   3.900  19.485  0.00  0.00    +0.000 OA
ENDBRANCH  24  25
ENDBRANCH  23  24
ENDBRANCH  22  23
ENDBRANCH   2  22
TORSDOF 7
ENDMDL
MODEL 4
REMARK VINA RESULT:      -8.8      3.083      9.088
REMARK  Name = 
REMARK  7 active torsions:
REMARK  status: ('A' for Active; 'I' for Inactive)
REMARK    1  A    between atoms: C_2  and  C_3
REMARK    2  A    between atoms: C_3  and  C_4
REMARK    3  A    between atoms: C_4  and  C_5
REMARK    4  A    between atoms: C_5  and  N_6
REMARK    5  A    between atoms: N_17  and  C_18
REMARK    6  A    between atoms: C_21  and  S_22
REMARK    7  A    between atoms: S_22  and  N_25
REMARK                            x       y       z     vdW  Elec       q    Type
REMARK                         _______ _______ _______ _____ _____    ______ ____
ROOT
ATOM      1  O   UNL     1       5.473   7.509  17.779  0.00  0.00    +0.000 OA
ATOM      2  C   UNL     1       4.645   6.835  17.177  0.00  0.00    +0.000 C 
ATOM      3  N   UNL     1       3.294   6.733  17.477  0.00  0.00    +0.000 N 
ATOM      4  H   UNL     1       2.744   6.097  16.914  0.00  0.00    +0.000 HD
ENDROOT
BRANCH   3   5
ATOM      5  C   UNL     1       2.606   7.374  18.533  0.00  0.00    +0.000 A 
ATOM      6  C   UNL     1       2.452   6.822  19.808  0.00  0.00    +0.000 A 
ATOM      7  C   UNL     1       1.713   7.485  20.795  0.00  0.00    +0.000 A 
ATOM      8  C   UNL     1       1.145   8.730  20.517  0.00  0.00    +0.000 A 
ATOM      9  C   UNL     1       1.303   9.304  19.256  0.00  0.00    +0.000 A 
ATOM     10  C   UNL     1       2.033   8.627  18.271  0.00  0.00    +0.000 A 
BRANCH   8  11
ATOM     11  S   UNL     1       0.047   9.468  21.708  0.00  0.00    +0.000 S 
ATOM     12  O   UNL     1      -0.926   8.451  22.061  0.00  0.00    +0.000 OA
ATOM     13  O   UNL     1       0.857  10.081  22.737  0.00  0.00    +0.000 OA
BRANCH  11  14
ATOM     14  N   UNL     1      -0.807  10.617  20.836  0.00  0.00    +0.000 N 
ATOM     15  C   UNL     1      -0.585  11.917  21.277  0.00  0.00    +0.000 A 
ATOM     16  N   UNL     1       0.457  12.569  20.754  0.00  0.00    +0.000 NA
ATOM     17  C   UNL     1       0.703  13.776  21.294  0.00  0.00    +0.000 A 
ATOM     18  C   UNL     1      -0.016  14.298  22.344  0.00  0.00    +0.000 A 
ATOM     19  C   UNL     1      -1.057  13.522  22.799  0.00  0.00    +0.000 A 
ATOM     20  N   UNL     1      -1.385  12.333  22.259  0.00  0.00    +0.000 NA
ATOM     21  H   UNL     1      -1.793  10.378  20.864  0.00  0.00    +0.000 HD
ENDBRANCH  11  14
ENDBRANCH   8  11
ENDBRANCH   3   5
BRANCH   2  22
ATOM     22  C   UNL     1       5.027   6.040  15.937  0.00  0.00    +0.000 C 
BRANCH  22  23
ATOM     23  C   UNL     1       5.930   4.853  16.276  0.00  0.00    +0.000 C 
BRANCH  23  24
ATOM     24  C   UNL     1       5.151   3.536  16.273  0.00  0.00    +0.000 C 
BRANCH  24  25
ATOM     25  N   UNL     1       4.262   3.439  17.414  0.00  0.00    +0.000 N 
ATOM     26  C   UNL     1       4.671   3.522  18.718  0.00  0.00    +0.000 C 
ATOM     27  O   UNL     1       5.795   3.641  19.165  0.00  0.00    +0.000 OA
ATOM     28  C   UNL     1       3.462   3.444  19.537  0.00  0.00    +0.000 A 
ATOM     29  C   UNL     1       3.304   3.491  20.909  0.00  0.00    +0.000 A 
ATOM     30  C   UNL     1       1.999   3.414  21.406  0.00  0.00    +0.000 A 
ATOM     31  C   UNL     1       0.899   3.289  20.532  0.00  0.00    +0.000 A 
ATOM     32  C   UNL     1       1.085   3.239  19.147  0.00  0.00    +0.000 A 
ATOM     33  C   UNL     1       2.383   3.320  18.681  0.00  0.00    +0.000 A 
ATOM     34  C   UNL     1       2.902   3.315  17.315  0.00  0.00    +0.000 C 
ATOM     35  O   UNL     1       2.211   3.222  16.318  0.00  0.00    +0.000 OA
ENDBRANCH  24  25
ENDBRANCH  23  24
ENDBRANCH  22  23
ENDBRANCH   2  22
TORSDOF 7
ENDMDL
MODEL 5
REMARK VINA RESULT:      -8.8      2.875      9.178
REMARK  Name = 
REMARK  7 active torsions:
REMARK  status: ('A' for Active; 'I' for Inactive)
REMARK    1  A    between atoms: C_2  and  C_3
REMARK    2  A    between atoms: C_3  and  C_4
REMARK    3  A    between atoms: C_4  and  C_5
REMARK    4  A    between atoms: C_5  and  N_6
REMARK    5  A    between atoms: N_17  and  C_18
REMARK    6  A    between atoms: C_21  and  S_22
REMARK    7  A    between atoms: S_22  and  N_25
REMARK                            x       y       z     vdW  Elec       q    Type
REMARK                         _______ _______ _______ _____ _____    ______ ____
ROOT
ATOM      1  O   UNL     1       5.802   6.675  18.186  0.00  0.00    +0.000 OA
ATOM      2  C   UNL     1       5.088   6.493  17.206  0.00  0.00    +0.000 C 
ATOM      3  N   UNL     1       3.756   6.860  17.081  0.00  0.00    +0.000 N 
ATOM      4  H   UNL     1       3.285   6.599  16.224  0.00  0.00    +0.000 HD
ENDROOT
BRANCH   3   5
ATOM      5  C   UNL     1       2.955   7.505  18.051  0.00  0.00    +0.000 A 
ATOM      6  C   UNL     1       2.379   8.766  17.870  0.00  0.00    +0.000 A 
ATOM      7  C   UNL     1       1.639   9.372  18.892  0.00  0.00    +0.000 A 
ATOM      8  C   UNL     1       1.444   8.701  20.100  0.00  0.00    +0.000 A 
ATOM      9  C   UNL     1       1.996   7.434  20.292  0.00  0.00    +0.000 A 
ATOM     10  C   UNL     1       2.745   6.841  19.269  0.00  0.00    +0.000 A 
BRANCH   8  11
ATOM     11  S   UNL     1       0.673   9.558  21.456  0.00  0.00    +0.000 S 
ATOM     12  O   UNL     1      -0.731   9.189  21.435  0.00  0.00    +0.000 OA
ATOM     13  O   UNL     1       1.465   9.317  22.641  0.00  0.00    +0.000 OA
BRANCH  11  14
ATOM     14  N   UNL     1       0.714  11.173  21.009  0.00  0.00    +0.000 N 
ATOM     15  C   UNL     1      -0.377  11.899  21.474  0.00  0.00    +0.000 A 
ATOM     16  N   UNL     1      -0.282  12.429  22.696  0.00  0.00    +0.000 NA
ATOM     17  C   UNL     1      -1.401  13.021  23.150  0.00  0.00    +0.000 A 
ATOM     18  C   UNL     1      -2.586  13.041  22.449  0.00  0.00    +0.000 A 
ATOM     19  C   UNL     1      -2.554  12.450  21.207  0.00  0.00    +0.000 A 
ATOM     20  N   UNL     1      -1.448  11.895  20.678  0.00  0.00    +0.000 NA
ATOM     21  H   UNL     1       0.795  11.228  19.999  0.00  0.00    +0.000 HD
ENDBRANCH  11  14
ENDBRANCH   8  11
ENDBRANCH   3   5
BRANCH   2  22
ATOM     22  C   UNL     1       5.639   5.860  15.937  0.00  0.00    +0.000 C 
BRANCH  22  23
ATOM     23  C   UNL     1       4.882   4.584  15.561  0.00  0.00    +0.000 C 
BRANCH  23  24
ATOM     24  C   UNL     1       5.182   3.445  16.537  0.00  0.00    +0.000 C 
BRANCH  24  25
ATOM     25  N   UNL     1       4.212   3.395  17.614  0.00  0.00    +0.000 N 
ATOM     26  C   UNL     1       2.870   3.197  17.432  0.00  0.00    +0.000 C 
ATOM     27  O   UNL     1       2.245   3.074  16.397  0.00  0.00    +0.000 OA
ATOM     28  C   UNL     1       2.273   3.150  18.766  0.00  0.00    +0.000 A 
ATOM     29  C   UNL     1       0.961   2.960  19.156  0.00  0.00    +0.000 A 
ATOM     30  C   UNL     1       0.698   2.941  20.528  0.00  0.00    +0.000 A 
ATOM     31  C   UNL     1       1.737   3.113  21.467  0.00  0.00    +0.000 A 
ATOM     32  C   UNL     1       3.057   3.308  21.048  0.00  0.00    +0.000 A 
ATOM     33  C   UNL     1       3.291   3.320  19.686  0.00  0.00    +0.000 A 
ATOM     34  C   UNL     1       4.538   3.480  18.941  0.00  0.00    +0.000 C 
ATOM     35  O   UNL     1       5.628   3.649  19.453  0.00  0.00    +0.000 OA
ENDBRANCH  24  25
ENDBRANCH  23  24
ENDBRANCH  22  23
ENDBRANCH   2  22
TORSDOF 7
ENDMDL
MODEL 6
REMARK VINA RESULT:      -8.6      2.802      9.046
REMARK  Name = 
REMARK  7 active torsions:
REMARK  status: ('A' for Active; 'I' for Inactive)
REMARK    1  A    between atoms: C_2  and  C_3
REMARK    2  A    between atoms: C_3  and  C_4
REMARK    3  A    between atoms: C_4  and  C_5
REMARK    4  A    between atoms: C_5  and  N_6
REMARK    5  A    between atoms: N_17  and  C_18
REMARK    6  A    between atoms: C_21  and  S_22
REMARK    7  A    between atoms: S_22  and  N_25
REMARK                            x       y       z     vdW  Elec       q    Type
REMARK                         _______ _______ _______ _____ _____    ______ ____
ROOT
ATOM      1  O   UNL     1       5.913   7.762  17.628  0.00  0.00    +0.000 OA
ATOM      2  C   UNL     1       5.257   6.874  17.095  0.00  0.00    +0.000 C 
ATOM      3  N   UNL     1       3.894   6.661  17.240  0.00  0.00    +0.000 N 
ATOM      4  H   UNL     1       3.502   5.854  16.771  0.00  0.00    +0.000 HD
ENDROOT
BRANCH   3   5
ATOM      5  C   UNL     1       2.993   7.411  18.029  0.00  0.00    +0.000 A 
ATOM      6  C   UNL     1       2.405   8.609  17.612  0.00  0.00    +0.000 A 
ATOM      7  C   UNL     1       1.561   9.331  18.463  0.00  0.00    +0.000 A 
ATOM      8  C   UNL     1       1.274   8.838  19.738  0.00  0.00    +0.000 A 
ATOM      9  C   UNL     1       1.838   7.637  20.165  0.00  0.00    +0.000 A 
ATOM     10  C   UNL     1       2.691   6.927  19.311  0.00  0.00    +0.000 A 
BRANCH   8  11
ATOM     11  S   UNL     1       0.363   9.858  20.878  0.00  0.00    +0.000 S 
ATOM     12  O   UNL     1      -0.222   8.961  21.858  0.00  0.00    +0.000 OA
ATOM     13  O   UNL     1       1.234  10.928  21.309  0.00  0.00    +0.000 OA
BRANCH  11  14
ATOM     14  N   UNL     1      -0.927  10.440  19.981  0.00  0.00    +0.000 N 
ATOM     15  C   UNL     1      -0.941  11.827  19.876  0.00  0.00    +0.000 A 
ATOM     16  N   UNL     1      -0.243  12.370  18.875  0.00  0.00    +0.000 NA
ATOM     17  C   UNL     1      -0.188  13.714  18.882  0.00  0.00    +0.000 A 
ATOM     18  C   UNL     1      -0.753  14.491  19.867  0.00  0.00    +0.000 A 
ATOM     19  C   UNL     1      -1.434  13.808  20.848  0.00  0.00    +0.000 A 
ATOM     20  N   UNL     1      -1.571  12.470  20.861  0.00  0.00    +0.000 NA
ATOM     21  H   UNL     1      -1.788  10.090  20.387  0.00  0.00    +0.000 HD
ENDBRANCH  11  14
ENDBRANCH   8  11
ENDBRANCH   3   5
BRANCH   2  22
ATOM     22  C   UNL     1       5.900   5.895  16.123  0.00  0.00    +0.000 C 
BRANCH  22  23
ATOM     23  C   UNL     1       6.182   4.542  16.780  0.00  0.00    +0.000 C 
BRANCH  23  24
ATOM     24  C   UNL     1       5.070   3.533  16.487  0.00  0.00    +0.000 C 
BRANCH  24  25
ATOM     25  N   UNL     1       4.166   3.391  17.612  0.00  0.00    +0.000 N 
ATOM     26  C   UNL     1       4.552   3.474  18.923  0.00  0.00    +0.000 C 
ATOM     27  O   UNL     1       5.664   3.626  19.389  0.00  0.00    +0.000 OA
ATOM     28  C   UNL     1       3.334   3.343  19.722  0.00  0.00    +0.000 A 
ATOM     29  C   UNL     1       3.153   3.368  21.092  0.00  0.00    +0.000 A 
ATOM     30  C   UNL     1       1.844   3.239  21.567  0.00  0.00    +0.000 A 
ATOM     31  C   UNL     1       0.762   3.086  20.674  0.00  0.00    +0.000 A 
ATOM     32  C   UNL     1       0.972   3.059  19.291  0.00  0.00    +0.000 A 
ATOM     33  C   UNL     1       2.274   3.191  18.847  0.00  0.00    +0.000 A 
ATOM     34  C   UNL     1       2.813   3.221  17.489  0.00  0.00    +0.000 C 
ATOM     35  O   UNL     1       2.142   3.115  16.481  0.00  0.00    +0.000 OA
ENDBRANCH  24  25
ENDBRANCH  23  24
ENDBRANCH  22  23
ENDBRANCH   2  22
TORSDOF 7
ENDMDL
MODEL 7
REMARK VINA RESULT:      -8.6      2.951      8.871
REMARK  Name = 
REMARK  7 active torsions:
REMARK  status: ('A' for Active; 'I' for Inactive)
REMARK    1  A    between atoms: C_2  and  C_3
REMARK    2  A    between atoms: C_3  and  C_4
REMARK    3  A    between atoms: C_4  and  C_5
REMARK    4  A    between atoms: C_5  and  N_6
REMARK    5  A    between atoms: N_17  and  C_18
REMARK    6  A    between atoms: C_21  and  S_22
REMARK    7  A    between atoms: S_22  and  N_25
REMARK                            x       y       z     vdW  Elec       q    Type
REMARK                         _______ _______ _______ _____ _____    ______ ____
ROOT
ATOM      1  O   UNL     1       5.878   7.636  17.494  0.00  0.00    +0.000 OA
ATOM      2  C   UNL     1       5.172   6.758  17.009  0.00  0.00    +0.000 C 
ATOM      3  N   UNL     1       3.821   6.561  17.254  0.00  0.00    +0.000 N 
ATOM      4  H   UNL     1       3.385   5.762  16.812  0.00  0.00    +0.000 HD
ENDROOT
BRANCH   3   5
ATOM      5  C   UNL     1       2.992   7.319  18.111  0.00  0.00    +0.000 A 
ATOM      6  C   UNL     1       2.654   6.928  19.411  0.00  0.00    +0.000 A 
ATOM      7  C   UNL     1       1.785   7.700  20.191  0.00  0.00    +0.000 A 
ATOM      8  C   UNL     1       1.268   8.892  19.681  0.00  0.00    +0.000 A 
ATOM      9  C   UNL     1       1.608   9.307  18.394  0.00  0.00    +0.000 A 
ATOM     10  C   UNL     1       2.469   8.522  17.616  0.00  0.00    +0.000 A 
BRANCH   8  11
ATOM     11  S   UNL     1       0.015   9.759  20.601  0.00  0.00    +0.000 S 
ATOM     12  O   UNL     1      -0.927  10.282  19.628  0.00  0.00    +0.000 OA
ATOM     13  O   UNL     1      -0.448   8.883  21.654  0.00  0.00    +0.000 OA
BRANCH  11  14
ATOM     14  N   UNL     1       0.803  11.101  21.223  0.00  0.00    +0.000 N 
ATOM     15  C   UNL     1       0.480  12.282  20.563  0.00  0.00    +0.000 A 
ATOM     16  N   UNL     1      -0.595  12.947  20.995  0.00  0.00    +0.000 NA
ATOM     17  C   UNL     1      -0.939  14.017  20.255  0.00  0.00    +0.000 A 
ATOM     18  C   UNL     1      -0.280  14.386  19.104  0.00  0.00    +0.000 A 
ATOM     19  C   UNL     1       0.803  13.610  18.762  0.00  0.00    +0.000 A 
ATOM     20  N   UNL     1       1.227  12.564  19.495  0.00  0.00    +0.000 NA
ATOM     21  H   UNL     1       1.802  10.927  21.205  0.00  0.00    +0.000 HD
ENDBRANCH  11  14
ENDBRANCH   8  11
ENDBRANCH   3   5
BRANCH   2  22
ATOM     22  C   UNL     1       5.728   5.776  15.988  0.00  0.00    +0.000 C 
BRANCH  22  23
ATOM     23  C   UNL     1       6.205   4.479  16.645  0.00  0.00    +0.000 C 
BRANCH  23  24
ATOM     24  C   UNL     1       5.167   3.364  16.507  0.00  0.00    +0.000 C 
BRANCH  24  25
ATOM     25  N   UNL     1       4.217   3.380  17.603  0.00  0.00    +0.000 N 
ATOM     26  C   UNL     1       2.866   3.219  17.452  0.00  0.00    +0.000 C 
ATOM     27  O   UNL     1       2.217   3.084  16.433  0.00  0.00    +0.000 OA
ATOM     28  C   UNL     1       2.294   3.234  18.798  0.00  0.00    +0.000 A 
ATOM     29  C   UNL     1       0.985   3.100  19.218  0.00  0.00    +0.000 A 
ATOM     30  C   UNL     1       0.748   3.133  20.595  0.00  0.00    +0.000 A 
ATOM     31  C   UNL     1       1.810   3.302  21.508  0.00  0.00    +0.000 A 
ATOM     32  C   UNL     1       3.127   3.440  21.058  0.00  0.00    +0.000 A 
ATOM     33  C   UNL     1       3.335   3.401  19.693  0.00  0.00    +0.000 A 
ATOM     34  C   UNL     1       4.572   3.497  18.920  0.00  0.00    +0.000 C 
ATOM     35  O   UNL     1       5.676   3.646  19.406  0.00  0.00    +0.000 OA
ENDBRANCH  24  25
ENDBRANCH  23  24
ENDBRANCH  22  23
ENDBRANCH   2  22
TORSDOF 7
ENDMDL
MODEL 8
REMARK VINA RESULT:      -8.4      2.342      8.846
REMARK  Name = 
REMARK  7 active torsions:
REMARK  status: ('A' for Active; 'I' for Inactive)
REMARK    1  A    between atoms: C_2  and  C_3
REMARK    2  A    between atoms: C_3  and  C_4
REMARK    3  A    between atoms: C_4  and  C_5
REMARK    4  A    between atoms: C_5  and  N_6
REMARK    5  A    between atoms: N_17  and  C_18
REMARK    6  A    between atoms: C_21  and  S_22
REMARK    7  A    between atoms: S_22  and  N_25
REMARK                            x       y       z     vdW  Elec       q    Type
REMARK                         _______ _______ _______ _____ _____    ______ ____
ROOT
ATOM      1  O   UNL     1       6.158   7.113  17.884  0.00  0.00    +0.000 OA
ATOM      2  C   UNL     1       5.402   6.555  17.097  0.00  0.00    +0.000 C 
ATOM      3  N   UNL     1       4.022   6.687  17.050  0.00  0.00    +0.000 N 
ATOM      4  H   UNL     1       3.528   6.124  16.370  0.00  0.00    +0.000 HD
ENDROOT
BRANCH   3   5
ATOM      5  C   UNL     1       3.213   7.478  17.897  0.00  0.00    +0.000 A 
ATOM      6  C   UNL     1       2.702   7.033  19.121  0.00  0.00    +0.000 A 
ATOM      7  C   UNL     1       1.862   7.848  19.889  0.00  0.00    +0.000 A 
ATOM      8  C   UNL     1       1.552   9.136  19.447  0.00  0.00    +0.000 A 
ATOM      9  C   UNL     1       2.066   9.603  18.239  0.00  0.00    +0.000 A 
ATOM     10  C   UNL     1       2.895   8.776  17.471  0.00  0.00    +0.000 A 
BRANCH   8  11
ATOM     11  S   UNL     1       0.332  10.085  20.330  0.00  0.00    +0.000 S 
ATOM     12  O   UNL     1      -0.878   9.282  20.357  0.00  0.00    +0.000 OA
ATOM     13  O   UNL     1       0.928  10.534  21.568  0.00  0.00    +0.000 OA
BRANCH  11  14
ATOM     14  N   UNL     1      -0.013  11.373  19.314  0.00  0.00    +0.000 N 
ATOM     15  C   UNL     1      -1.273  11.290  18.731  0.00  0.00    +0.000 A 
ATOM     16  N   UNL     1      -2.298  11.801  19.418  0.00  0.00    +0.000 NA
ATOM     17  C   UNL     1      -3.510  11.593  18.871  0.00  0.00    +0.000 A 
ATOM     18  C   UNL     1      -3.709  10.864  17.721  0.00  0.00    +0.000 A 
ATOM     19  C   UNL     1      -2.571  10.383  17.116  0.00  0.00    +0.000 A 
ATOM     20  N   UNL     1      -1.330  10.608  17.586  0.00  0.00    +0.000 NA
ATOM     21  H   UNL     1       0.717  11.438  18.613  0.00  0.00    +0.000 HD
ENDBRANCH  11  14
ENDBRANCH   8  11
ENDBRANCH   3   5
BRANCH   2  22
ATOM     22  C   UNL     1       5.938   5.654  15.994  0.00  0.00    +0.000 C 
BRANCH  22  23
ATOM     23  C   UNL     1       4.957   4.532  15.647  0.00  0.00    +0.000 C 
BRANCH  23  24
ATOM     24  C   UNL     1       5.171   3.305  16.536  0.00  0.00    +0.000 C 
BRANCH  24  25
ATOM     25  N   UNL     1       4.227   3.271  17.636  0.00  0.00    +0.000 N 
ATOM     26  C   UNL     1       4.566   3.479  18.946  0.00  0.00    +0.000 C 
ATOM     27  O   UNL     1       5.660   3.677  19.435  0.00  0.00    +0.000 OA
ATOM     28  C   UNL     1       3.319   3.425  19.710  0.00  0.00    +0.000 A 
ATOM     29  C   UNL     1       3.089   3.581  21.063  0.00  0.00    +0.000 A 
ATOM     30  C   UNL     1       1.764   3.497  21.501  0.00  0.00    +0.000 A 
ATOM     31  C   UNL     1       0.714   3.258  20.588  0.00  0.00    +0.000 A 
ATOM     32  C   UNL     1       0.974   3.099  19.223  0.00  0.00    +0.000 A 
ATOM     33  C   UNL     1       2.291   3.189  18.816  0.00  0.00    +0.000 A 
ATOM     34  C   UNL     1       2.879   3.089  17.482  0.00  0.00    +0.000 C 
ATOM     35  O   UNL     1       2.245   2.886  16.464  0.00  0.00    +0.000 OA
ENDBRANCH  24  25
ENDBRANCH  23  24
ENDBRANCH  22  23
ENDBRANCH   2  22
TORSDOF 7
ENDMDL
MODEL 9
REMARK VINA RESULT:      -8.4      2.448      3.220
REMARK  Name = 
REMARK  7 active torsions:
REMARK  status: ('A' for Active; 'I' for Inactive)
REMARK    1  A    between atoms: C_2  and  C_3
REMARK    2  A    between atoms: C_3  and  C_4
REMARK    3  A    between atoms: C_4  and  C_5
REMARK    4  A    between atoms: C_5  and  N_6
REMARK    5  A    between atoms: N_17  and  C_18
REMARK    6  A    between atoms: C_21  and  S_22
REMARK    7  A    between atoms: S_22  and  N_25
REMARK                            x       y       z     vdW  Elec       q    Type
REMARK                         _______ _______ _______ _____ _____    ______ ____
ROOT
ATOM      1  O   UNL     1      -0.164  10.149  23.528  0.00  0.00    +0.000 OA
ATOM      2  C   UNL     1      -0.377  10.959  22.632  0.00  0.00    +0.000 C 
ATOM      3  N   UNL     1      -0.034  10.815  21.296  0.00  0.00    +0.000 N 
ATOM      4  H   UNL     1      -0.235  11.594  20.683  0.00  0.00    +0.000 HD
ENDROOT
BRANCH   3   5
ATOM      5  C   UNL     1       0.632   9.719  20.701  0.00  0.00    +0.000 A 
ATOM      6  C   UNL     1       0.917   8.525  21.371  0.00  0.00    +0.000 A 
ATOM      7  C   UNL     1       1.626   7.497  20.739  0.00  0.00    +0.000 A 
ATOM      8  C   UNL     1       2.032   7.648  19.412  0.00  0.00    +0.000 A 
ATOM      9  C   UNL     1       1.742   8.825  18.722  0.00  0.00    +0.000 A 
ATOM     10  C   UNL     1       1.042   9.853  19.366  0.00  0.00    +0.000 A 
BRANCH   8  11
ATOM     11  S   UNL     1       3.100   6.423  18.686  0.00  0.00    +0.000 S 
ATOM     12  O   UNL     1       3.882   7.104  17.670  0.00  0.00    +0.000 OA
ATOM     13  O   UNL     1       3.767   5.722  19.760  0.00  0.00    +0.000 OA
BRANCH  11  14
ATOM     14  N   UNL     1       2.064   5.409  17.843  0.00  0.00    +0.000 N 
ATOM     15  C   UNL     1       2.279   4.061  18.109  0.00  0.00    +0.000 A 
ATOM     16  N   UNL     1       1.639   3.536  19.157  0.00  0.00    +0.000 NA
ATOM     17  C   UNL     1       1.967   2.264  19.446  0.00  0.00    +0.000 A 
ATOM     18  C   UNL     1       2.928   1.554  18.762  0.00  0.00    +0.000 A 
ATOM     19  C   UNL     1       3.522   2.214  17.711  0.00  0.00    +0.000 A 
ATOM     20  N   UNL     1       3.193   3.465  17.341  0.00  0.00    +0.000 NA
ATOM     21  H   UNL     1       2.147   5.611  16.853  0.00  0.00    +0.000 HD
ENDBRANCH  11  14
ENDBRANCH   8  11
ENDBRANCH   3   5
BRANCH   2  22
ATOM     22  C   UNL     1      -1.131  12.253  22.903  0.00  0.00    +0.000 C 
BRANCH  22  23
ATOM     23  C   UNL     1      -2.599  12.156  22.481  0.00  0.00    +0.000 C 
BRANCH  23  24
ATOM     24  C   UNL     1      -2.940  13.182  21.399  0.00  0.00    +0.000 C 
BRANCH  24  25
ATOM     25  N   UNL     1      -3.067  12.561  20.095  0.00  0.00    +0.000 N 
ATOM     26  C   UNL     1      -4.250  12.124  19.564  0.00  0.00    +0.000 C 
ATOM     27  O   UNL     1      -5.361  12.123  20.057  0.00  0.00    +0.000 OA
ATOM     28  C   UNL     1      -3.945  11.631  18.221  0.00  0.00    +0.000 A 
ATOM     29  C   UNL     1      -4.771  11.094  17.253  0.00  0.00    +0.000 A 
ATOM     30  C   UNL     1      -4.182  10.729  16.039  0.00  0.00    +0.000 A 
ATOM     31  C   UNL     1      -2.798  10.902  15.826  0.00  0.00    +0.000 A 
ATOM     32  C   UNL     1      -1.981  11.444  16.823  0.00  0.00    +0.000 A 
ATOM     33  C   UNL     1      -2.588  11.799  18.012  0.00  0.00    +0.000 A 
ATOM     34  C   UNL     1      -2.025  12.397  19.222  0.00  0.00    +0.000 C 
ATOM     35  O   UNL     1      -0.852  12.678  19.367  0.00  0.00    +0.000 OA
ENDBRANCH  24  25
ENDBRANCH  23  24
ENDBRANCH  22  23
ENDBRANCH   2  22
TORSDOF 7
ENDMDL
