MODEL 1
REMARK VINA RESULT:      -8.7      0.000      0.000
REMARK  Name = 
REMARK  5 active torsions:
REMARK  status: ('A' for Active; 'I' for Inactive)
REMARK    1  A    between atoms: C_6  and  C_7
REMARK    2  A    between atoms: C_10  and  C_11
REMARK    3  A    between atoms: C_11  and  N_12
REMARK    4  A    between atoms: C_15  and  C_16
REMARK    5  A    between atoms: C_16  and  C_17
REMARK                            x       y       z     vdW  Elec       q    Type
REMARK                         _______ _______ _______ _____ _____    ______ ____
ROOT
ATOM      1  C   UNL     1       6.622   4.882  17.513  0.00  0.00    +0.000 C 
ENDROOT
BRANCH   1   5
ATOM      2  C   UNL     1       6.468   4.369  14.018  0.00  0.00    +0.000 A 
ATOM      3  N   UNL     1       7.427   5.274  14.018  0.00  0.00    +0.000 NA
ATOM      4  N   UNL     1       7.648   5.619  15.334  0.00  0.00    +0.000 NA
ATOM      5  C   UNL     1       6.820   4.891  16.054  0.00  0.00    +0.000 A 
ATOM      6  O   UNL     1       6.013   4.092  15.283  0.00  0.00    +0.000 OA
BRANCH   2  12
ATOM      7  F   UNL     1       6.684   0.797  10.779  0.00  0.00    +0.000 F 
ATOM      8  C   UNL     1       6.010   1.829  11.302  0.00  0.00    +0.000 A 
ATOM      9  C   UNL     1       4.756   2.150  10.797  0.00  0.00    +0.000 A 
ATOM     10  C   UNL     1       4.052   3.221  11.342  0.00  0.00    +0.000 A 
ATOM     11  C   UNL     1       4.608   3.957  12.394  0.00  0.00    +0.000 A 
ATOM     12  C   UNL     1       5.874   3.633  12.910  0.00  0.00    +0.000 A 
ATOM     13  C   UNL     1       6.573   2.556  12.344  0.00  0.00    +0.000 A 
ENDBRANCH   2  12
ENDBRANCH   1   5
BRANCH   1  14
ATOM     14  N   UNL     1       5.462   5.666  17.874  0.00  0.00    +0.000 N 
ATOM     15  N   UNL     1       4.977   6.637  17.076  0.00  0.00    +0.000 NA
ATOM     16  N   UNL     1       3.846   7.021  17.652  0.00  0.00    +0.000 NA
ATOM     17  C   UNL     1       3.692   6.242  18.770  0.00  0.00    +0.000 A 
ATOM     18  N   UNL     1       4.673   5.337  18.921  0.00  0.00    +0.000 NA
BRANCH  17  19
ATOM     19  C   UNL     1       2.477   6.293  19.618  0.00  0.00    +0.000 C 
BRANCH  19  20
ATOM     20  C   UNL     1       2.168   4.879  20.056  0.00  0.00    +0.000 A 
ATOM     21  C   UNL     1       2.350   4.541  21.412  0.00  0.00    +0.000 A 
ATOM     22  C   UNL     1       2.027   3.269  21.891  0.00  0.00    +0.000 A 
ATOM     23  C   UNL     1       1.520   2.309  21.023  0.00  0.00    +0.000 A 
ATOM     24  C   UNL     1       1.352   2.614  19.675  0.00  0.00    +0.000 A 
ATOM     25  C   UNL     1       1.676   3.887  19.189  0.00  0.00    +0.000 A 
ATOM     26 BR   UNL     1       1.397   4.187  17.333  0.00  0.00    +0.000 Br
ENDBRANCH  19  20
ENDBRANCH  17  19
ENDBRANCH   1  14
TORSDOF 5
ENDMDL
MODEL 2
REMARK VINA RESULT:      -8.6      5.695      7.792
REMARK  Name = 
REMARK  5 active torsions:
REMARK  status: ('A' for Active; 'I' for Inactive)
REMARK    1  A    between atoms: C_6  and  C_7
REMARK    2  A    between atoms: C_10  and  C_11
REMARK    3  A    between atoms: C_11  and  N_12
REMARK    4  A    between atoms: C_15  and  C_16
REMARK    5  A    between atoms: C_16  and  C_17
REMARK                            x       y       z     vdW  Elec       q    Type
REMARK                         _______ _______ _______ _____ _____    ______ ____
ROOT
ATOM      1  C   UNL     1       7.916   6.183  18.736  0.00  0.00    +0.000 C 
ENDROOT
BRANCH   1   5
ATOM      2  C   UNL     1       8.823   9.594  18.525  0.00  0.00    +0.000 A 
ATOM      3  N   UNL     1       8.015   9.565  17.484  0.00  0.00    +0.000 NA
ATOM      4  N   UNL     1       7.535   8.277  17.388  0.00  0.00    +0.000 NA
ATOM      5  C   UNL     1       8.071   7.605  18.386  0.00  0.00    +0.000 A 
ATOM      6  O   UNL     1       8.928   8.370  19.137  0.00  0.00    +0.000 OA
BRANCH   2  12
ATOM      7  F   UNL     1       9.818  12.437  22.297  0.00  0.00    +0.000 F 
ATOM      8  C   UNL     1      10.044  12.111  21.017  0.00  0.00    +0.000 A 
ATOM      9  C   UNL     1      10.994  12.818  20.292  0.00  0.00    +0.000 A 
ATOM     10  C   UNL     1      11.233  12.477  18.962  0.00  0.00    +0.000 A 
ATOM     11  C   UNL     1      10.522  11.426  18.374  0.00  0.00    +0.000 A 
ATOM     12  C   UNL     1       9.563  10.706  19.106  0.00  0.00    +0.000 A 
ATOM     13  C   UNL     1       9.329  11.068  20.441  0.00  0.00    +0.000 A 
ENDBRANCH   2  12
ENDBRANCH   1   5
BRANCH   1  14
ATOM     14  N   UNL     1       7.123   5.498  17.739  0.00  0.00    +0.000 N 
ATOM     15  N   UNL     1       7.653   4.577  16.912  0.00  0.00    +0.000 NA
ATOM     16  N   UNL     1       6.618   4.068  16.258  0.00  0.00    +0.000 NA
ATOM     17  C   UNL     1       5.500   4.698  16.742  0.00  0.00    +0.000 A 
ATOM     18  N   UNL     1       5.774   5.580  17.718  0.00  0.00    +0.000 NA
BRANCH  17  19
ATOM     19  C   UNL     1       4.128   4.311  16.338  0.00  0.00    +0.000 C 
BRANCH  19  20
ATOM     20  C   UNL     1       3.446   3.718  17.551  0.00  0.00    +0.000 A 
ATOM     21  C   UNL     1       3.604   2.341  17.804  0.00  0.00    +0.000 A 
ATOM     22  C   UNL     1       3.049   1.745  18.939  0.00  0.00    +0.000 A 
ATOM     23  C   UNL     1       2.320   2.512  19.839  0.00  0.00    +0.000 A 
ATOM     24  C   UNL     1       2.132   3.871  19.599  0.00  0.00    +0.000 A 
ATOM     25  C   UNL     1       2.686   4.473  18.462  0.00  0.00    +0.000 A 
ATOM     26 BR   UNL     1       2.368   6.334  18.244  0.00  0.00    +0.000 Br
ENDBRANCH  19  20
ENDBRANCH  17  19
ENDBRANCH   1  14
TORSDOF 5
ENDMDL
MODEL 3
REMARK VINA RESULT:      -8.5      5.278      7.541
REMARK  Name = 
REMARK  5 active torsions:
REMARK  status: ('A' for Active; 'I' for Inactive)
REMARK    1  A    between atoms: C_6  and  C_7
REMARK    2  A    between atoms: C_10  and  C_11
REMARK    3  A    between atoms: C_11  and  N_12
REMARK    4  A    between atoms: C_15  and  C_16
REMARK    5  A    between atoms: C_16  and  C_17
REMARK                            x       y       z     vdW  Elec       q    Type
REMARK                         _______ _______ _______ _____ _____    ______ ____
ROOT
ATOM      1  C   UNL     1       7.581   5.872  18.387  0.00  0.00    +0.000 C 
ENDROOT
BRANCH   1   5
ATOM      2  C   UNL     1       8.557   9.270  18.331  0.00  0.00    +0.000 A 
ATOM      3  N   UNL     1       7.740   9.307  17.297  0.00  0.00    +0.000 NA
ATOM      4  N   UNL     1       7.234   8.035  17.144  0.00  0.00    +0.000 NA
ATOM      5  C   UNL     1       7.762   7.306  18.105  0.00  0.00    +0.000 A 
ATOM      6  O   UNL     1       8.641   8.017  18.884  0.00  0.00    +0.000 OA
BRANCH   2  12
ATOM      7  F   UNL     1      11.737  12.886  17.995  0.00  0.00    +0.000 F 
ATOM      8  C   UNL     1      10.916  12.150  18.756  0.00  0.00    +0.000 A 
ATOM      9  C   UNL     1      10.795  12.443  20.108  0.00  0.00    +0.000 A 
ATOM     10  C   UNL     1       9.938  11.681  20.900  0.00  0.00    +0.000 A 
ATOM     11  C   UNL     1       9.205  10.636  20.327  0.00  0.00    +0.000 A 
ATOM     12  C   UNL     1       9.323  10.339  18.958  0.00  0.00    +0.000 A 
ATOM     13  C   UNL     1      10.196  11.111  18.178  0.00  0.00    +0.000 A 
ENDBRANCH   2  12
ENDBRANCH   1   5
BRANCH   1  14
ATOM     14  N   UNL     1       6.324   5.402  17.848  0.00  0.00    +0.000 N 
ATOM     15  N   UNL     1       6.265   4.449  16.898  0.00  0.00    +0.000 NA
ATOM     16  N   UNL     1       4.974   4.177  16.767  0.00  0.00    +0.000 NA
ATOM     17  C   UNL     1       4.312   4.972  17.667  0.00  0.00    +0.000 A 
ATOM     18  N   UNL     1       5.138   5.731  18.406  0.00  0.00    +0.000 NA
BRANCH  17  19
ATOM     19  C   UNL     1       2.853   4.867  17.904  0.00  0.00    +0.000 C 
BRANCH  19  20
ATOM     20  C   UNL     1       2.430   6.088  18.690  0.00  0.00    +0.000 A 
ATOM     21  C   UNL     1       2.386   7.331  18.028  0.00  0.00    +0.000 A 
ATOM     22  C   UNL     1       1.948   8.485  18.683  0.00  0.00    +0.000 A 
ATOM     23  C   UNL     1       1.551   8.420  20.013  0.00  0.00    +0.000 A 
ATOM     24  C   UNL     1       1.607   7.206  20.694  0.00  0.00    +0.000 A 
ATOM     25  C   UNL     1       2.046   6.047  20.042  0.00  0.00    +0.000 A 
ATOM     26 BR   UNL     1       2.072   4.449  21.072  0.00  0.00    +0.000 Br
ENDBRANCH  19  20
ENDBRANCH  17  19
ENDBRANCH   1  14
TORSDOF 5
ENDMDL
MODEL 4
REMARK VINA RESULT:      -8.5      5.271      7.333
REMARK  Name = 
REMARK  5 active torsions:
REMARK  status: ('A' for Active; 'I' for Inactive)
REMARK    1  A    between atoms: C_6  and  C_7
REMARK    2  A    between atoms: C_10  and  C_11
REMARK    3  A    between atoms: C_11  and  N_12
REMARK    4  A    between atoms: C_15  and  C_16
REMARK    5  A    between atoms: C_16  and  C_17
REMARK                            x       y       z     vdW  Elec       q    Type
REMARK                         _______ _______ _______ _____ _____    ______ ____
ROOT
ATOM      1  C   UNL     1       7.886   5.838  18.654  0.00  0.00    +0.000 C 
ENDROOT
BRANCH   1   5
ATOM      2  C   UNL     1       8.583   9.289  18.327  0.00  0.00    +0.000 A 
ATOM      3  N   UNL     1       7.745   9.185  17.315  0.00  0.00    +0.000 NA
ATOM      4  N   UNL     1       7.340   7.869  17.267  0.00  0.00    +0.000 NA
ATOM      5  C   UNL     1       7.945   7.257  18.264  0.00  0.00    +0.000 A 
ATOM      6  O   UNL     1       8.779   8.090  18.966  0.00  0.00    +0.000 OA
BRANCH   2  12
ATOM      7  F   UNL     1      11.060  13.366  17.594  0.00  0.00    +0.000 F 
ATOM      8  C   UNL     1      10.509  12.500  18.454  0.00  0.00    +0.000 A 
ATOM      9  C   UNL     1      10.583  12.754  19.818  0.00  0.00    +0.000 A 
ATOM     10  C   UNL     1      10.007  11.857  20.714  0.00  0.00    +0.000 A 
ATOM     11  C   UNL     1       9.355  10.716  20.234  0.00  0.00    +0.000 A 
ATOM     12  C   UNL     1       9.274  10.457  18.855  0.00  0.00    +0.000 A 
ATOM     13  C   UNL     1       9.867  11.367  17.967  0.00  0.00    +0.000 A 
ENDBRANCH   2  12
ENDBRANCH   1   5
BRANCH   1  14
ATOM     14  N   UNL     1       6.550   5.315  18.470  0.00  0.00    +0.000 N 
ATOM     15  N   UNL     1       6.151   4.157  19.029  0.00  0.00    +0.000 NA
ATOM     16  N   UNL     1       4.852   4.082  18.772  0.00  0.00    +0.000 NA
ATOM     17  C   UNL     1       4.523   5.220  18.082  0.00  0.00    +0.000 A 
ATOM     18  N   UNL     1       5.564   6.051  17.910  0.00  0.00    +0.000 NA
BRANCH  17  19
ATOM     19  C   UNL     1       3.127   5.558  17.719  0.00  0.00    +0.000 C 
BRANCH  19  20
ATOM     20  C   UNL     1       2.219   4.610  18.470  0.00  0.00    +0.000 A 
ATOM     21  C   UNL     1       1.936   3.354  17.897  0.00  0.00    +0.000 A 
ATOM     22  C   UNL     1       1.152   2.411  18.566  0.00  0.00    +0.000 A 
ATOM     23  C   UNL     1       0.631   2.707  19.820  0.00  0.00    +0.000 A 
ATOM     24  C   UNL     1       0.879   3.950  20.398  0.00  0.00    +0.000 A 
ATOM     25  C   UNL     1       1.663   4.899  19.729  0.00  0.00    +0.000 A 
ATOM     26 BR   UNL     1       1.938   6.556  20.619  0.00  0.00    +0.000 Br
ENDBRANCH  19  20
ENDBRANCH  17  19
ENDBRANCH   1  14
TORSDOF 5
ENDMDL
MODEL 5
REMARK VINA RESULT:      -8.3      5.273      7.246
REMARK  Name = 
REMARK  5 active torsions:
REMARK  status: ('A' for Active; 'I' for Inactive)
REMARK    1  A    between atoms: C_6  and  C_7
REMARK    2  A    between atoms: C_10  and  C_11
REMARK    3  A    between atoms: C_11  and  N_12
REMARK    4  A    between atoms: C_15  and  C_16
REMARK    5  A    between atoms: C_16  and  C_17
REMARK                            x       y       z     vdW  Elec       q    Type
REMARK                         _______ _______ _______ _____ _____    ______ ____
ROOT
ATOM      1  C   UNL     1       8.091   5.837  18.880  0.00  0.00    +0.000 C 
ENDROOT
BRANCH   1   5
ATOM      2  C   UNL     1       8.519   9.293  18.272  0.00  0.00    +0.000 A 
ATOM      3  N   UNL     1       7.761   9.026  17.227  0.00  0.00    +0.000 NA
ATOM      4  N   UNL     1       7.471   7.680  17.280  0.00  0.00    +0.000 NA
ATOM      5  C   UNL     1       8.058   7.215  18.363  0.00  0.00    +0.000 A 
ATOM      6  O   UNL     1       8.772   8.178  19.031  0.00  0.00    +0.000 OA
BRANCH   2  12
ATOM      7  F   UNL     1       9.230  14.022  17.615  0.00  0.00    +0.000 F 
ATOM      8  C   UNL     1       9.409  12.932  18.372  0.00  0.00    +0.000 A 
ATOM      9  C   UNL     1      10.088  13.044  19.578  0.00  0.00    +0.000 A 
ATOM     10  C   UNL     1      10.270  11.911  20.369  0.00  0.00    +0.000 A 
ATOM     11  C   UNL     1       9.765  10.677  19.946  0.00  0.00    +0.000 A 
ATOM     12  C   UNL     1       9.074  10.561  18.727  0.00  0.00    +0.000 A 
ATOM     13  C   UNL     1       8.906  11.710  17.940  0.00  0.00    +0.000 A 
ENDBRANCH   2  12
ENDBRANCH   1   5
BRANCH   1  14
ATOM     14  N   UNL     1       6.750   5.314  19.020  0.00  0.00    +0.000 N 
ATOM     15  N   UNL     1       5.719   6.084  19.418  0.00  0.00    +0.000 NA
ATOM     16  N   UNL     1       4.647   5.316  19.284  0.00  0.00    +0.000 NA
ATOM     17  C   UNL     1       5.084   4.115  18.788  0.00  0.00    +0.000 A 
ATOM     18  N   UNL     1       6.408   4.089  18.562  0.00  0.00    +0.000 NA
BRANCH  17  19
ATOM     19  C   UNL     1       4.157   3.029  18.390  0.00  0.00    +0.000 C 
BRANCH  19  20
ATOM     20  C   UNL     1       3.054   2.971  19.423  0.00  0.00    +0.000 A 
ATOM     21  C   UNL     1       3.330   2.371  20.668  0.00  0.00    +0.000 A 
ATOM     22  C   UNL     1       2.372   2.337  21.684  0.00  0.00    +0.000 A 
ATOM     23  C   UNL     1       1.118   2.899  21.475  0.00  0.00    +0.000 A 
ATOM     24  C   UNL     1       0.815   3.478  20.245  0.00  0.00    +0.000 A 
ATOM     25  C   UNL     1       1.772   3.513  19.223  0.00  0.00    +0.000 A 
ATOM     26 BR   UNL     1       1.245   4.336  17.592  0.00  0.00    +0.000 Br
ENDBRANCH  19  20
ENDBRANCH  17  19
ENDBRANCH   1  14
TORSDOF 5
ENDMDL
MODEL 6
REMARK VINA RESULT:      -8.3      5.403      7.417
REMARK  Name = 
REMARK  5 active torsions:
REMARK  status: ('A' for Active; 'I' for Inactive)
REMARK    1  A    between atoms: C_6  and  C_7
REMARK    2  A    between atoms: C_10  and  C_11
REMARK    3  A    between atoms: C_11  and  N_12
REMARK    4  A    between atoms: C_15  and  C_16
REMARK    5  A    between atoms: C_16  and  C_17
REMARK                            x       y       z     vdW  Elec       q    Type
REMARK                         _______ _______ _______ _____ _____    ______ ____
ROOT
ATOM      1  C   UNL     1       8.205   5.850  18.667  0.00  0.00    +0.000 C 
ENDROOT
BRANCH   1   5
ATOM      2  C   UNL     1       8.412   9.353  18.239  0.00  0.00    +0.000 A 
ATOM      3  N   UNL     1       7.486   9.122  17.329  0.00  0.00    +0.000 NA
ATOM      4  N   UNL     1       7.251   7.764  17.338  0.00  0.00    +0.000 NA
ATOM      5  C   UNL     1       8.038   7.256  18.263  0.00  0.00    +0.000 A 
ATOM      6  O   UNL     1       8.831   8.203  18.859  0.00  0.00    +0.000 OA
BRANCH   2  12
ATOM      7  F   UNL     1      10.308  12.090  21.733  0.00  0.00    +0.000 F 
ATOM      8  C   UNL     1       9.954  11.957  20.449  0.00  0.00    +0.000 A 
ATOM      9  C   UNL     1      10.185  13.004  19.566  0.00  0.00    +0.000 A 
ATOM     10  C   UNL     1       9.821  12.865  18.228  0.00  0.00    +0.000 A 
ATOM     11  C   UNL     1       9.234  11.674  17.786  0.00  0.00    +0.000 A 
ATOM     12  C   UNL     1       9.002  10.611  18.676  0.00  0.00    +0.000 A 
ATOM     13  C   UNL     1       9.367  10.771  20.021  0.00  0.00    +0.000 A 
ENDBRANCH   2  12
ENDBRANCH   1   5
BRANCH   1  14
ATOM     14  N   UNL     1       6.942   5.148  18.606  0.00  0.00    +0.000 N 
ATOM     15  N   UNL     1       6.217   4.882  19.710  0.00  0.00    +0.000 NA
ATOM     16  N   UNL     1       5.078   4.377  19.257  0.00  0.00    +0.000 NA
ATOM     17  C   UNL     1       5.163   4.382  17.889  0.00  0.00    +0.000 A 
ATOM     18  N   UNL     1       6.313   4.908  17.435  0.00  0.00    +0.000 NA
BRANCH  17  19
ATOM     19  C   UNL     1       4.027   4.000  17.016  0.00  0.00    +0.000 C 
BRANCH  19  20
ATOM     20  C   UNL     1       2.858   3.662  17.913  0.00  0.00    +0.000 A 
ATOM     21  C   UNL     1       2.544   2.304  18.126  0.00  0.00    +0.000 A 
ATOM     22  C   UNL     1       1.513   1.926  18.989  0.00  0.00    +0.000 A 
ATOM     23  C   UNL     1       0.771   2.896  19.652  0.00  0.00    +0.000 A 
ATOM     24  C   UNL     1       1.048   4.245  19.440  0.00  0.00    +0.000 A 
ATOM     25  C   UNL     1       2.081   4.629  18.575  0.00  0.00    +0.000 A 
ATOM     26 BR   UNL     1       2.369   6.497  18.372  0.00  0.00    +0.000 Br
ENDBRANCH  19  20
ENDBRANCH  17  19
ENDBRANCH   1  14
TORSDOF 5
ENDMDL
MODEL 7
REMARK VINA RESULT:      -8.3      1.372      1.894
REMARK  Name = 
REMARK  5 active torsions:
REMARK  status: ('A' for Active; 'I' for Inactive)
REMARK    1  A    between atoms: C_6  and  C_7
REMARK    2  A    between atoms: C_10  and  C_11
REMARK    3  A    between atoms: C_11  and  N_12
REMARK    4  A    between atoms: C_15  and  C_16
REMARK    5  A    between atoms: C_16  and  C_17
REMARK                            x       y       z     vdW  Elec       q    Type
REMARK                         _______ _______ _______ _____ _____    ______ ____
ROOT
ATOM      1  C   UNL     1       6.649   5.239  17.388  0.00  0.00    +0.000 C 
ENDROOT
BRANCH   1   5
ATOM      2  C   UNL     1       6.745   4.424  13.949  0.00  0.00    +0.000 A 
ATOM      3  N   UNL     1       7.681   5.352  13.933  0.00  0.00    +0.000 NA
ATOM      4  N   UNL     1       7.805   5.815  15.225  0.00  0.00    +0.000 NA
ATOM      5  C   UNL     1       6.946   5.128  15.949  0.00  0.00    +0.000 A 
ATOM      6  O   UNL     1       6.211   4.244  15.200  0.00  0.00    +0.000 OA
BRANCH   2  12
ATOM      7  F   UNL     1       3.141   3.043  11.050  0.00  0.00    +0.000 F 
ATOM      8  C   UNL     1       4.419   2.914  11.429  0.00  0.00    +0.000 A 
ATOM      9  C   UNL     1       5.237   2.007  10.768  0.00  0.00    +0.000 A 
ATOM     10  C   UNL     1       6.568   1.874  11.159  0.00  0.00    +0.000 A 
ATOM     11  C   UNL     1       7.069   2.658  12.204  0.00  0.00    +0.000 A 
ATOM     12  C   UNL     1       6.245   3.580  12.872  0.00  0.00    +0.000 A 
ATOM     13  C   UNL     1       4.905   3.695  12.471  0.00  0.00    +0.000 A 
ENDBRANCH   2  12
ENDBRANCH   1   5
BRANCH   1  14
ATOM     14  N   UNL     1       5.307   5.736  17.594  0.00  0.00    +0.000 N 
ATOM     15  N   UNL     1       4.975   7.021  17.362  0.00  0.00    +0.000 NA
ATOM     16  N   UNL     1       3.659   7.067  17.511  0.00  0.00    +0.000 NA
ATOM     17  C   UNL     1       3.253   5.791  17.808  0.00  0.00    +0.000 A 
ATOM     18  N   UNL     1       4.264   4.907  17.823  0.00  0.00    +0.000 NA
BRANCH  17  19
ATOM     19  C   UNL     1       1.824   5.415  17.928  0.00  0.00    +0.000 C 
BRANCH  19  20
ATOM     20  C   UNL     1       1.704   4.446  19.083  0.00  0.00    +0.000 A 
ATOM     21  C   UNL     1       1.635   3.067  18.799  0.00  0.00    +0.000 A 
ATOM     22  C   UNL     1       1.582   2.119  19.823  0.00  0.00    +0.000 A 
ATOM     23  C   UNL     1       1.591   2.529  21.150  0.00  0.00    +0.000 A 
ATOM     24  C   UNL     1       1.636   3.888  21.455  0.00  0.00    +0.000 A 
ATOM     25  C   UNL     1       1.689   4.843  20.432  0.00  0.00    +0.000 A 
ATOM     26 BR   UNL     1       1.755   6.665  20.970  0.00  0.00    +0.000 Br
ENDBRANCH  19  20
ENDBRANCH  17  19
ENDBRANCH   1  14
TORSDOF 5
ENDMDL
MODEL 8
REMARK VINA RESULT:      -8.2      1.340      1.550
REMARK  Name = 
REMARK  5 active torsions:
REMARK  status: ('A' for Active; 'I' for Inactive)
REMARK    1  A    between atoms: C_6  and  C_7
REMARK    2  A    between atoms: C_10  and  C_11
REMARK    3  A    between atoms: C_11  and  N_12
REMARK    4  A    between atoms: C_15  and  C_16
REMARK    5  A    between atoms: C_16  and  C_17
REMARK                            x       y       z     vdW  Elec       q    Type
REMARK                         _______ _______ _______ _____ _____    ______ ____
ROOT
ATOM      1  C   UNL     1       5.825   7.227  17.157  0.00  0.00    +0.000 C 
ENDROOT
BRANCH   1   5
ATOM      2  C   UNL     1       6.601   4.739  14.769  0.00  0.00    +0.000 A 
ATOM      3  N   UNL     1       7.637   4.546  15.562  0.00  0.00    +0.000 NA
ATOM      4  N   UNL     1       7.519   5.449  16.597  0.00  0.00    +0.000 NA
ATOM      5  C   UNL     1       6.411   6.125  16.375  0.00  0.00    +0.000 A 
ATOM      6  O   UNL     1       5.787   5.751  15.212  0.00  0.00    +0.000 OA
BRANCH   2  12
ATOM      7  F   UNL     1       7.765   2.077  10.914  0.00  0.00    +0.000 F 
ATOM      8  C   UNL     1       6.821   2.695  11.636  0.00  0.00    +0.000 A 
ATOM      9  C   UNL     1       5.495   2.622  11.229  0.00  0.00    +0.000 A 
ATOM     10  C   UNL     1       4.512   3.260  11.982  0.00  0.00    +0.000 A 
ATOM     11  C   UNL     1       4.867   3.961  13.140  0.00  0.00    +0.000 A 
ATOM     12  C   UNL     1       6.207   4.034  13.556  0.00  0.00    +0.000 A 
ATOM     13  C   UNL     1       7.185   3.392  12.783  0.00  0.00    +0.000 A 
ENDBRANCH   2  12
ENDBRANCH   1   5
BRANCH   1  14
ATOM     14  N   UNL     1       4.467   6.913  17.541  0.00  0.00    +0.000 N 
ATOM     15  N   UNL     1       3.505   7.854  17.602  0.00  0.00    +0.000 NA
ATOM     16  N   UNL     1       2.385   7.183  17.835  0.00  0.00    +0.000 NA
ATOM     17  C   UNL     1       2.725   5.856  17.883  0.00  0.00    +0.000 A 
ATOM     18  N   UNL     1       4.031   5.639  17.655  0.00  0.00    +0.000 NA
BRANCH  17  19
ATOM     19  C   UNL     1       1.718   4.777  18.008  0.00  0.00    +0.000 C 
BRANCH  19  20
ATOM     20  C   UNL     1       2.040   3.994  19.261  0.00  0.00    +0.000 A 
ATOM     21  C   UNL     1       1.585   4.491  20.499  0.00  0.00    +0.000 A 
ATOM     22  C   UNL     1       1.800   3.786  21.685  0.00  0.00    +0.000 A 
ATOM     23  C   UNL     1       2.478   2.573  21.658  0.00  0.00    +0.000 A 
ATOM     24  C   UNL     1       2.956   2.073  20.450  0.00  0.00    +0.000 A 
ATOM     25  C   UNL     1       2.744   2.777  19.257  0.00  0.00    +0.000 A 
ATOM     26 BR   UNL     1       3.436   1.992  17.671  0.00  0.00    +0.000 Br
ENDBRANCH  19  20
ENDBRANCH  17  19
ENDBRANCH   1  14
TORSDOF 5
ENDMDL
MODEL 9
REMARK VINA RESULT:      -8.1      2.155      3.395
REMARK  Name = 
REMARK  5 active torsions:
REMARK  status: ('A' for Active; 'I' for Inactive)
REMARK    1  A    between atoms: C_6  and  C_7
REMARK    2  A    between atoms: C_10  and  C_11
REMARK    3  A    between atoms: C_11  and  N_12
REMARK    4  A    between atoms: C_15  and  C_16
REMARK    5  A    between atoms: C_16  and  C_17
REMARK                            x       y       z     vdW  Elec       q    Type
REMARK                         _______ _______ _______ _____ _____    ______ ____
ROOT
ATOM      1  C   UNL     1       6.298   4.566  18.150  0.00  0.00    +0.000 C 
ENDROOT
BRANCH   1   5
ATOM      2  C   UNL     1       6.517   4.504  14.622  0.00  0.00    +0.000 A 
ATOM      3  N   UNL     1       7.298   5.546  14.825  0.00  0.00    +0.000 NA
ATOM      4  N   UNL     1       7.349   5.745  16.188  0.00  0.00    +0.000 NA
ATOM      5  C   UNL     1       6.607   4.802  16.730  0.00  0.00    +0.000 A 
ATOM      6  O   UNL     1       6.018   3.990  15.793  0.00  0.00    +0.000 OA
BRANCH   2  12
ATOM      7  F   UNL     1       7.764   1.896  10.756  0.00  0.00    +0.000 F 
ATOM      8  C   UNL     1       6.808   2.521  11.456  0.00  0.00    +0.000 A 
ATOM      9  C   UNL     1       5.497   2.489  10.998  0.00  0.00    +0.000 A 
ATOM     10  C   UNL     1       4.501   3.135  11.727  0.00  0.00    +0.000 A 
ATOM     11  C   UNL     1       4.827   3.803  12.912  0.00  0.00    +0.000 A 
ATOM     12  C   UNL     1       6.152   3.834  13.380  0.00  0.00    +0.000 A 
ATOM     13  C   UNL     1       7.144   3.185  12.630  0.00  0.00    +0.000 A 
ENDBRANCH   2  12
ENDBRANCH   1   5
BRANCH   1  14
ATOM     14  N   UNL     1       4.915   4.881  18.429  0.00  0.00    +0.000 N 
ATOM     15  N   UNL     1       3.901   4.123  17.968  0.00  0.00    +0.000 NA
ATOM     16  N   UNL     1       2.813   4.621  18.539  0.00  0.00    +0.000 NA
ATOM     17  C   UNL     1       3.229   5.653  19.341  0.00  0.00    +0.000 A 
ATOM     18  N   UNL     1       4.563   5.820  19.335  0.00  0.00    +0.000 NA
BRANCH  17  19
ATOM     19  C   UNL     1       2.309   6.385  20.242  0.00  0.00    +0.000 C 
BRANCH  19  20
ATOM     20  C   UNL     1       1.974   7.702  19.578  0.00  0.00    +0.000 A 
ATOM     21  C   UNL     1       2.319   7.879  18.224  0.00  0.00    +0.000 A 
ATOM     22  C   UNL     1       1.986   9.050  17.538  0.00  0.00    +0.000 A 
ATOM     23  C   UNL     1       1.305  10.068  18.194  0.00  0.00    +0.000 A 
ATOM     24  C   UNL     1       0.973   9.925  19.539  0.00  0.00    +0.000 A 
ATOM     25  C   UNL     1       1.306   8.754  20.231  0.00  0.00    +0.000 A 
ATOM     26 BR   UNL     1       0.794   8.671  22.060  0.00  0.00    +0.000 Br
ENDBRANCH  19  20
ENDBRANCH  17  19
ENDBRANCH   1  14
TORSDOF 5
ENDMDL
