MODEL 1
REMARK VINA RESULT:      -8.4      0.000      0.000
REMARK  Name = 
REMARK  4 active torsions:
REMARK  status: ('A' for Active; 'I' for Inactive)
REMARK    1  A    between atoms: C_1  and  C_2
REMARK    2  A    between atoms: C_14  and  C_16
REMARK    3  A    between atoms: C_16  and  N_17
REMARK    4  A    between atoms: C_20  and  C_21
REMARK                            x       y       z     vdW  Elec       q    Type
REMARK                         _______ _______ _______ _____ _____    ______ ____
ROOT
ATOM      1  C   UNL     1       1.992   9.093  17.593  0.00  0.00    +0.000 C 
ATOM      2  C   UNL     1       1.868   7.923  18.573  0.00  0.00    +0.000 C 
ATOM      3  C   UNL     1       1.861   8.454  20.018  0.00  0.00    +0.000 C 
ATOM      4  C   UNL     1       1.248   7.405  20.922  0.00  0.00    +0.000 C 
ATOM      5  O   UNL     1       0.109   7.482  21.364  0.00  0.00    +0.000 OA
ATOM      6  N   UNL     1       2.076   6.295  21.072  0.00  0.00    +0.000 N 
ATOM      7  C   UNL     1       1.851   5.300  20.082  0.00  0.00    +0.000 A 
ATOM      8  C   UNL     1       1.239   4.109  20.465  0.00  0.00    +0.000 A 
ATOM      9  C   UNL     1       1.039   3.106  19.517  0.00  0.00    +0.000 A 
ATOM     10  C   UNL     1       1.435   3.305  18.193  0.00  0.00    +0.000 A 
ATOM     11  C   UNL     1       2.046   4.502  17.807  0.00  0.00    +0.000 A 
ATOM     12  C   UNL     1       2.284   5.502  18.753  0.00  0.00    +0.000 A 
ATOM     13  N   UNL     1       2.819   6.769  18.346  0.00  0.00    +0.000 N 
ATOM     14  C   UNL     1       4.109   6.903  17.783  0.00  0.00    +0.000 C 
ATOM     15  O   UNL     1       4.555   8.004  17.459  0.00  0.00    +0.000 OA
ATOM     16  H   UNL     1       3.035   6.618  20.978  0.00  0.00    +0.000 HD
ENDROOT
BRANCH  14  17
ATOM     17  C   UNL     1       4.953   5.638  17.631  0.00  0.00    +0.000 C 
BRANCH  17  18
ATOM     18  N   UNL     1       5.493   5.452  16.288  0.00  0.00    +0.000 N 
ATOM     19  N   UNL     1       6.789   5.716  16.036  0.00  0.00    +0.000 NA
ATOM     20  N   UNL     1       7.033   5.154  14.861  0.00  0.00    +0.000 NA
ATOM     21  C   UNL     1       5.881   4.512  14.465  0.00  0.00    +0.000 A 
ATOM     22  N   UNL     1       4.893   4.637  15.374  0.00  0.00    +0.000 NA
BRANCH  21  23
ATOM     23  C   UNL     1       5.810   3.750  13.212  0.00  0.00    +0.000 A 
ATOM     24  C   UNL     1       4.590   3.517  12.554  0.00  0.00    +0.000 A 
ATOM     25  C   UNL     1       4.542   2.776  11.361  0.00  0.00    +0.000 A 
ATOM     26  C   UNL     1       5.712   2.255  10.812  0.00  0.00    +0.000 A 
ATOM     27  C   UNL     1       6.922   2.488  11.457  0.00  0.00    +0.000 A 
ATOM     28  F   UNL     1       8.047   1.993  10.933  0.00  0.00    +0.000 F 
ATOM     29  C   UNL     1       6.979   3.224  12.638  0.00  0.00    +0.000 A 
ENDBRANCH  21  23
ENDBRANCH  17  18
ENDBRANCH  14  17
TORSDOF 3
ENDMDL
MODEL 2
REMARK VINA RESULT:      -8.4      1.379      1.678
REMARK  Name = 
REMARK  4 active torsions:
REMARK  status: ('A' for Active; 'I' for Inactive)
REMARK    1  A    between atoms: C_1  and  C_2
REMARK    2  A    between atoms: C_14  and  C_16
REMARK    3  A    between atoms: C_16  and  N_17
REMARK    4  A    between atoms: C_20  and  C_21
REMARK                            x       y       z     vdW  Elec       q    Type
REMARK                         _______ _______ _______ _____ _____    ______ ____
ROOT
ATOM      1  C   UNL     1       2.264   8.296  17.574  0.00  0.00    +0.000 C 
ATOM      2  C   UNL     1       2.374   7.026  18.423  0.00  0.00    +0.000 C 
ATOM      3  C   UNL     1       2.216   7.381  19.911  0.00  0.00    +0.000 C 
ATOM      4  C   UNL     1       1.825   6.132  20.674  0.00  0.00    +0.000 C 
ATOM      5  O   UNL     1       0.686   5.915  21.067  0.00  0.00    +0.000 OA
ATOM      6  N   UNL     1       2.871   5.217  20.750  0.00  0.00    +0.000 N 
ATOM      7  C   UNL     1       2.893   4.311  19.654  0.00  0.00    +0.000 A 
ATOM      8  C   UNL     1       2.546   2.981  19.884  0.00  0.00    +0.000 A 
ATOM      9  C   UNL     1       2.593   2.070  18.831  0.00  0.00    +0.000 A 
ATOM     10  C   UNL     1       2.969   2.493  17.555  0.00  0.00    +0.000 A 
ATOM     11  C   UNL     1       3.313   3.827  17.322  0.00  0.00    +0.000 A 
ATOM     12  C   UNL     1       3.304   4.745  18.375  0.00  0.00    +0.000 A 
ATOM     13  N   UNL     1       3.559   6.135  18.125  0.00  0.00    +0.000 N 
ATOM     14  C   UNL     1       4.802   6.603  17.640  0.00  0.00    +0.000 C 
ATOM     15  O   UNL     1       5.006   7.803  17.452  0.00  0.00    +0.000 OA
ATOM     16  H   UNL     1       3.738   5.746  20.735  0.00  0.00    +0.000 HD
ENDROOT
BRANCH  14  17
ATOM     17  C   UNL     1       5.906   5.573  17.401  0.00  0.00    +0.000 C 
BRANCH  17  18
ATOM     18  N   UNL     1       6.220   5.367  15.991  0.00  0.00    +0.000 N 
ATOM     19  N   UNL     1       7.443   5.674  15.517  0.00  0.00    +0.000 NA
ATOM     20  N   UNL     1       7.510   5.088  14.331  0.00  0.00    +0.000 NA
ATOM     21  C   UNL     1       6.336   4.390  14.150  0.00  0.00    +0.000 A 
ATOM     22  N   UNL     1       5.511   4.503  15.210  0.00  0.00    +0.000 NA
BRANCH  21  23
ATOM     23  C   UNL     1       6.089   3.589  12.945  0.00  0.00    +0.000 A 
ATOM     24  C   UNL     1       7.120   2.887  12.297  0.00  0.00    +0.000 A 
ATOM     25  C   UNL     1       6.865   2.135  11.138  0.00  0.00    +0.000 A 
ATOM     26  C   UNL     1       5.577   2.076  10.609  0.00  0.00    +0.000 A 
ATOM     27  C   UNL     1       4.553   2.765  11.250  0.00  0.00    +0.000 A 
ATOM     28  F   UNL     1       3.316   2.711  10.749  0.00  0.00    +0.000 F 
ATOM     29  C   UNL     1       4.796   3.511  12.401  0.00  0.00    +0.000 A 
ENDBRANCH  21  23
ENDBRANCH  17  18
ENDBRANCH  14  17
TORSDOF 3
ENDMDL
MODEL 3
REMARK VINA RESULT:      -8.3      1.061      1.394
REMARK  Name = 
REMARK  4 active torsions:
REMARK  status: ('A' for Active; 'I' for Inactive)
REMARK    1  A    between atoms: C_1  and  C_2
REMARK    2  A    between atoms: C_14  and  C_16
REMARK    3  A    between atoms: C_16  and  N_17
REMARK    4  A    between atoms: C_20  and  C_21
REMARK                            x       y       z     vdW  Elec       q    Type
REMARK                         _______ _______ _______ _____ _____    ______ ____
ROOT
ATOM      1  C   UNL     1       2.209   8.868  17.612  0.00  0.00    +0.000 C 
ATOM      2  C   UNL     1       1.952   7.795  18.675  0.00  0.00    +0.000 C 
ATOM      3  C   UNL     1       1.751   8.462  20.047  0.00  0.00    +0.000 C 
ATOM      4  C   UNL     1       1.020   7.498  20.958  0.00  0.00    +0.000 C 
ATOM      5  O   UNL     1      -0.168   7.605  21.234  0.00  0.00    +0.000 OA
ATOM      6  N   UNL     1       1.818   6.417  21.324  0.00  0.00    +0.000 N 
ATOM      7  C   UNL     1       1.726   5.329  20.413  0.00  0.00    +0.000 A 
ATOM      8  C   UNL     1       1.066   4.173  20.824  0.00  0.00    +0.000 A 
ATOM      9  C   UNL     1       0.994   3.083  19.959  0.00  0.00    +0.000 A 
ATOM     10  C   UNL     1       1.565   3.158  18.688  0.00  0.00    +0.000 A 
ATOM     11  C   UNL     1       2.224   4.319  18.273  0.00  0.00    +0.000 A 
ATOM     12  C   UNL     1       2.335   5.407  19.141  0.00  0.00    +0.000 A 
ATOM     13  N   UNL     1       2.922   6.636  18.690  0.00  0.00    +0.000 N 
ATOM     14  C   UNL     1       4.277   6.729  18.294  0.00  0.00    +0.000 C 
ATOM     15  O   UNL     1       4.765   7.799  17.929  0.00  0.00    +0.000 OA
ATOM     16  H   UNL     1       2.782   6.740  21.329  0.00  0.00    +0.000 HD
ENDROOT
BRANCH  14  17
ATOM     17  C   UNL     1       5.131   5.465  18.380  0.00  0.00    +0.000 C 
BRANCH  17  18
ATOM     18  N   UNL     1       6.017   5.278  17.235  0.00  0.00    +0.000 N 
ATOM     19  N   UNL     1       7.256   4.780  17.411  0.00  0.00    +0.000 NA
ATOM     20  N   UNL     1       7.665   4.437  16.199  0.00  0.00    +0.000 NA
ATOM     21  C   UNL     1       6.627   4.686  15.329  0.00  0.00    +0.000 A 
ATOM     22  N   UNL     1       5.541   5.175  15.961  0.00  0.00    +0.000 NA
BRANCH  21  23
ATOM     23  C   UNL     1       6.728   4.385  13.895  0.00  0.00    +0.000 A 
ATOM     24  C   UNL     1       7.581   5.108  13.044  0.00  0.00    +0.000 A 
ATOM     25  C   UNL     1       7.656   4.812  11.673  0.00  0.00    +0.000 A 
ATOM     26  C   UNL     1       6.876   3.791  11.133  0.00  0.00    +0.000 A 
ATOM     27  C   UNL     1       6.034   3.070  11.972  0.00  0.00    +0.000 A 
ATOM     28  F   UNL     1       5.285   2.089  11.460  0.00  0.00    +0.000 F 
ATOM     29  C   UNL     1       5.956   3.355  13.334  0.00  0.00    +0.000 A 
ENDBRANCH  21  23
ENDBRANCH  17  18
ENDBRANCH  14  17
TORSDOF 3
ENDMDL
MODEL 4
REMARK VINA RESULT:      -8.1      4.526      8.655
REMARK  Name = 
REMARK  4 active torsions:
REMARK  status: ('A' for Active; 'I' for Inactive)
REMARK    1  A    between atoms: C_1  and  C_2
REMARK    2  A    between atoms: C_14  and  C_16
REMARK    3  A    between atoms: C_16  and  N_17
REMARK    4  A    between atoms: C_20  and  C_21
REMARK                            x       y       z     vdW  Elec       q    Type
REMARK                         _______ _______ _______ _____ _____    ______ ____
ROOT
ATOM      1  C   UNL     1       1.398   3.196  17.739  0.00  0.00    +0.000 C 
ATOM      2  C   UNL     1       2.843   3.505  18.143  0.00  0.00    +0.000 C 
ATOM      3  C   UNL     1       3.093   3.026  19.584  0.00  0.00    +0.000 C 
ATOM      4  C   UNL     1       4.584   2.866  19.795  0.00  0.00    +0.000 C 
ATOM      5  O   UNL     1       5.147   1.779  19.814  0.00  0.00    +0.000 OA
ATOM      6  N   UNL     1       5.242   4.093  19.828  0.00  0.00    +0.000 N 
ATOM      7  C   UNL     1       5.663   4.527  18.541  0.00  0.00    +0.000 A 
ATOM      8  C   UNL     1       7.025   4.516  18.249  0.00  0.00    +0.000 A 
ATOM      9  C   UNL     1       7.462   4.970  17.006  0.00  0.00    +0.000 A 
ATOM     10  C   UNL     1       6.539   5.415  16.058  0.00  0.00    +0.000 A 
ATOM     11  C   UNL     1       5.172   5.423  16.349  0.00  0.00    +0.000 A 
ATOM     12  C   UNL     1       4.721   5.004  17.603  0.00  0.00    +0.000 A 
ATOM     13  N   UNL     1       3.315   4.916  17.874  0.00  0.00    +0.000 N 
ATOM     14  C   UNL     1       2.470   6.050  17.876  0.00  0.00    +0.000 C 
ATOM     15  O   UNL     1       1.269   5.953  18.131  0.00  0.00    +0.000 OA
ATOM     16  H   UNL     1       4.585   4.779  20.189  0.00  0.00    +0.000 HD
ENDROOT
BRANCH  14  17
ATOM     17  C   UNL     1       3.106   7.412  17.597  0.00  0.00    +0.000 C 
BRANCH  17  18
ATOM     18  N   UNL     1       2.404   8.526  18.225  0.00  0.00    +0.000 N 
ATOM     19  N   UNL     1       1.768   9.441  17.467  0.00  0.00    +0.000 NA
ATOM     20  N   UNL     1       0.987  10.102  18.308  0.00  0.00    +0.000 NA
ATOM     21  C   UNL     1       1.134   9.522  19.548  0.00  0.00    +0.000 A 
ATOM     22  N   UNL     1       1.990   8.481  19.524  0.00  0.00    +0.000 NA
BRANCH  21  23
ATOM     23  C   UNL     1       0.378   9.991  20.717  0.00  0.00    +0.000 A 
ATOM     24  C   UNL     1      -0.524  11.065  20.635  0.00  0.00    +0.000 A 
ATOM     25  C   UNL     1      -1.229  11.506  21.766  0.00  0.00    +0.000 A 
ATOM     26  C   UNL     1      -1.041  10.880  22.997  0.00  0.00    +0.000 A 
ATOM     27  C   UNL     1      -0.153   9.813  23.083  0.00  0.00    +0.000 A 
ATOM     28  F   UNL     1       0.030   9.208  24.260  0.00  0.00    +0.000 F 
ATOM     29  C   UNL     1       0.548   9.368  21.964  0.00  0.00    +0.000 A 
ENDBRANCH  21  23
ENDBRANCH  17  18
ENDBRANCH  14  17
TORSDOF 3
ENDMDL
MODEL 5
REMARK VINA RESULT:      -8.1      4.264      6.167
REMARK  Name = 
REMARK  4 active torsions:
REMARK  status: ('A' for Active; 'I' for Inactive)
REMARK    1  A    between atoms: C_1  and  C_2
REMARK    2  A    between atoms: C_14  and  C_16
REMARK    3  A    between atoms: C_16  and  N_17
REMARK    4  A    between atoms: C_20  and  C_21
REMARK                            x       y       z     vdW  Elec       q    Type
REMARK                         _______ _______ _______ _____ _____    ______ ____
ROOT
ATOM      1  C   UNL     1      -2.010  10.000  17.108  0.00  0.00    +0.000 C 
ATOM      2  C   UNL     1      -1.576  10.604  18.447  0.00  0.00    +0.000 C 
ATOM      3  C   UNL     1      -1.535  12.138  18.336  0.00  0.00    +0.000 C 
ATOM      4  C   UNL     1      -1.608  12.732  19.727  0.00  0.00    +0.000 C 
ATOM      5  O   UNL     1      -2.622  13.241  20.188  0.00  0.00    +0.000 OA
ATOM      6  N   UNL     1      -0.441  12.508  20.453  0.00  0.00    +0.000 N 
ATOM      7  C   UNL     1      -0.470  11.286  21.180  0.00  0.00    +0.000 A 
ATOM      8  C   UNL     1      -0.575  11.341  22.568  0.00  0.00    +0.000 A 
ATOM      9  C   UNL     1      -0.571  10.157  23.302  0.00  0.00    +0.000 A 
ATOM     10  C   UNL     1      -0.478   8.927  22.647  0.00  0.00    +0.000 A 
ATOM     11  C   UNL     1      -0.376   8.871  21.254  0.00  0.00    +0.000 A 
ATOM     12  C   UNL     1      -0.344  10.051  20.508  0.00  0.00    +0.000 A 
ATOM     13  N   UNL     1      -0.339  10.000  19.074  0.00  0.00    +0.000 N 
ATOM     14  C   UNL     1       0.724   9.428  18.338  0.00  0.00    +0.000 C 
ATOM     15  O   UNL     1       0.716   9.412  17.107  0.00  0.00    +0.000 OA
ATOM     16  H   UNL     1       0.325  12.458  19.788  0.00  0.00    +0.000 HD
ENDROOT
BRANCH  14  17
ATOM     17  C   UNL     1       1.912   8.869  19.122  0.00  0.00    +0.000 C 
BRANCH  17  18
ATOM     18  N   UNL     1       2.492   7.668  18.529  0.00  0.00    +0.000 N 
ATOM     19  N   UNL     1       3.680   7.731  17.897  0.00  0.00    +0.000 NA
ATOM     20  N   UNL     1       4.069   6.471  17.769  0.00  0.00    +0.000 NA
ATOM     21  C   UNL     1       3.123   5.684  18.387  0.00  0.00    +0.000 A 
ATOM     22  N   UNL     1       2.128   6.416  18.928  0.00  0.00    +0.000 NA
BRANCH  21  23
ATOM     23  C   UNL     1       3.260   4.224  18.463  0.00  0.00    +0.000 A 
ATOM     24  C   UNL     1       2.591   3.368  17.571  0.00  0.00    +0.000 A 
ATOM     25  C   UNL     1       2.726   1.974  17.667  0.00  0.00    +0.000 A 
ATOM     26  C   UNL     1       3.530   1.414  18.659  0.00  0.00    +0.000 A 
ATOM     27  C   UNL     1       4.198   2.256  19.541  0.00  0.00    +0.000 A 
ATOM     28  F   UNL     1       4.971   1.726  20.492  0.00  0.00    +0.000 F 
ATOM     29  C   UNL     1       4.071   3.641  19.450  0.00  0.00    +0.000 A 
ENDBRANCH  21  23
ENDBRANCH  17  18
ENDBRANCH  14  17
TORSDOF 3
ENDMDL
MODEL 6
REMARK VINA RESULT:      -8.1      4.620      8.802
REMARK  Name = 
REMARK  4 active torsions:
REMARK  status: ('A' for Active; 'I' for Inactive)
REMARK    1  A    between atoms: C_1  and  C_2
REMARK    2  A    between atoms: C_14  and  C_16
REMARK    3  A    between atoms: C_16  and  N_17
REMARK    4  A    between atoms: C_20  and  C_21
REMARK                            x       y       z     vdW  Elec       q    Type
REMARK                         _______ _______ _______ _____ _____    ______ ____
ROOT
ATOM      1  C   UNL     1       1.309   3.063  18.185  0.00  0.00    +0.000 C 
ATOM      2  C   UNL     1       2.789   3.376  18.426  0.00  0.00    +0.000 C 
ATOM      3  C   UNL     1       3.191   2.927  19.841  0.00  0.00    +0.000 C 
ATOM      4  C   UNL     1       4.696   2.766  19.895  0.00  0.00    +0.000 C 
ATOM      5  O   UNL     1       5.256   1.677  19.877  0.00  0.00    +0.000 OA
ATOM      6  N   UNL     1       5.356   3.990  19.829  0.00  0.00    +0.000 N 
ATOM      7  C   UNL     1       5.637   4.395  18.495  0.00  0.00    +0.000 A 
ATOM      8  C   UNL     1       6.960   4.371  18.059  0.00  0.00    +0.000 A 
ATOM      9  C   UNL     1       7.262   4.795  16.766  0.00  0.00    +0.000 A 
ATOM     10  C   UNL     1       6.243   5.223  15.913  0.00  0.00    +0.000 A 
ATOM     11  C   UNL     1       4.915   5.244  16.349  0.00  0.00    +0.000 A 
ATOM     12  C   UNL     1       4.601   4.854  17.653  0.00  0.00    +0.000 A 
ATOM     13  N   UNL     1       3.232   4.779  18.075  0.00  0.00    +0.000 N 
ATOM     14  C   UNL     1       2.394   5.916  18.143  0.00  0.00    +0.000 C 
ATOM     15  O   UNL     1       1.227   5.830  18.527  0.00  0.00    +0.000 OA
ATOM     16  H   UNL     1       4.744   4.687  20.243  0.00  0.00    +0.000 HD
ENDROOT
BRANCH  14  17
ATOM     17  C   UNL     1       2.999   7.268  17.766  0.00  0.00    +0.000 C 
BRANCH  17  18
ATOM     18  N   UNL     1       2.309   8.406  18.366  0.00  0.00    +0.000 N 
ATOM     19  N   UNL     1       1.677   9.303  17.586  0.00  0.00    +0.000 NA
ATOM     20  N   UNL     1       0.905   9.995  18.411  0.00  0.00    +0.000 NA
ATOM     21  C   UNL     1       1.054   9.449  19.667  0.00  0.00    +0.000 A 
ATOM     22  N   UNL     1       1.903   8.401  19.668  0.00  0.00    +0.000 NA
BRANCH  21  23
ATOM     23  C   UNL     1       0.309   9.957  20.826  0.00  0.00    +0.000 A 
ATOM     24  C   UNL     1       0.305   9.283  22.059  0.00  0.00    +0.000 A 
ATOM     25  C   UNL     1      -0.423   9.779  23.153  0.00  0.00    +0.000 A 
ATOM     26  C   UNL     1      -1.160  10.956  23.028  0.00  0.00    +0.000 A 
ATOM     27  C   UNL     1      -1.156  11.629  21.811  0.00  0.00    +0.000 A 
ATOM     28  F   UNL     1      -1.859  12.758  21.687  0.00  0.00    +0.000 F 
ATOM     29  C   UNL     1      -0.433  11.145  20.722  0.00  0.00    +0.000 A 
ENDBRANCH  21  23
ENDBRANCH  17  18
ENDBRANCH  14  17
TORSDOF 3
ENDMDL
MODEL 7
REMARK VINA RESULT:      -8.0      4.642      8.487
REMARK  Name = 
REMARK  4 active torsions:
REMARK  status: ('A' for Active; 'I' for Inactive)
REMARK    1  A    between atoms: C_1  and  C_2
REMARK    2  A    between atoms: C_14  and  C_16
REMARK    3  A    between atoms: C_16  and  N_17
REMARK    4  A    between atoms: C_20  and  C_21
REMARK                            x       y       z     vdW  Elec       q    Type
REMARK                         _______ _______ _______ _____ _____    ______ ____
ROOT
ATOM      1  C   UNL     1       0.400   2.936  18.943  0.00  0.00    +0.000 C 
ATOM      2  C   UNL     1       1.916   3.087  18.785  0.00  0.00    +0.000 C 
ATOM      3  C   UNL     1       2.631   1.926  19.499  0.00  0.00    +0.000 C 
ATOM      4  C   UNL     1       4.030   1.792  18.936  0.00  0.00    +0.000 C 
ATOM      5  O   UNL     1       4.355   0.914  18.146  0.00  0.00    +0.000 OA
ATOM      6  N   UNL     1       4.849   2.853  19.312  0.00  0.00    +0.000 N 
ATOM      7  C   UNL     1       4.793   3.944  18.402  0.00  0.00    +0.000 A 
ATOM      8  C   UNL     1       5.902   4.196  17.598  0.00  0.00    +0.000 A 
ATOM      9  C   UNL     1       5.880   5.281  16.723  0.00  0.00    +0.000 A 
ATOM     10  C   UNL     1       4.749   6.096  16.646  0.00  0.00    +0.000 A 
ATOM     11  C   UNL     1       3.635   5.842  17.450  0.00  0.00    +0.000 A 
ATOM     12  C   UNL     1       3.654   4.779  18.356  0.00  0.00    +0.000 A 
ATOM     13  N   UNL     1       2.481   4.451  19.113  0.00  0.00    +0.000 N 
ATOM     14  C   UNL     1       1.918   5.336  20.062  0.00  0.00    +0.000 C 
ATOM     15  O   UNL     1       0.921   5.026  20.714  0.00  0.00    +0.000 OA
ATOM     16  H   UNL     1       4.522   3.183  20.216  0.00  0.00    +0.000 HD
ENDROOT
BRANCH  14  17
ATOM     17  C   UNL     1       2.617   6.676  20.287  0.00  0.00    +0.000 C 
BRANCH  17  18
ATOM     18  N   UNL     1       1.699   7.806  20.395  0.00  0.00    +0.000 N 
ATOM     19  N   UNL     1       1.380   8.306  21.604  0.00  0.00    +0.000 NA
ATOM     20  N   UNL     1       0.816   9.478  21.354  0.00  0.00    +0.000 NA
ATOM     21  C   UNL     1       0.866   9.677  19.992  0.00  0.00    +0.000 A 
ATOM     22  N   UNL     1       1.469   8.654  19.352  0.00  0.00    +0.000 NA
BRANCH  21  23
ATOM     23  C   UNL     1       0.356  10.904  19.368  0.00  0.00    +0.000 A 
ATOM     24  C   UNL     1       1.067  12.114  19.420  0.00  0.00    +0.000 A 
ATOM     25  C   UNL     1       0.557  13.280  18.827  0.00  0.00    +0.000 A 
ATOM     26  C   UNL     1      -0.675  13.253  18.174  0.00  0.00    +0.000 A 
ATOM     27  C   UNL     1      -1.381  12.057  18.116  0.00  0.00    +0.000 A 
ATOM     28  F   UNL     1      -2.560  12.024  17.490  0.00  0.00    +0.000 F 
ATOM     29  C   UNL     1      -0.880  10.894  18.699  0.00  0.00    +0.000 A 
ENDBRANCH  21  23
ENDBRANCH  17  18
ENDBRANCH  14  17
TORSDOF 3
ENDMDL
MODEL 8
REMARK VINA RESULT:      -8.0      4.633      8.429
REMARK  Name = 
REMARK  4 active torsions:
REMARK  status: ('A' for Active; 'I' for Inactive)
REMARK    1  A    between atoms: C_1  and  C_2
REMARK    2  A    between atoms: C_14  and  C_16
REMARK    3  A    between atoms: C_16  and  N_17
REMARK    4  A    between atoms: C_20  and  C_21
REMARK                            x       y       z     vdW  Elec       q    Type
REMARK                         _______ _______ _______ _____ _____    ______ ____
ROOT
ATOM      1  C   UNL     1       0.385   2.972  18.796  0.00  0.00    +0.000 C 
ATOM      2  C   UNL     1       1.905   3.117  18.678  0.00  0.00    +0.000 C 
ATOM      3  C   UNL     1       2.595   1.932  19.377  0.00  0.00    +0.000 C 
ATOM      4  C   UNL     1       4.007   1.804  18.844  0.00  0.00    +0.000 C 
ATOM      5  O   UNL     1       4.345   0.945  18.039  0.00  0.00    +0.000 OA
ATOM      6  N   UNL     1       4.823   2.849  19.269  0.00  0.00    +0.000 N 
ATOM      7  C   UNL     1       4.795   3.965  18.387  0.00  0.00    +0.000 A 
ATOM      8  C   UNL     1       5.925   4.230  17.616  0.00  0.00    +0.000 A 
ATOM      9  C   UNL     1       5.930   5.339  16.771  0.00  0.00    +0.000 A 
ATOM     10  C   UNL     1       4.806   6.162  16.689  0.00  0.00    +0.000 A 
ATOM     11  C   UNL     1       3.672   5.894  17.459  0.00  0.00    +0.000 A 
ATOM     12  C   UNL     1       3.663   4.807  18.336  0.00  0.00    +0.000 A 
ATOM     13  N   UNL     1       2.470   4.468  19.056  0.00  0.00    +0.000 N 
ATOM     14  C   UNL     1       1.890   5.331  20.015  0.00  0.00    +0.000 C 
ATOM     15  O   UNL     1       0.875   5.010  20.635  0.00  0.00    +0.000 OA
ATOM     16  H   UNL     1       4.476   3.157  20.173  0.00  0.00    +0.000 HD
ENDROOT
BRANCH  14  17
ATOM     17  C   UNL     1       2.592   6.660  20.292  0.00  0.00    +0.000 C 
BRANCH  17  18
ATOM     18  N   UNL     1       1.679   7.796  20.386  0.00  0.00    +0.000 N 
ATOM     19  N   UNL     1       1.320   8.278  21.591  0.00  0.00    +0.000 NA
ATOM     20  N   UNL     1       0.776   9.460  21.341  0.00  0.00    +0.000 NA
ATOM     21  C   UNL     1       0.879   9.681  19.985  0.00  0.00    +0.000 A 
ATOM     22  N   UNL     1       1.496   8.664  19.351  0.00  0.00    +0.000 NA
BRANCH  21  23
ATOM     23  C   UNL     1       0.403  10.924  19.365  0.00  0.00    +0.000 A 
ATOM     24  C   UNL     1      -0.894  11.039  18.836  0.00  0.00    +0.000 A 
ATOM     25  C   UNL     1      -1.327  12.233  18.236  0.00  0.00    +0.000 A 
ATOM     26  C   UNL     1      -0.469  13.328  18.155  0.00  0.00    +0.000 A 
ATOM     27  C   UNL     1       0.813  13.221  18.681  0.00  0.00    +0.000 A 
ATOM     28  F   UNL     1       1.640  14.268  18.608  0.00  0.00    +0.000 F 
ATOM     29  C   UNL     1       1.250  12.041  19.281  0.00  0.00    +0.000 A 
ENDBRANCH  21  23
ENDBRANCH  17  18
ENDBRANCH  14  17
TORSDOF 3
ENDMDL
MODEL 9
REMARK VINA RESULT:      -7.9      4.626      8.546
REMARK  Name = 
REMARK  4 active torsions:
REMARK  status: ('A' for Active; 'I' for Inactive)
REMARK    1  A    between atoms: C_1  and  C_2
REMARK    2  A    between atoms: C_14  and  C_16
REMARK    3  A    between atoms: C_16  and  N_17
REMARK    4  A    between atoms: C_20  and  C_21
REMARK                            x       y       z     vdW  Elec       q    Type
REMARK                         _______ _______ _______ _____ _____    ______ ____
ROOT
ATOM      1  C   UNL     1       0.451   3.257  18.916  0.00  0.00    +0.000 C 
ATOM      2  C   UNL     1       1.978   3.306  18.797  0.00  0.00    +0.000 C 
ATOM      3  C   UNL     1       2.602   2.202  19.669  0.00  0.00    +0.000 C 
ATOM      4  C   UNL     1       4.007   1.926  19.177  0.00  0.00    +0.000 C 
ATOM      5  O   UNL     1       4.304   0.943  18.509  0.00  0.00    +0.000 OA
ATOM      6  N   UNL     1       4.875   2.978  19.455  0.00  0.00    +0.000 N 
ATOM      7  C   UNL     1       4.909   3.954  18.421  0.00  0.00    +0.000 A 
ATOM      8  C   UNL     1       6.054   4.047  17.633  0.00  0.00    +0.000 A 
ATOM      9  C   UNL     1       6.122   5.019  16.637  0.00  0.00    +0.000 A 
ATOM     10  C   UNL     1       5.042   5.878  16.422  0.00  0.00    +0.000 A 
ATOM     11  C   UNL     1       3.892   5.783  17.209  0.00  0.00    +0.000 A 
ATOM     12  C   UNL     1       3.823   4.837  18.235  0.00  0.00    +0.000 A 
ATOM     13  N   UNL     1       2.610   4.667  18.981  0.00  0.00    +0.000 N 
ATOM     14  C   UNL     1       2.072   5.688  19.798  0.00  0.00    +0.000 C 
ATOM     15  O   UNL     1       1.039   5.513  20.446  0.00  0.00    +0.000 OA
ATOM     16  H   UNL     1       4.540   3.432  20.301  0.00  0.00    +0.000 HD
ENDROOT
BRANCH  14  17
ATOM     17  C   UNL     1       2.841   7.006  19.888  0.00  0.00    +0.000 C 
BRANCH  17  18
ATOM     18  N   UNL     1       2.107   8.150  19.354  0.00  0.00    +0.000 N 
ATOM     19  N   UNL     1       1.967   8.304  18.024  0.00  0.00    +0.000 NA
ATOM     20  N   UNL     1       1.013   9.212  17.880  0.00  0.00    +0.000 NA
ATOM     21  C   UNL     1       0.564   9.538  19.141  0.00  0.00    +0.000 A 
ATOM     22  N   UNL     1       1.203   8.843  20.103  0.00  0.00    +0.000 NA
BRANCH  21  23
ATOM     23  C   UNL     1      -0.526  10.500  19.350  0.00  0.00    +0.000 A 
ATOM     24  C   UNL     1      -0.652  11.230  20.544  0.00  0.00    +0.000 A 
ATOM     25  C   UNL     1      -1.708  12.137  20.729  0.00  0.00    +0.000 A 
ATOM     26  C   UNL     1      -2.655  12.326  19.724  0.00  0.00    +0.000 A 
ATOM     27  C   UNL     1      -2.532  11.610  18.539  0.00  0.00    +0.000 A 
ATOM     28  F   UNL     1      -3.435  11.788  17.570  0.00  0.00    +0.000 F 
ATOM     29  C   UNL     1      -1.485  10.710  18.345  0.00  0.00    +0.000 A 
ENDBRANCH  21  23
ENDBRANCH  17  18
ENDBRANCH  14  17
TORSDOF 3
ENDMDL
