MODEL 1
REMARK VINA RESULT:      -8.9      0.000      0.000
REMARK  Name = 
REMARK  5 active torsions:
REMARK  status: ('A' for Active; 'I' for Inactive)
REMARK    1  A    between atoms: C_1  and  C_2
REMARK    2  A    between atoms: C_10  and  N_11
REMARK    3  A    between atoms: N_11  and  S_12
REMARK    4  A    between atoms: S_12  and  C_15
REMARK    5  A    between atoms: N_18  and  C_19
REMARK                            x       y       z     vdW  Elec       q    Type
REMARK                         _______ _______ _______ _____ _____    ______ ____
ROOT
ATOM      1  N   UNL     1       3.268   4.652  18.867  0.00  0.00    +0.000 N 
ATOM      2  H   UNL     1       3.045   4.359  17.915  0.00  0.00    +0.000 HD
ENDROOT
BRANCH   1  12
ATOM      3  C   UNL     1      -0.050  11.253  21.968  0.00  0.00    +0.000 C 
ATOM      4  C   UNL     1       0.662   9.946  21.708  0.00  0.00    +0.000 C 
ATOM      5  O   UNL     1       1.065   9.311  22.684  0.00  0.00    +0.000 OA
ATOM      6  N   UNL     1       0.849   9.576  20.368  0.00  0.00    +0.000 N 
ATOM      7  C   UNL     1       0.481  10.447  19.240  0.00  0.00    +0.000 C 
ATOM      8  C   UNL     1       1.645  10.619  18.280  0.00  0.00    +0.000 C 
ATOM      9  C   UNL     1       2.041   9.272  17.699  0.00  0.00    +0.000 C 
ATOM     10  C   UNL     1       2.035   8.167  18.725  0.00  0.00    +0.000 A 
ATOM     11  C   UNL     1       2.632   6.942  18.368  0.00  0.00    +0.000 A 
ATOM     12  C   UNL     1       2.664   5.880  19.264  0.00  0.00    +0.000 A 
ATOM     13  C   UNL     1       2.060   6.005  20.508  0.00  0.00    +0.000 A 
ATOM     14  C   UNL     1       1.460   7.217  20.867  0.00  0.00    +0.000 A 
ATOM     15  C   UNL     1       1.449   8.320  19.999  0.00  0.00    +0.000 A 
ENDBRANCH   1  12
BRANCH   1  16
ATOM     16  S   UNL     1       4.942   4.520  19.107  0.00  0.00    +0.000 S 
ATOM     17  O   UNL     1       5.320   5.610  19.988  0.00  0.00    +0.000 OA
ATOM     18  O   UNL     1       5.303   3.150  19.393  0.00  0.00    +0.000 OA
BRANCH  16  19
ATOM     19  C   UNL     1       5.700   4.887  17.626  0.00  0.00    +0.000 A 
ATOM     20  C   UNL     1       6.684   5.852  17.404  0.00  0.00    +0.000 A 
ATOM     21  N   UNL     1       7.144   5.819  16.149  0.00  0.00    +0.000 NA
ATOM     22  N   UNL     1       6.404   4.852  15.535  0.00  0.00    +0.000 N 
ATOM     23  C   UNL     1       5.533   4.258  16.415  0.00  0.00    +0.000 A 
BRANCH  22  24
ATOM     24  C   UNL     1       6.579   4.546  14.155  0.00  0.00    +0.000 A 
ATOM     25  C   UNL     1       5.738   3.608  13.541  0.00  0.00    +0.000 A 
ATOM     26  C   UNL     1       5.909   3.297  12.189  0.00  0.00    +0.000 A 
ATOM     27  C   UNL     1       6.917   3.913  11.450  0.00  0.00    +0.000 A 
ATOM     28  C   UNL     1       7.756   4.845  12.056  0.00  0.00    +0.000 A 
ATOM     29  C   UNL     1       7.588   5.168  13.406  0.00  0.00    +0.000 A 
ENDBRANCH  22  24
ENDBRANCH  16  19
ENDBRANCH   1  16
TORSDOF 4
ENDMDL
MODEL 2
REMARK VINA RESULT:      -8.3      1.338      1.501
REMARK  Name = 
REMARK  5 active torsions:
REMARK  status: ('A' for Active; 'I' for Inactive)
REMARK    1  A    between atoms: C_1  and  C_2
REMARK    2  A    between atoms: C_10  and  N_11
REMARK    3  A    between atoms: N_11  and  S_12
REMARK    4  A    between atoms: S_12  and  C_15
REMARK    5  A    between atoms: N_18  and  C_19
REMARK                            x       y       z     vdW  Elec       q    Type
REMARK                         _______ _______ _______ _____ _____    ______ ____
ROOT
ATOM      1  N   UNL     1       3.124   4.166  19.792  0.00  0.00    +0.000 N 
ATOM      2  H   UNL     1       2.814   3.533  20.530  0.00  0.00    +0.000 HD
ENDROOT
BRANCH   1  12
ATOM      3  C   UNL     1       0.097  11.446  21.218  0.00  0.00    +0.000 C 
ATOM      4  C   UNL     1       0.714  10.069  21.287  0.00  0.00    +0.000 C 
ATOM      5  O   UNL     1       0.955   9.606  22.404  0.00  0.00    +0.000 OA
ATOM      6  N   UNL     1       1.005   9.438  20.069  0.00  0.00    +0.000 N 
ATOM      7  C   UNL     1       0.835  10.099  18.766  0.00  0.00    +0.000 C 
ATOM      8  C   UNL     1       2.103  10.006  17.936  0.00  0.00    +0.000 C 
ATOM      9  C   UNL     1       2.437   8.549  17.662  0.00  0.00    +0.000 C 
ATOM     10  C   UNL     1       2.227   7.663  18.864  0.00  0.00    +0.000 A 
ATOM     11  C   UNL     1       2.747   6.356  18.810  0.00  0.00    +0.000 A 
ATOM     12  C   UNL     1       2.593   5.485  19.883  0.00  0.00    +0.000 A 
ATOM     13  C   UNL     1       1.876   5.886  21.002  0.00  0.00    +0.000 A 
ATOM     14  C   UNL     1       1.351   7.182  21.060  0.00  0.00    +0.000 A 
ATOM     15  C   UNL     1       1.528   8.097  20.010  0.00  0.00    +0.000 A 
ENDBRANCH   1  12
BRANCH   1  16
ATOM     16  S   UNL     1       2.961   3.387  18.294  0.00  0.00    +0.000 S 
ATOM     17  O   UNL     1       3.152   1.971  18.542  0.00  0.00    +0.000 OA
ATOM     18  O   UNL     1       1.801   3.888  17.591  0.00  0.00    +0.000 OA
BRANCH  16  19
ATOM     19  C   UNL     1       4.296   3.837  17.337  0.00  0.00    +0.000 A 
ATOM     20  C   UNL     1       5.540   4.286  17.790  0.00  0.00    +0.000 A 
ATOM     21  N   UNL     1       6.406   4.458  16.786  0.00  0.00    +0.000 NA
ATOM     22  N   UNL     1       5.692   4.169  15.660  0.00  0.00    +0.000 N 
ATOM     23  C   UNL     1       4.415   3.771  15.969  0.00  0.00    +0.000 A 
BRANCH  22  24
ATOM     24  C   UNL     1       6.273   4.278  14.365  0.00  0.00    +0.000 A 
ATOM     25  C   UNL     1       5.779   3.490  13.315  0.00  0.00    +0.000 A 
ATOM     26  C   UNL     1       6.349   3.586  12.043  0.00  0.00    +0.000 A 
ATOM     27  C   UNL     1       7.411   4.459  11.814  0.00  0.00    +0.000 A 
ATOM     28  C   UNL     1       7.905   5.242  12.853  0.00  0.00    +0.000 A 
ATOM     29  C   UNL     1       7.337   5.159  14.128  0.00  0.00    +0.000 A 
ENDBRANCH  22  24
ENDBRANCH  16  19
ENDBRANCH   1  16
TORSDOF 4
ENDMDL
MODEL 3
REMARK VINA RESULT:      -8.1      1.217      2.048
REMARK  Name = 
REMARK  5 active torsions:
REMARK  status: ('A' for Active; 'I' for Inactive)
REMARK    1  A    between atoms: C_1  and  C_2
REMARK    2  A    between atoms: C_10  and  N_11
REMARK    3  A    between atoms: N_11  and  S_12
REMARK    4  A    between atoms: S_12  and  C_15
REMARK    5  A    between atoms: N_18  and  C_19
REMARK                            x       y       z     vdW  Elec       q    Type
REMARK                         _______ _______ _______ _____ _____    ______ ____
ROOT
ATOM      1  N   UNL     1       3.131   4.583  18.691  0.00  0.00    +0.000 N 
ATOM      2  H   UNL     1       2.988   4.254  17.735  0.00  0.00    +0.000 HD
ENDROOT
BRANCH   1  12
ATOM      3  C   UNL     1       0.674  12.195  19.154  0.00  0.00    +0.000 C 
ATOM      4  C   UNL     1       1.110  10.812  18.731  0.00  0.00    +0.000 C 
ATOM      5  O   UNL     1       1.250  10.602  17.524  0.00  0.00    +0.000 OA
ATOM      6  N   UNL     1       1.284   9.859  19.745  0.00  0.00    +0.000 N 
ATOM      7  C   UNL     1       0.957  10.123  21.155  0.00  0.00    +0.000 C 
ATOM      8  C   UNL     1       0.047   9.046  21.717  0.00  0.00    +0.000 C 
ATOM      9  C   UNL     1       0.743   7.697  21.661  0.00  0.00    +0.000 C 
ATOM     10  C   UNL     1       1.503   7.482  20.376  0.00  0.00    +0.000 A 
ATOM     11  C   UNL     1       1.965   6.181  20.101  0.00  0.00    +0.000 A 
ATOM     12  C   UNL     1       2.670   5.909  18.934  0.00  0.00    +0.000 A 
ATOM     13  C   UNL     1       2.967   6.937  18.050  0.00  0.00    +0.000 A 
ATOM     14  C   UNL     1       2.516   8.235  18.319  0.00  0.00    +0.000 A 
ATOM     15  C   UNL     1       1.766   8.530  19.468  0.00  0.00    +0.000 A 
ENDBRANCH   1  12
BRANCH   1  16
ATOM     16  S   UNL     1       4.722   4.238  19.162  0.00  0.00    +0.000 S 
ATOM     17  O   UNL     1       5.121   5.292  20.076  0.00  0.00    +0.000 OA
ATOM     18  O   UNL     1       4.853   2.840  19.509  0.00  0.00    +0.000 OA
BRANCH  16  19
ATOM     19  C   UNL     1       5.717   4.458  17.797  0.00  0.00    +0.000 A 
ATOM     20  C   UNL     1       7.063   4.834  17.792  0.00  0.00    +0.000 A 
ATOM     21  N   UNL     1       7.582   4.818  16.560  0.00  0.00    +0.000 NA
ATOM     22  N   UNL     1       6.539   4.481  15.748  0.00  0.00    +0.000 N 
ATOM     23  C   UNL     1       5.400   4.238  16.478  0.00  0.00    +0.000 A 
BRANCH  22  24
ATOM     24  C   UNL     1       6.693   4.399  14.336  0.00  0.00    +0.000 A 
ATOM     25  C   UNL     1       5.872   3.535  13.598  0.00  0.00    +0.000 A 
ATOM     26  C   UNL     1       6.022   3.443  12.211  0.00  0.00    +0.000 A 
ATOM     27  C   UNL     1       6.990   4.205  11.559  0.00  0.00    +0.000 A 
ATOM     28  C   UNL     1       7.809   5.063  12.288  0.00  0.00    +0.000 A 
ATOM     29  C   UNL     1       7.661   5.167  13.675  0.00  0.00    +0.000 A 
ENDBRANCH  22  24
ENDBRANCH  16  19
ENDBRANCH   1  16
TORSDOF 4
ENDMDL
MODEL 4
REMARK VINA RESULT:      -8.1      1.916      2.818
REMARK  Name = 
REMARK  5 active torsions:
REMARK  status: ('A' for Active; 'I' for Inactive)
REMARK    1  A    between atoms: C_1  and  C_2
REMARK    2  A    between atoms: C_10  and  N_11
REMARK    3  A    between atoms: N_11  and  S_12
REMARK    4  A    between atoms: S_12  and  C_15
REMARK    5  A    between atoms: N_18  and  C_19
REMARK                            x       y       z     vdW  Elec       q    Type
REMARK                         _______ _______ _______ _____ _____    ______ ____
ROOT
ATOM      1  N   UNL     1       3.306   7.447  17.997  0.00  0.00    +0.000 N 
ATOM      2  H   UNL     1       4.263   7.773  18.134  0.00  0.00    +0.000 HD
ENDROOT
BRANCH   1  12
ATOM      3  C   UNL     1      -2.586  12.358  20.311  0.00  0.00    +0.000 C 
ATOM      4  C   UNL     1      -1.636  11.444  19.575  0.00  0.00    +0.000 C 
ATOM      5  O   UNL     1      -1.813  11.293  18.363  0.00  0.00    +0.000 OA
ATOM      6  N   UNL     1      -0.647  10.803  20.335  0.00  0.00    +0.000 N 
ATOM      7  C   UNL     1      -0.577  10.903  21.801  0.00  0.00    +0.000 C 
ATOM      8  C   UNL     1      -0.504   9.528  22.440  0.00  0.00    +0.000 C 
ATOM      9  C   UNL     1       0.750   8.807  21.977  0.00  0.00    +0.000 C 
ATOM     10  C   UNL     1       1.027   8.997  20.507  0.00  0.00    +0.000 A 
ATOM     11  C   UNL     1       2.002   8.172  19.914  0.00  0.00    +0.000 A 
ATOM     12  C   UNL     1       2.307   8.291  18.563  0.00  0.00    +0.000 A 
ATOM     13  C   UNL     1       1.683   9.265  17.796  0.00  0.00    +0.000 A 
ATOM     14  C   UNL     1       0.717  10.093  18.380  0.00  0.00    +0.000 A 
ATOM     15  C   UNL     1       0.358   9.967  19.731  0.00  0.00    +0.000 A 
ENDBRANCH   1  12
BRANCH   1  16
ATOM     16  S   UNL     1       3.221   5.802  18.400  0.00  0.00    +0.000 S 
ATOM     17  O   UNL     1       3.895   5.654  19.677  0.00  0.00    +0.000 OA
ATOM     18  O   UNL     1       1.884   5.298  18.182  0.00  0.00    +0.000 OA
BRANCH  16  19
ATOM     19  C   UNL     1       4.206   4.955  17.298  0.00  0.00    +0.000 A 
ATOM     20  C   UNL     1       4.617   3.624  17.391  0.00  0.00    +0.000 A 
ATOM     21  N   UNL     1       5.301   3.233  16.311  0.00  0.00    +0.000 NA
ATOM     22  N   UNL     1       5.381   4.349  15.530  0.00  0.00    +0.000 N 
ATOM     23  C   UNL     1       4.708   5.403  16.099  0.00  0.00    +0.000 A 
BRANCH  22  24
ATOM     24  C   UNL     1       6.081   4.340  14.291  0.00  0.00    +0.000 A 
ATOM     25  C   UNL     1       5.663   3.480  13.265  0.00  0.00    +0.000 A 
ATOM     26  C   UNL     1       6.350   3.459  12.048  0.00  0.00    +0.000 A 
ATOM     27  C   UNL     1       7.453   4.287  11.851  0.00  0.00    +0.000 A 
ATOM     28  C   UNL     1       7.873   5.141  12.867  0.00  0.00    +0.000 A 
ATOM     29  C   UNL     1       7.188   5.175  14.086  0.00  0.00    +0.000 A 
ENDBRANCH  22  24
ENDBRANCH  16  19
ENDBRANCH   1  16
TORSDOF 4
ENDMDL
MODEL 5
REMARK VINA RESULT:      -8.1      1.551      2.233
REMARK  Name = 
REMARK  5 active torsions:
REMARK  status: ('A' for Active; 'I' for Inactive)
REMARK    1  A    between atoms: C_1  and  C_2
REMARK    2  A    between atoms: C_10  and  N_11
REMARK    3  A    between atoms: N_11  and  S_12
REMARK    4  A    between atoms: S_12  and  C_15
REMARK    5  A    between atoms: N_18  and  C_19
REMARK                            x       y       z     vdW  Elec       q    Type
REMARK                         _______ _______ _______ _____ _____    ______ ____
ROOT
ATOM      1  N   UNL     1       3.048   7.231  18.144  0.00  0.00    +0.000 N 
ATOM      2  H   UNL     1       3.974   7.630  17.985  0.00  0.00    +0.000 HD
ENDROOT
BRANCH   1  12
ATOM      3  C   UNL     1      -1.503  11.462  23.201  0.00  0.00    +0.000 C 
ATOM      4  C   UNL     1      -0.473  10.584  22.531  0.00  0.00    +0.000 C 
ATOM      5  O   UNL     1       0.326   9.986  23.255  0.00  0.00    +0.000 OA
ATOM      6  N   UNL     1      -0.477  10.550  21.129  0.00  0.00    +0.000 N 
ATOM      7  C   UNL     1      -1.356  11.402  20.312  0.00  0.00    +0.000 C 
ATOM      8  C   UNL     1      -0.561  12.161  19.264  0.00  0.00    +0.000 C 
ATOM      9  C   UNL     1       0.121  11.184  18.323  0.00  0.00    +0.000 C 
ATOM     10  C   UNL     1       0.713   9.996  19.039  0.00  0.00    +0.000 A 
ATOM     11  C   UNL     1       1.589   9.166  18.312  0.00  0.00    +0.000 A 
ATOM     12  C   UNL     1       2.174   8.054  18.910  0.00  0.00    +0.000 A 
ATOM     13  C   UNL     1       1.855   7.726  20.221  0.00  0.00    +0.000 A 
ATOM     14  C   UNL     1       0.982   8.543  20.947  0.00  0.00    +0.000 A 
ATOM     15  C   UNL     1       0.410   9.695  20.383  0.00  0.00    +0.000 A 
ENDBRANCH   1  12
BRANCH   1  16
ATOM     16  S   UNL     1       3.220   5.625  18.660  0.00  0.00    +0.000 S 
ATOM     17  O   UNL     1       4.103   5.653  19.810  0.00  0.00    +0.000 OA
ATOM     18  O   UNL     1       1.931   4.970  18.704  0.00  0.00    +0.000 OA
BRANCH  16  19
ATOM     19  C   UNL     1       4.105   4.797  17.463  0.00  0.00    +0.000 A 
ATOM     20  C   UNL     1       4.300   3.417  17.368  0.00  0.00    +0.000 A 
ATOM     21  N   UNL     1       4.957   3.079  16.254  0.00  0.00    +0.000 NA
ATOM     22  N   UNL     1       5.242   4.267  15.647  0.00  0.00    +0.000 N 
ATOM     23  C   UNL     1       4.718   5.323  16.351  0.00  0.00    +0.000 A 
BRANCH  22  24
ATOM     24  C   UNL     1       5.981   4.321  14.432  0.00  0.00    +0.000 A 
ATOM     25  C   UNL     1       7.103   5.157  14.339  0.00  0.00    +0.000 A 
ATOM     26  C   UNL     1       7.829   5.221  13.147  0.00  0.00    +0.000 A 
ATOM     27  C   UNL     1       7.439   4.461  12.046  0.00  0.00    +0.000 A 
ATOM     28  C   UNL     1       6.325   3.630  12.133  0.00  0.00    +0.000 A 
ATOM     29  C   UNL     1       5.596   3.553  13.324  0.00  0.00    +0.000 A 
ENDBRANCH  22  24
ENDBRANCH  16  19
ENDBRANCH   1  16
TORSDOF 4
ENDMDL
MODEL 6
REMARK VINA RESULT:      -8.0      1.732      2.524
REMARK  Name = 
REMARK  5 active torsions:
REMARK  status: ('A' for Active; 'I' for Inactive)
REMARK    1  A    between atoms: C_1  and  C_2
REMARK    2  A    between atoms: C_10  and  N_11
REMARK    3  A    between atoms: N_11  and  S_12
REMARK    4  A    between atoms: S_12  and  C_15
REMARK    5  A    between atoms: N_18  and  C_19
REMARK                            x       y       z     vdW  Elec       q    Type
REMARK                         _______ _______ _______ _____ _____    ______ ____
ROOT
ATOM      1  N   UNL     1       3.318   5.842  19.908  0.00  0.00    +0.000 N 
ATOM      2  H   UNL     1       3.330   5.377  20.817  0.00  0.00    +0.000 HD
ENDROOT
BRANCH   1  12
ATOM      3  C   UNL     1      -1.438  12.164  18.642  0.00  0.00    +0.000 C 
ATOM      4  C   UNL     1      -0.634  10.888  18.563  0.00  0.00    +0.000 C 
ATOM      5  O   UNL     1      -0.615  10.290  17.485  0.00  0.00    +0.000 OA
ATOM      6  N   UNL     1      -0.003  10.456  19.739  0.00  0.00    +0.000 N 
ATOM      7  C   UNL     1      -0.184  11.128  21.035  0.00  0.00    +0.000 C 
ATOM      8  C   UNL     1      -0.588  10.138  22.113  0.00  0.00    +0.000 C 
ATOM      9  C   UNL     1       0.502   9.096  22.294  0.00  0.00    +0.000 C 
ATOM     10  C   UNL     1       1.088   8.627  20.987  0.00  0.00    +0.000 A 
ATOM     11  C   UNL     1       1.911   7.484  21.013  0.00  0.00    +0.000 A 
ATOM     12  C   UNL     1       2.483   6.994  19.844  0.00  0.00    +0.000 A 
ATOM     13  C   UNL     1       2.285   7.662  18.644  0.00  0.00    +0.000 A 
ATOM     14  C   UNL     1       1.472   8.802  18.611  0.00  0.00    +0.000 A 
ATOM     15  C   UNL     1       0.848   9.294  19.767  0.00  0.00    +0.000 A 
ENDBRANCH   1  12
BRANCH   1  16
ATOM     16  S   UNL     1       3.093   4.677  18.696  0.00  0.00    +0.000 S 
ATOM     17  O   UNL     1       3.294   3.384  19.322  0.00  0.00    +0.000 OA
ATOM     18  O   UNL     1       1.906   4.975  17.927  0.00  0.00    +0.000 OA
BRANCH  16  19
ATOM     19  C   UNL     1       4.389   4.825  17.600  0.00  0.00    +0.000 A 
ATOM     20  C   UNL     1       5.687   5.251  17.888  0.00  0.00    +0.000 A 
ATOM     21  N   UNL     1       6.493   5.156  16.825  0.00  0.00    +0.000 NA
ATOM     22  N   UNL     1       5.687   4.713  15.818  0.00  0.00    +0.000 N 
ATOM     23  C   UNL     1       4.409   4.486  16.267  0.00  0.00    +0.000 A 
BRANCH  22  24
ATOM     24  C   UNL     1       6.185   4.523  14.498  0.00  0.00    +0.000 A 
ATOM     25  C   UNL     1       5.538   3.627  13.635  0.00  0.00    +0.000 A 
ATOM     26  C   UNL     1       6.025   3.429  12.341  0.00  0.00    +0.000 A 
ATOM     27  C   UNL     1       7.156   4.116  11.904  0.00  0.00    +0.000 A 
ATOM     28  C   UNL     1       7.803   5.006  12.758  0.00  0.00    +0.000 A 
ATOM     29  C   UNL     1       7.319   5.216  14.053  0.00  0.00    +0.000 A 
ENDBRANCH  22  24
ENDBRANCH  16  19
ENDBRANCH   1  16
TORSDOF 4
ENDMDL
MODEL 7
REMARK VINA RESULT:      -8.0      3.456      5.514
REMARK  Name = 
REMARK  5 active torsions:
REMARK  status: ('A' for Active; 'I' for Inactive)
REMARK    1  A    between atoms: C_1  and  C_2
REMARK    2  A    between atoms: C_10  and  N_11
REMARK    3  A    between atoms: N_11  and  S_12
REMARK    4  A    between atoms: S_12  and  C_15
REMARK    5  A    between atoms: N_18  and  C_19
REMARK                            x       y       z     vdW  Elec       q    Type
REMARK                         _______ _______ _______ _____ _____    ______ ____
ROOT
ATOM      1  N   UNL     1       5.207   5.720  15.656  0.00  0.00    +0.000 N 
ATOM      2  H   UNL     1       5.214   6.427  14.919  0.00  0.00    +0.000 HD
ENDROOT
BRANCH   1  12
ATOM      3  C   UNL     1       0.461   8.336  21.557  0.00  0.00    +0.000 C 
ATOM      4  C   UNL     1       1.270   8.138  20.297  0.00  0.00    +0.000 C 
ATOM      5  O   UNL     1       1.316   9.074  19.495  0.00  0.00    +0.000 OA
ATOM      6  N   UNL     1       1.876   6.886  20.117  0.00  0.00    +0.000 N 
ATOM      7  C   UNL     1       1.663   5.756  21.034  0.00  0.00    +0.000 C 
ATOM      8  C   UNL     1       1.238   4.510  20.278  0.00  0.00    +0.000 C 
ATOM      9  C   UNL     1       2.327   4.099  19.302  0.00  0.00    +0.000 C 
ATOM     10  C   UNL     1       2.944   5.273  18.584  0.00  0.00    +0.000 A 
ATOM     11  C   UNL     1       3.770   4.999  17.477  0.00  0.00    +0.000 A 
ATOM     12  C   UNL     1       4.370   6.033  16.766  0.00  0.00    +0.000 A 
ATOM     13  C   UNL     1       4.197   7.347  17.177  0.00  0.00    +0.000 A 
ATOM     14  C   UNL     1       3.382   7.626  18.280  0.00  0.00    +0.000 A 
ATOM     15  C   UNL     1       2.729   6.607  18.991  0.00  0.00    +0.000 A 
ENDBRANCH   1  12
BRANCH   1  16
ATOM     16  S   UNL     1       6.806   5.283  16.015  0.00  0.00    +0.000 S 
ATOM     17  O   UNL     1       6.739   4.029  16.741  0.00  0.00    +0.000 OA
ATOM     18  O   UNL     1       7.645   5.444  14.848  0.00  0.00    +0.000 OA
BRANCH  16  19
ATOM     19  C   UNL     1       7.398   6.403  17.153  0.00  0.00    +0.000 A 
ATOM     20  C   UNL     1       7.798   6.134  18.465  0.00  0.00    +0.000 A 
ATOM     21  N   UNL     1       8.309   7.214  19.063  0.00  0.00    +0.000 NA
ATOM     22  N   UNL     1       8.187   8.212  18.141  0.00  0.00    +0.000 N 
ATOM     23  C   UNL     1       7.654   7.741  16.967  0.00  0.00    +0.000 A 
BRANCH  22  24
ATOM     24  C   UNL     1       8.594   9.545  18.431  0.00  0.00    +0.000 A 
ATOM     25  C   UNL     1       8.265  10.579  17.543  0.00  0.00    +0.000 A 
ATOM     26  C   UNL     1       8.668  11.889  17.816  0.00  0.00    +0.000 A 
ATOM     27  C   UNL     1       9.401  12.171  18.967  0.00  0.00    +0.000 A 
ATOM     28  C   UNL     1       9.731  11.148  19.852  0.00  0.00    +0.000 A 
ATOM     29  C   UNL     1       9.326   9.835  19.591  0.00  0.00    +0.000 A 
ENDBRANCH  22  24
ENDBRANCH  16  19
ENDBRANCH   1  16
TORSDOF 4
ENDMDL
MODEL 8
REMARK VINA RESULT:      -7.9      1.567      2.055
REMARK  Name = 
REMARK  5 active torsions:
REMARK  status: ('A' for Active; 'I' for Inactive)
REMARK    1  A    between atoms: C_1  and  C_2
REMARK    2  A    between atoms: C_10  and  N_11
REMARK    3  A    between atoms: N_11  and  S_12
REMARK    4  A    between atoms: S_12  and  C_15
REMARK    5  A    between atoms: N_18  and  C_19
REMARK                            x       y       z     vdW  Elec       q    Type
REMARK                         _______ _______ _______ _____ _____    ______ ____
ROOT
ATOM      1  N   UNL     1       3.105   7.598  18.106  0.00  0.00    +0.000 N 
ATOM      2  H   UNL     1       4.052   7.979  18.083  0.00  0.00    +0.000 HD
ENDROOT
BRANCH   1  12
ATOM      3  C   UNL     1      -1.702  11.373  23.287  0.00  0.00    +0.000 C 
ATOM      4  C   UNL     1      -0.629  10.568  22.592  0.00  0.00    +0.000 C 
ATOM      5  O   UNL     1       0.166   9.945  23.300  0.00  0.00    +0.000 OA
ATOM      6  N   UNL     1      -0.594  10.624  21.191  0.00  0.00    +0.000 N 
ATOM      7  C   UNL     1      -1.473  11.504  20.405  0.00  0.00    +0.000 C 
ATOM      8  C   UNL     1      -0.671  12.349  19.432  0.00  0.00    +0.000 C 
ATOM      9  C   UNL     1       0.065  11.453  18.451  0.00  0.00    +0.000 C 
ATOM     10  C   UNL     1       0.670  10.238  19.106  0.00  0.00    +0.000 A 
ATOM     11  C   UNL     1       1.588   9.480  18.355  0.00  0.00    +0.000 A 
ATOM     12  C   UNL     1       2.187   8.347  18.897  0.00  0.00    +0.000 A 
ATOM     13  C   UNL     1       1.841   7.927  20.174  0.00  0.00    +0.000 A 
ATOM     14  C   UNL     1       0.925   8.672  20.925  0.00  0.00    +0.000 A 
ATOM     15  C   UNL     1       0.338   9.842  20.419  0.00  0.00    +0.000 A 
ENDBRANCH   1  12
BRANCH   1  16
ATOM     16  S   UNL     1       3.187   5.933  18.416  0.00  0.00    +0.000 S 
ATOM     17  O   UNL     1       3.686   5.789  19.770  0.00  0.00    +0.000 OA
ATOM     18  O   UNL     1       1.974   5.280  17.977  0.00  0.00    +0.000 OA
BRANCH  16  19
ATOM     19  C   UNL     1       4.424   5.292  17.436  0.00  0.00    +0.000 A 
ATOM     20  C   UNL     1       5.460   4.446  17.839  0.00  0.00    +0.000 A 
ATOM     21  N   UNL     1       6.206   4.041  16.806  0.00  0.00    +0.000 NA
ATOM     22  N   UNL     1       5.677   4.682  15.724  0.00  0.00    +0.000 N 
ATOM     23  C   UNL     1       4.582   5.432  16.077  0.00  0.00    +0.000 A 
BRANCH  22  24
ATOM     24  C   UNL     1       6.237   4.530  14.424  0.00  0.00    +0.000 A 
ATOM     25  C   UNL     1       5.648   3.640  13.515  0.00  0.00    +0.000 A 
ATOM     26  C   UNL     1       6.196   3.480  12.240  0.00  0.00    +0.000 A 
ATOM     27  C   UNL     1       7.331   4.198  11.869  0.00  0.00    +0.000 A 
ATOM     28  C   UNL     1       7.921   5.082  12.769  0.00  0.00    +0.000 A 
ATOM     29  C   UNL     1       7.375   5.255  14.045  0.00  0.00    +0.000 A 
ENDBRANCH  22  24
ENDBRANCH  16  19
ENDBRANCH   1  16
TORSDOF 4
ENDMDL
MODEL 9
REMARK VINA RESULT:      -7.9      3.635      6.117
REMARK  Name = 
REMARK  5 active torsions:
REMARK  status: ('A' for Active; 'I' for Inactive)
REMARK    1  A    between atoms: C_1  and  C_2
REMARK    2  A    between atoms: C_10  and  N_11
REMARK    3  A    between atoms: N_11  and  S_12
REMARK    4  A    between atoms: S_12  and  C_15
REMARK    5  A    between atoms: N_18  and  C_19
REMARK                            x       y       z     vdW  Elec       q    Type
REMARK                         _______ _______ _______ _____ _____    ______ ____
ROOT
ATOM      1  N   UNL     1       5.384   5.371  15.650  0.00  0.00    +0.000 N 
ATOM      2  H   UNL     1       5.159   6.276  15.236  0.00  0.00    +0.000 HD
ENDROOT
BRANCH   1  12
ATOM      3  C   UNL     1       1.302   2.583  21.956  0.00  0.00    +0.000 C 
ATOM      4  C   UNL     1       2.270   2.837  20.824  0.00  0.00    +0.000 C 
ATOM      5  O   UNL     1       3.134   1.984  20.610  0.00  0.00    +0.000 OA
ATOM      6  N   UNL     1       2.136   4.047  20.129  0.00  0.00    +0.000 N 
ATOM      7  C   UNL     1       1.183   5.095  20.525  0.00  0.00    +0.000 C 
ATOM      8  C   UNL     1       1.874   6.440  20.663  0.00  0.00    +0.000 C 
ATOM      9  C   UNL     1       2.471   6.855  19.329  0.00  0.00    +0.000 C 
ATOM     10  C   UNL     1       3.131   5.711  18.601  0.00  0.00    +0.000 A 
ATOM     11  C   UNL     1       3.939   6.024  17.491  0.00  0.00    +0.000 A 
ATOM     12  C   UNL     1       4.580   5.020  16.773  0.00  0.00    +0.000 A 
ATOM     13  C   UNL     1       4.386   3.690  17.120  0.00  0.00    +0.000 A 
ATOM     14  C   UNL     1       3.579   3.371  18.219  0.00  0.00    +0.000 A 
ATOM     15  C   UNL     1       2.954   4.366  18.987  0.00  0.00    +0.000 A 
ENDBRANCH   1  12
BRANCH   1  16
ATOM     16  S   UNL     1       7.063   5.260  15.858  0.00  0.00    +0.000 S 
ATOM     17  O   UNL     1       7.319   3.978  16.486  0.00  0.00    +0.000 OA
ATOM     18  O   UNL     1       7.747   5.667  14.650  0.00  0.00    +0.000 OA
BRANCH  16  19
ATOM     19  C   UNL     1       7.508   6.408  17.036  0.00  0.00    +0.000 A 
ATOM     20  C   UNL     1       7.711   6.176  18.398  0.00  0.00    +0.000 A 
ATOM     21  N   UNL     1       8.152   7.267  19.031  0.00  0.00    +0.000 NA
ATOM     22  N   UNL     1       8.181   8.237  18.072  0.00  0.00    +0.000 N 
ATOM     23  C   UNL     1       7.813   7.735  16.848  0.00  0.00    +0.000 A 
BRANCH  22  24
ATOM     24  C   UNL     1       8.568   9.572  18.377  0.00  0.00    +0.000 A 
ATOM     25  C   UNL     1       8.196  10.615  17.518  0.00  0.00    +0.000 A 
ATOM     26  C   UNL     1       8.578  11.928  17.806  0.00  0.00    +0.000 A 
ATOM     27  C   UNL     1       9.335  12.204  18.943  0.00  0.00    +0.000 A 
ATOM     28  C   UNL     1       9.708  11.171  19.799  0.00  0.00    +0.000 A 
ATOM     29  C   UNL     1       9.324   9.856  19.523  0.00  0.00    +0.000 A 
ENDBRANCH  22  24
ENDBRANCH  16  19
ENDBRANCH   1  16
TORSDOF 4
ENDMDL
