MODEL 1
REMARK VINA RESULT:      -9.0      0.000      0.000
REMARK  Name = 
REMARK  6 active torsions:
REMARK  status: ('A' for Active; 'I' for Inactive)
REMARK    1  A    between atoms: C_1  and  N_2
REMARK    2  A    between atoms: C_6  and  C_7
REMARK    3  A    between atoms: C_8  and  C_9
REMARK    4  A    between atoms: C_13  and  N_14
REMARK    5  A    between atoms: C_19  and  C_20
REMARK    6  A    between atoms: C_24  and  C_25
REMARK                            x       y       z     vdW  Elec       q    Type
REMARK                         _______ _______ _______ _____ _____    ______ ____
ROOT
ATOM      1  N   UNL     1       3.251   5.676  18.885  0.00  0.00    +0.000 N 
ATOM      2  C   UNL     1       4.559   5.455  19.495  0.00  0.00    +0.000 C 
ATOM      3  C   UNL     1       5.337   4.925  18.332  0.00  0.00    +0.000 A 
ATOM      4  C   UNL     1       4.427   4.416  17.401  0.00  0.00    +0.000 A 
ATOM      5  C   UNL     1       4.766   4.046  16.117  0.00  0.00    +0.000 A 
ATOM      6  C   UNL     1       6.099   4.205  15.755  0.00  0.00    +0.000 A 
ATOM      7  C   UNL     1       7.047   4.681  16.698  0.00  0.00    +0.000 A 
ATOM      8  C   UNL     1       6.682   5.044  18.013  0.00  0.00    +0.000 A 
ATOM      9  C   UNL     1       3.077   4.781  17.828  0.00  0.00    +0.000 C 
ATOM     10  O   UNL     1       2.073   4.483  17.207  0.00  0.00    +0.000 OA
ENDROOT
BRANCH   1  15
ATOM     11  C   UNL     1       1.502   8.870  19.592  0.00  0.00    +0.000 A 
ATOM     12  C   UNL     1       1.634   9.553  18.382  0.00  0.00    +0.000 A 
ATOM     13  C   UNL     1       2.392   8.993  17.360  0.00  0.00    +0.000 A 
ATOM     14  C   UNL     1       2.952   7.729  17.534  0.00  0.00    +0.000 A 
ATOM     15  C   UNL     1       2.783   7.017  18.735  0.00  0.00    +0.000 A 
ATOM     16  C   UNL     1       2.119   7.635  19.789  0.00  0.00    +0.000 A 
BRANCH  11  18
ATOM     17  C   UNL     1      -0.173   9.938  21.283  0.00  0.00    +0.000 C 
ATOM     18  C   UNL     1       0.579   9.325  20.582  0.00  0.00    +0.000 C 
BRANCH  17  24
ATOM     19  C   UNL     1      -2.080  12.207  20.222  0.00  0.00    +0.000 C 
ATOM     20  N   UNL     1      -1.781  11.840  21.579  0.00  0.00    +0.000 N 
ATOM     21  C   UNL     1      -2.252  12.480  22.687  0.00  0.00    +0.000 A 
ATOM     22  N   UNL     1      -1.770  11.906  23.763  0.00  0.00    +0.000 NA
ATOM     23  N   UNL     1      -0.961  10.871  23.353  0.00  0.00    +0.000 NA
ATOM     24  C   UNL     1      -0.974  10.835  22.037  0.00  0.00    +0.000 A 
ENDBRANCH  17  24
ENDBRANCH  11  18
ENDBRANCH   1  15
BRANCH   6  25
ATOM     25  C   UNL     1       6.516   4.047  14.339  0.00  0.00    +0.000 C 
ATOM     26  N   UNL     1       5.955   3.031  13.622  0.00  0.00    +0.000 N 
ATOM     27  O   UNL     1       7.326   4.812  13.834  0.00  0.00    +0.000 OA
ATOM     28  H   UNL     1       5.373   2.305  14.012  0.00  0.00    +0.000 HD
ATOM     29  H   UNL     1       6.248   2.932  12.658  0.00  0.00    +0.000 HD
ENDBRANCH   6  25
BRANCH   8  30
ATOM     30  C   UNL     1       7.701   5.647  18.945  0.00  0.00    +0.000 C 
ATOM     31  F   UNL     1       8.151   6.870  18.544  0.00  0.00    +0.000 F 
ATOM     32  F   UNL     1       7.209   5.836  20.199  0.00  0.00    +0.000 F 
ATOM     33  F   UNL     1       8.809   4.873  19.078  0.00  0.00    +0.000 F 
ENDBRANCH   8  30
TORSDOF 5
ENDMDL
MODEL 2
REMARK VINA RESULT:      -8.5      2.266      3.046
REMARK  Name = 
REMARK  6 active torsions:
REMARK  status: ('A' for Active; 'I' for Inactive)
REMARK    1  A    between atoms: C_1  and  N_2
REMARK    2  A    between atoms: C_6  and  C_7
REMARK    3  A    between atoms: C_8  and  C_9
REMARK    4  A    between atoms: C_13  and  N_14
REMARK    5  A    between atoms: C_19  and  C_20
REMARK    6  A    between atoms: C_24  and  C_25
REMARK                            x       y       z     vdW  Elec       q    Type
REMARK                         _______ _______ _______ _____ _____    ______ ____
ROOT
ATOM      1  N   UNL     1       4.754   4.449  19.462  0.00  0.00    +0.000 N 
ATOM      2  C   UNL     1       5.974   5.251  19.427  0.00  0.00    +0.000 C 
ATOM      3  C   UNL     1       6.372   5.113  17.992  0.00  0.00    +0.000 A 
ATOM      4  C   UNL     1       5.767   3.959  17.485  0.00  0.00    +0.000 A 
ATOM      5  C   UNL     1       5.732   3.633  16.147  0.00  0.00    +0.000 A 
ATOM      6  C   UNL     1       6.338   4.528  15.272  0.00  0.00    +0.000 A 
ATOM      7  C   UNL     1       6.993   5.685  15.769  0.00  0.00    +0.000 A 
ATOM      8  C   UNL     1       7.029   5.995  17.146  0.00  0.00    +0.000 A 
ATOM      9  C   UNL     1       4.827   3.454  18.485  0.00  0.00    +0.000 C 
ATOM     10  O   UNL     1       4.143   2.460  18.322  0.00  0.00    +0.000 OA
ENDROOT
BRANCH   1  15
ATOM     11  C   UNL     1       2.105   7.044  19.366  0.00  0.00    +0.000 A 
ATOM     12  C   UNL     1       1.174   6.549  20.282  0.00  0.00    +0.000 A 
ATOM     13  C   UNL     1       1.379   5.301  20.858  0.00  0.00    +0.000 A 
ATOM     14  C   UNL     1       2.544   4.593  20.566  0.00  0.00    +0.000 A 
ATOM     15  C   UNL     1       3.506   5.108  19.680  0.00  0.00    +0.000 A 
ATOM     16  C   UNL     1       3.237   6.304  19.024  0.00  0.00    +0.000 A 
BRANCH  11  18
ATOM     17  C   UNL     1       1.794   9.557  18.738  0.00  0.00    +0.000 C 
ATOM     18  C   UNL     1       2.022   8.393  18.909  0.00  0.00    +0.000 C 
BRANCH  17  24
ATOM     19  C   UNL     1      -1.096  10.708  19.214  0.00  0.00    +0.000 C 
ATOM     20  N   UNL     1       0.103  11.406  18.839  0.00  0.00    +0.000 N 
ATOM     21  C   UNL     1       0.181  12.738  18.558  0.00  0.00    +0.000 A 
ATOM     22  N   UNL     1       1.413  13.044  18.229  0.00  0.00    +0.000 NA
ATOM     23  N   UNL     1       2.158  11.890  18.291  0.00  0.00    +0.000 NA
ATOM     24  C   UNL     1       1.364  10.907  18.661  0.00  0.00    +0.000 A 
ENDBRANCH  17  24
ENDBRANCH  11  18
ENDBRANCH   1  15
BRANCH   6  25
ATOM     25  C   UNL     1       6.160   4.381  13.806  0.00  0.00    +0.000 C 
ATOM     26  N   UNL     1       7.192   4.765  12.999  0.00  0.00    +0.000 N 
ATOM     27  O   UNL     1       5.127   3.918  13.342  0.00  0.00    +0.000 OA
ATOM     28  H   UNL     1       8.015   5.256  13.314  0.00  0.00    +0.000 HD
ATOM     29  H   UNL     1       7.059   4.661  12.001  0.00  0.00    +0.000 HD
ENDBRANCH   6  25
BRANCH   8  30
ATOM     30  C   UNL     1       7.641   7.289  17.617  0.00  0.00    +0.000 C 
ATOM     31  F   UNL     1       8.444   7.883  16.688  0.00  0.00    +0.000 F 
ATOM     32  F   UNL     1       6.704   8.221  17.935  0.00  0.00    +0.000 F 
ATOM     33  F   UNL     1       8.414   7.127  18.722  0.00  0.00    +0.000 F 
ENDBRANCH   8  30
TORSDOF 5
ENDMDL
MODEL 3
REMARK VINA RESULT:      -8.4      5.342     10.562
REMARK  Name = 
REMARK  6 active torsions:
REMARK  status: ('A' for Active; 'I' for Inactive)
REMARK    1  A    between atoms: C_1  and  N_2
REMARK    2  A    between atoms: C_6  and  C_7
REMARK    3  A    between atoms: C_8  and  C_9
REMARK    4  A    between atoms: C_13  and  N_14
REMARK    5  A    between atoms: C_19  and  C_20
REMARK    6  A    between atoms: C_24  and  C_25
REMARK                            x       y       z     vdW  Elec       q    Type
REMARK                         _______ _______ _______ _____ _____    ______ ____
ROOT
ATOM      1  N   UNL     1      -0.546  11.150  18.860  0.00  0.00    +0.000 N 
ATOM      2  C   UNL     1      -0.857  12.479  19.380  0.00  0.00    +0.000 C 
ATOM      3  C   UNL     1      -2.352  12.462  19.344  0.00  0.00    +0.000 A 
ATOM      4  C   UNL     1      -2.751  11.491  18.420  0.00  0.00    +0.000 A 
ATOM      5  C   UNL     1      -4.048  11.046  18.283  0.00  0.00    +0.000 A 
ATOM      6  C   UNL     1      -4.993  11.612  19.132  0.00  0.00    +0.000 A 
ATOM      7  C   UNL     1      -4.617  12.629  20.048  0.00  0.00    +0.000 A 
ATOM      8  C   UNL     1      -3.285  13.080  20.165  0.00  0.00    +0.000 A 
ATOM      9  C   UNL     1      -1.569  10.736  18.005  0.00  0.00    +0.000 C 
ATOM     10  O   UNL     1      -1.606   9.815  17.211  0.00  0.00    +0.000 OA
ENDROOT
BRANCH   1  15
ATOM     11  C   UNL     1       1.538   8.328  20.064  0.00  0.00    +0.000 A 
ATOM     12  C   UNL     1       1.055   8.136  21.360  0.00  0.00    +0.000 A 
ATOM     13  C   UNL     1       0.104   9.010  21.871  0.00  0.00    +0.000 A 
ATOM     14  C   UNL     1      -0.404  10.023  21.059  0.00  0.00    +0.000 A 
ATOM     15  C   UNL     1       0.047  10.192  19.738  0.00  0.00    +0.000 A 
ATOM     16  C   UNL     1       1.079   9.383  19.276  0.00  0.00    +0.000 A 
BRANCH  11  18
ATOM     17  C   UNL     1       2.968   6.357  19.126  0.00  0.00    +0.000 C 
ATOM     18  C   UNL     1       2.365   7.341  19.448  0.00  0.00    +0.000 C 
BRANCH  17  24
ATOM     19  C   UNL     1       1.830   3.672  17.941  0.00  0.00    +0.000 C 
ATOM     20  N   UNL     1       3.146   3.949  18.449  0.00  0.00    +0.000 N 
ATOM     21  C   UNL     1       4.152   3.036  18.561  0.00  0.00    +0.000 A 
ATOM     22  N   UNL     1       5.209   3.610  19.082  0.00  0.00    +0.000 NA
ATOM     23  N   UNL     1       4.889   4.926  19.323  0.00  0.00    +0.000 NA
ATOM     24  C   UNL     1       3.645   5.125  18.937  0.00  0.00    +0.000 A 
ENDBRANCH  17  24
ENDBRANCH  11  18
ENDBRANCH   1  15
BRANCH   6  25
ATOM     25  C   UNL     1      -6.363  11.045  19.215  0.00  0.00    +0.000 C 
ATOM     26  N   UNL     1      -6.896  10.852  20.456  0.00  0.00    +0.000 N 
ATOM     27  O   UNL     1      -6.992  10.774  18.202  0.00  0.00    +0.000 OA
ATOM     28  H   UNL     1      -6.386  10.947  21.322  0.00  0.00    +0.000 HD
ATOM     29  H   UNL     1      -7.830  10.463  20.500  0.00  0.00    +0.000 HD
ENDBRANCH   6  25
BRANCH   8  30
ATOM     30  C   UNL     1      -2.912  14.083  21.227  0.00  0.00    +0.000 C 
ATOM     31  F   UNL     1      -2.109  13.571  22.203  0.00  0.00    +0.000 F 
ATOM     32  F   UNL     1      -2.235  15.146  20.720  0.00  0.00    +0.000 F 
ATOM     33  F   UNL     1      -3.997  14.587  21.870  0.00  0.00    +0.000 F 
ENDBRANCH   8  30
TORSDOF 5
ENDMDL
MODEL 4
REMARK VINA RESULT:      -8.3      5.086     10.535
REMARK  Name = 
REMARK  6 active torsions:
REMARK  status: ('A' for Active; 'I' for Inactive)
REMARK    1  A    between atoms: C_1  and  N_2
REMARK    2  A    between atoms: C_6  and  C_7
REMARK    3  A    between atoms: C_8  and  C_9
REMARK    4  A    between atoms: C_13  and  N_14
REMARK    5  A    between atoms: C_19  and  C_20
REMARK    6  A    between atoms: C_24  and  C_25
REMARK                            x       y       z     vdW  Elec       q    Type
REMARK                         _______ _______ _______ _____ _____    ______ ____
ROOT
ATOM      1  N   UNL     1      -0.385  11.036  18.719  0.00  0.00    +0.000 N 
ATOM      2  C   UNL     1      -0.608  12.345  19.328  0.00  0.00    +0.000 C 
ATOM      3  C   UNL     1      -2.103  12.403  19.352  0.00  0.00    +0.000 A 
ATOM      4  C   UNL     1      -2.585  11.511  18.390  0.00  0.00    +0.000 A 
ATOM      5  C   UNL     1      -3.908  11.139  18.280  0.00  0.00    +0.000 A 
ATOM      6  C   UNL     1      -4.790  11.698  19.198  0.00  0.00    +0.000 A 
ATOM      7  C   UNL     1      -4.328  12.638  20.156  0.00  0.00    +0.000 A 
ATOM      8  C   UNL     1      -2.970  13.016  20.245  0.00  0.00    +0.000 A 
ATOM      9  C   UNL     1      -1.460  10.725  17.884  0.00  0.00    +0.000 C 
ATOM     10  O   UNL     1      -1.574   9.856  17.040  0.00  0.00    +0.000 OA
ENDROOT
BRANCH   1  15
ATOM     11  C   UNL     1       1.721   8.148  19.711  0.00  0.00    +0.000 A 
ATOM     12  C   UNL     1       1.176   7.796  20.948  0.00  0.00    +0.000 A 
ATOM     13  C   UNL     1       0.171   8.582  21.500  0.00  0.00    +0.000 A 
ATOM     14  C   UNL     1      -0.325   9.668  20.781  0.00  0.00    +0.000 A 
ATOM     15  C   UNL     1       0.190   9.999  19.515  0.00  0.00    +0.000 A 
ATOM     16  C   UNL     1       1.270   9.275  19.024  0.00  0.00    +0.000 A 
BRANCH  11  18
ATOM     17  C   UNL     1       3.342   6.697  18.274  0.00  0.00    +0.000 C 
ATOM     18  C   UNL     1       2.610   7.260  19.035  0.00  0.00    +0.000 C 
BRANCH  17  24
ATOM     19  C   UNL     1       3.723   3.667  17.511  0.00  0.00    +0.000 C 
ATOM     20  N   UNL     1       4.316   4.830  16.910  0.00  0.00    +0.000 N 
ATOM     21  C   UNL     1       5.229   4.812  15.898  0.00  0.00    +0.000 A 
ATOM     22  N   UNL     1       5.581   6.041  15.604  0.00  0.00    +0.000 NA
ATOM     23  N   UNL     1       4.888   6.882  16.443  0.00  0.00    +0.000 NA
ATOM     24  C   UNL     1       4.126   6.147  17.225  0.00  0.00    +0.000 A 
ENDBRANCH  17  24
ENDBRANCH  11  18
ENDBRANCH   1  15
BRANCH   6  25
ATOM     25  C   UNL     1      -6.182  11.195  19.304  0.00  0.00    +0.000 C 
ATOM     26  N   UNL     1      -6.749  11.148  20.544  0.00  0.00    +0.000 N 
ATOM     27  O   UNL     1      -6.801  10.848  18.307  0.00  0.00    +0.000 OA
ATOM     28  H   UNL     1      -6.254  11.311  21.408  0.00  0.00    +0.000 HD
ATOM     29  H   UNL     1      -7.698  10.802  20.604  0.00  0.00    +0.000 HD
ENDBRANCH   6  25
BRANCH   8  30
ATOM     30  C   UNL     1      -2.507  13.933  21.347  0.00  0.00    +0.000 C 
ATOM     31  F   UNL     1      -1.806  15.014  20.899  0.00  0.00    +0.000 F 
ATOM     32  F   UNL     1      -3.542  14.445  22.064  0.00  0.00    +0.000 F 
ATOM     33  F   UNL     1      -1.692  13.310  22.236  0.00  0.00    +0.000 F 
ENDBRANCH   8  30
TORSDOF 5
ENDMDL
MODEL 5
REMARK VINA RESULT:      -8.3      5.154     10.518
REMARK  Name = 
REMARK  6 active torsions:
REMARK  status: ('A' for Active; 'I' for Inactive)
REMARK    1  A    between atoms: C_1  and  N_2
REMARK    2  A    between atoms: C_6  and  C_7
REMARK    3  A    between atoms: C_8  and  C_9
REMARK    4  A    between atoms: C_13  and  N_14
REMARK    5  A    between atoms: C_19  and  C_20
REMARK    6  A    between atoms: C_24  and  C_25
REMARK                            x       y       z     vdW  Elec       q    Type
REMARK                         _______ _______ _______ _____ _____    ______ ____
ROOT
ATOM      1  N   UNL     1      -0.331  11.140  18.859  0.00  0.00    +0.000 N 
ATOM      2  C   UNL     1      -0.574  12.434  19.491  0.00  0.00    +0.000 C 
ATOM      3  C   UNL     1      -2.067  12.509  19.432  0.00  0.00    +0.000 A 
ATOM      4  C   UNL     1      -2.503  11.649  18.421  0.00  0.00    +0.000 A 
ATOM      5  C   UNL     1      -3.821  11.296  18.226  0.00  0.00    +0.000 A 
ATOM      6  C   UNL     1      -4.748  11.840  19.108  0.00  0.00    +0.000 A 
ATOM      7  C   UNL     1      -4.332  12.748  20.117  0.00  0.00    +0.000 A 
ATOM      8  C   UNL     1      -2.977  13.107  20.293  0.00  0.00    +0.000 A 
ATOM      9  C   UNL     1      -1.359  10.865  17.956  0.00  0.00    +0.000 C 
ATOM     10  O   UNL     1      -1.434  10.021  17.082  0.00  0.00    +0.000 OA
ENDROOT
BRANCH   1  15
ATOM     11  C   UNL     1       1.623   8.149  19.857  0.00  0.00    +0.000 A 
ATOM     12  C   UNL     1       1.055   7.824  21.091  0.00  0.00    +0.000 A 
ATOM     13  C   UNL     1       0.089   8.659  21.640  0.00  0.00    +0.000 A 
ATOM     14  C   UNL     1      -0.348   9.769  20.920  0.00  0.00    +0.000 A 
ATOM     15  C   UNL     1       0.188  10.075  19.657  0.00  0.00    +0.000 A 
ATOM     16  C   UNL     1       1.233   9.298  19.169  0.00  0.00    +0.000 A 
BRANCH  11  18
ATOM     17  C   UNL     1       3.347   6.487  18.822  0.00  0.00    +0.000 C 
ATOM     18  C   UNL     1       2.470   7.218  19.184  0.00  0.00    +0.000 C 
BRANCH  17  24
ATOM     19  C   UNL     1       5.034   6.494  16.164  0.00  0.00    +0.000 C 
ATOM     20  N   UNL     1       5.225   5.709  17.353  0.00  0.00    +0.000 N 
ATOM     21  C   UNL     1       6.181   4.751  17.515  0.00  0.00    +0.000 A 
ATOM     22  N   UNL     1       6.064   4.213  18.706  0.00  0.00    +0.000 NA
ATOM     23  N   UNL     1       5.007   4.827  19.336  0.00  0.00    +0.000 NA
ATOM     24  C   UNL     1       4.508   5.730  18.517  0.00  0.00    +0.000 A 
ENDBRANCH  17  24
ENDBRANCH  11  18
ENDBRANCH   1  15
BRANCH   6  25
ATOM     25  C   UNL     1      -6.149  11.351  19.121  0.00  0.00    +0.000 C 
ATOM     26  N   UNL     1      -6.790  11.228  17.922  0.00  0.00    +0.000 N 
ATOM     27  O   UNL     1      -6.703  11.057  20.172  0.00  0.00    +0.000 OA
ATOM     28  H   UNL     1      -6.428  11.561  17.041  0.00  0.00    +0.000 HD
ATOM     29  H   UNL     1      -7.745  10.895  17.943  0.00  0.00    +0.000 HD
ENDBRANCH   6  25
BRANCH   8  30
ATOM     30  C   UNL     1      -2.568  13.988  21.445  0.00  0.00    +0.000 C 
ATOM     31  F   UNL     1      -1.816  13.345  22.383  0.00  0.00    +0.000 F 
ATOM     32  F   UNL     1      -1.819  15.050  21.045  0.00  0.00    +0.000 F 
ATOM     33  F   UNL     1      -3.634  14.498  22.115  0.00  0.00    +0.000 F 
ENDBRANCH   8  30
TORSDOF 5
ENDMDL
MODEL 6
REMARK VINA RESULT:      -8.2      4.770     10.434
REMARK  Name = 
REMARK  6 active torsions:
REMARK  status: ('A' for Active; 'I' for Inactive)
REMARK    1  A    between atoms: C_1  and  N_2
REMARK    2  A    between atoms: C_6  and  C_7
REMARK    3  A    between atoms: C_8  and  C_9
REMARK    4  A    between atoms: C_13  and  N_14
REMARK    5  A    between atoms: C_19  and  C_20
REMARK    6  A    between atoms: C_24  and  C_25
REMARK                            x       y       z     vdW  Elec       q    Type
REMARK                         _______ _______ _______ _____ _____    ______ ____
ROOT
ATOM      1  N   UNL     1       0.110  10.965  18.493  0.00  0.00    +0.000 N 
ATOM      2  C   UNL     1       0.408  12.334  18.903  0.00  0.00    +0.000 C 
ATOM      3  C   UNL     1      -0.925  12.780  19.414  0.00  0.00    +0.000 A 
ATOM      4  C   UNL     1      -1.903  11.963  18.841  0.00  0.00    +0.000 A 
ATOM      5  C   UNL     1      -3.221  11.938  19.245  0.00  0.00    +0.000 A 
ATOM      6  C   UNL     1      -3.565  12.785  20.293  0.00  0.00    +0.000 A 
ATOM      7  C   UNL     1      -2.597  13.654  20.862  0.00  0.00    +0.000 A 
ATOM      8  C   UNL     1      -1.255  13.672  20.425  0.00  0.00    +0.000 A 
ATOM      9  C   UNL     1      -1.235  10.871  18.132  0.00  0.00    +0.000 C 
ATOM     10  O   UNL     1      -1.831   9.991  17.539  0.00  0.00    +0.000 OA
ENDROOT
BRANCH   1  15
ATOM     11  C   UNL     1       2.118   7.936  19.238  0.00  0.00    +0.000 A 
ATOM     12  C   UNL     1       1.702   7.617  20.532  0.00  0.00    +0.000 A 
ATOM     13  C   UNL     1       0.826   8.467  21.197  0.00  0.00    +0.000 A 
ATOM     14  C   UNL     1       0.324   9.587  20.538  0.00  0.00    +0.000 A 
ATOM     15  C   UNL     1       0.705   9.887  19.219  0.00  0.00    +0.000 A 
ATOM     16  C   UNL     1       1.667   9.094  18.605  0.00  0.00    +0.000 A 
BRANCH  11  18
ATOM     17  C   UNL     1       3.615   6.415  17.737  0.00  0.00    +0.000 C 
ATOM     18  C   UNL     1       2.858   6.992  18.464  0.00  0.00    +0.000 C 
BRANCH  17  24
ATOM     19  C   UNL     1       4.417   3.421  17.188  0.00  0.00    +0.000 C 
ATOM     20  N   UNL     1       4.920   4.618  16.571  0.00  0.00    +0.000 N 
ATOM     21  C   UNL     1       5.916   4.663  15.642  0.00  0.00    +0.000 A 
ATOM     22  N   UNL     1       6.146   5.910  15.306  0.00  0.00    +0.000 NA
ATOM     23  N   UNL     1       5.286   6.700  16.034  0.00  0.00    +0.000 NA
ATOM     24  C   UNL     1       4.549   5.916  16.792  0.00  0.00    +0.000 A 
ENDBRANCH  17  24
ENDBRANCH  11  18
ENDBRANCH   1  15
BRANCH   6  25
ATOM     25  C   UNL     1      -4.895  12.672  20.943  0.00  0.00    +0.000 C 
ATOM     26  N   UNL     1      -4.926  12.457  22.291  0.00  0.00    +0.000 N 
ATOM     27  O   UNL     1      -5.924  12.780  20.291  0.00  0.00    +0.000 OA
ATOM     28  H   UNL     1      -4.119  12.247  22.858  0.00  0.00    +0.000 HD
ATOM     29  H   UNL     1      -5.839  12.380  22.723  0.00  0.00    +0.000 HD
ENDBRANCH   6  25
BRANCH   8  30
ATOM     30  C   UNL     1      -0.238  14.531  21.132  0.00  0.00    +0.000 C 
ATOM     31  F   UNL     1       0.564  15.236  20.283  0.00  0.00    +0.000 F 
ATOM     32  F   UNL     1      -0.814  15.458  21.941  0.00  0.00    +0.000 F 
ATOM     33  F   UNL     1       0.603  13.806  21.913  0.00  0.00    +0.000 F 
ENDBRANCH   8  30
TORSDOF 5
ENDMDL
MODEL 7
REMARK VINA RESULT:      -8.2      5.263     10.688
REMARK  Name = 
REMARK  6 active torsions:
REMARK  status: ('A' for Active; 'I' for Inactive)
REMARK    1  A    between atoms: C_1  and  N_2
REMARK    2  A    between atoms: C_6  and  C_7
REMARK    3  A    between atoms: C_8  and  C_9
REMARK    4  A    between atoms: C_13  and  N_14
REMARK    5  A    between atoms: C_19  and  C_20
REMARK    6  A    between atoms: C_24  and  C_25
REMARK                            x       y       z     vdW  Elec       q    Type
REMARK                         _______ _______ _______ _____ _____    ______ ____
ROOT
ATOM      1  N   UNL     1      -0.612  11.534  19.029  0.00  0.00    +0.000 N 
ATOM      2  C   UNL     1      -0.943  12.736  19.790  0.00  0.00    +0.000 C 
ATOM      3  C   UNL     1      -2.438  12.690  19.769  0.00  0.00    +0.000 A 
ATOM      4  C   UNL     1      -2.831  11.898  18.686  0.00  0.00    +0.000 A 
ATOM      5  C   UNL     1      -4.120  11.456  18.483  0.00  0.00    +0.000 A 
ATOM      6  C   UNL     1      -5.063  11.831  19.433  0.00  0.00    +0.000 A 
ATOM      7  C   UNL     1      -4.695  12.669  20.518  0.00  0.00    +0.000 A 
ATOM      8  C   UNL     1      -3.370  13.122  20.702  0.00  0.00    +0.000 A 
ATOM      9  C   UNL     1      -1.640  11.262  18.124  0.00  0.00    +0.000 C 
ATOM     10  O   UNL     1      -1.669  10.504  17.172  0.00  0.00    +0.000 OA
ENDROOT
BRANCH   1  15
ATOM     11  C   UNL     1       1.524   8.567  19.653  0.00  0.00    +0.000 A 
ATOM     12  C   UNL     1       1.087   8.148  20.911  0.00  0.00    +0.000 A 
ATOM     13  C   UNL     1       0.150   8.911  21.598  0.00  0.00    +0.000 A 
ATOM     14  C   UNL     1      -0.390  10.044  20.992  0.00  0.00    +0.000 A 
ATOM     15  C   UNL     1       0.014  10.444  19.707  0.00  0.00    +0.000 A 
ATOM     16  C   UNL     1       1.034   9.739  19.077  0.00  0.00    +0.000 A 
BRANCH  11  18
ATOM     17  C   UNL     1       2.866   6.800  18.281  0.00  0.00    +0.000 C 
ATOM     18  C   UNL     1       2.334   7.711  18.847  0.00  0.00    +0.000 C 
BRANCH  17  24
ATOM     19  C   UNL     1       1.500   3.973  18.048  0.00  0.00    +0.000 C 
ATOM     20  N   UNL     1       2.834   4.365  17.681  0.00  0.00    +0.000 N 
ATOM     21  C   UNL     1       3.794   3.525  17.201  0.00  0.00    +0.000 A 
ATOM     22  N   UNL     1       4.900   4.198  16.991  0.00  0.00    +0.000 NA
ATOM     23  N   UNL     1       4.661   5.506  17.344  0.00  0.00    +0.000 NA
ATOM     24  C   UNL     1       3.415   5.600  17.757  0.00  0.00    +0.000 A 
ENDBRANCH  17  24
ENDBRANCH  11  18
ENDBRANCH   1  15
BRANCH   6  25
ATOM     25  C   UNL     1      -6.419  11.226  19.425  0.00  0.00    +0.000 C 
ATOM     26  N   UNL     1      -6.935  10.807  20.617  0.00  0.00    +0.000 N 
ATOM     27  O   UNL     1      -7.053  11.121  18.384  0.00  0.00    +0.000 OA
ATOM     28  H   UNL     1      -6.418  10.763  21.483  0.00  0.00    +0.000 HD
ATOM     29  H   UNL     1      -7.859  10.395  20.598  0.00  0.00    +0.000 HD
ENDBRANCH   6  25
BRANCH   8  30
ATOM     30  C   UNL     1      -3.003  13.919  21.927  0.00  0.00    +0.000 C 
ATOM     31  F   UNL     1      -2.320  15.066  21.647  0.00  0.00    +0.000 F 
ATOM     32  F   UNL     1      -4.094  14.310  22.637  0.00  0.00    +0.000 F 
ATOM     33  F   UNL     1      -2.214  13.222  22.784  0.00  0.00    +0.000 F 
ENDBRANCH   8  30
TORSDOF 5
ENDMDL
MODEL 8
REMARK VINA RESULT:      -8.2      5.837     11.238
REMARK  Name = 
REMARK  6 active torsions:
REMARK  status: ('A' for Active; 'I' for Inactive)
REMARK    1  A    between atoms: C_1  and  N_2
REMARK    2  A    between atoms: C_6  and  C_7
REMARK    3  A    between atoms: C_8  and  C_9
REMARK    4  A    between atoms: C_13  and  N_14
REMARK    5  A    between atoms: C_19  and  C_20
REMARK    6  A    between atoms: C_24  and  C_25
REMARK                            x       y       z     vdW  Elec       q    Type
REMARK                         _______ _______ _______ _____ _____    ______ ____
ROOT
ATOM      1  N   UNL     1      -1.346  12.430  20.763  0.00  0.00    +0.000 N 
ATOM      2  C   UNL     1      -2.103  13.309  21.651  0.00  0.00    +0.000 C 
ATOM      3  C   UNL     1      -3.502  13.056  21.187  0.00  0.00    +0.000 A 
ATOM      4  C   UNL     1      -3.440  12.551  19.884  0.00  0.00    +0.000 A 
ATOM      5  C   UNL     1      -4.516  12.002  19.220  0.00  0.00    +0.000 A 
ATOM      6  C   UNL     1      -5.719  11.956  19.915  0.00  0.00    +0.000 A 
ATOM      7  C   UNL     1      -5.814  12.500  21.223  0.00  0.00    +0.000 A 
ATOM      8  C   UNL     1      -4.703  13.070  21.882  0.00  0.00    +0.000 A 
ATOM      9  C   UNL     1      -2.041  12.277  19.561  0.00  0.00    +0.000 C 
ATOM     10  O   UNL     1      -1.675  11.820  18.495  0.00  0.00    +0.000 OA
ENDROOT
BRANCH   1  15
ATOM     11  C   UNL     1       0.780   9.403  21.036  0.00  0.00    +0.000 A 
ATOM     12  C   UNL     1       0.448   8.922  22.304  0.00  0.00    +0.000 A 
ATOM     13  C   UNL     1      -0.409   9.660  23.112  0.00  0.00    +0.000 A 
ATOM     14  C   UNL     1      -0.979  10.832  22.617  0.00  0.00    +0.000 A 
ATOM     15  C   UNL     1      -0.683  11.296  21.324  0.00  0.00    +0.000 A 
ATOM     16  C   UNL     1       0.263  10.611  20.569  0.00  0.00    +0.000 A 
BRANCH  11  18
ATOM     17  C   UNL     1       2.043   7.697  19.519  0.00  0.00    +0.000 C 
ATOM     18  C   UNL     1       1.498   8.580  20.117  0.00  0.00    +0.000 C 
BRANCH  17  24
ATOM     19  C   UNL     1       2.278   4.834  20.806  0.00  0.00    +0.000 C 
ATOM     20  N   UNL     1       2.813   5.310  19.560  0.00  0.00    +0.000 N 
ATOM     21  C   UNL     1       3.597   4.584  18.714  0.00  0.00    +0.000 A 
ATOM     22  N   UNL     1       3.931   5.323  17.683  0.00  0.00    +0.000 NA
ATOM     23  N   UNL     1       3.359   6.561  17.859  0.00  0.00    +0.000 NA
ATOM     24  C   UNL     1       2.684   6.547  18.990  0.00  0.00    +0.000 A 
ENDBRANCH  17  24
ENDBRANCH  11  18
ENDBRANCH   1  15
BRANCH   6  25
ATOM     25  C   UNL     1      -6.869  11.189  19.374  0.00  0.00    +0.000 C 
ATOM     26  N   UNL     1      -7.698  10.574  20.267  0.00  0.00    +0.000 N 
ATOM     27  O   UNL     1      -7.070  11.123  18.169  0.00  0.00    +0.000 OA
ATOM     28  H   UNL     1      -7.521  10.496  21.257  0.00  0.00    +0.000 HD
ATOM     29  H   UNL     1      -8.478  10.052  19.887  0.00  0.00    +0.000 HD
ENDBRANCH   6  25
BRANCH   8  30
ATOM     30  C   UNL     1      -4.824  13.535  23.310  0.00  0.00    +0.000 C 
ATOM     31  F   UNL     1      -4.104  12.784  24.192  0.00  0.00    +0.000 F 
ATOM     32  F   UNL     1      -4.386  14.811  23.478  0.00  0.00    +0.000 F 
ATOM     33  F   UNL     1      -6.104  13.505  23.761  0.00  0.00    +0.000 F 
ENDBRANCH   8  30
TORSDOF 5
ENDMDL
MODEL 9
REMARK VINA RESULT:      -8.2      5.035     10.680
REMARK  Name = 
REMARK  6 active torsions:
REMARK  status: ('A' for Active; 'I' for Inactive)
REMARK    1  A    between atoms: C_1  and  N_2
REMARK    2  A    between atoms: C_6  and  C_7
REMARK    3  A    between atoms: C_8  and  C_9
REMARK    4  A    between atoms: C_13  and  N_14
REMARK    5  A    between atoms: C_19  and  C_20
REMARK    6  A    between atoms: C_24  and  C_25
REMARK                            x       y       z     vdW  Elec       q    Type
REMARK                         _______ _______ _______ _____ _____    ______ ____
ROOT
ATOM      1  N   UNL     1      -0.327  11.486  18.557  0.00  0.00    +0.000 N 
ATOM      2  C   UNL     1      -0.389  12.759  19.270  0.00  0.00    +0.000 C 
ATOM      3  C   UNL     1      -1.853  12.859  19.559  0.00  0.00    +0.000 A 
ATOM      4  C   UNL     1      -2.530  12.044  18.647  0.00  0.00    +0.000 A 
ATOM      5  C   UNL     1      -3.865  11.718  18.748  0.00  0.00    +0.000 A 
ATOM      6  C   UNL     1      -4.552  12.242  19.838  0.00  0.00    +0.000 A 
ATOM      7  C   UNL     1      -3.895  13.106  20.753  0.00  0.00    +0.000 A 
ATOM      8  C   UNL     1      -2.529  13.438  20.624  0.00  0.00    +0.000 A 
ATOM      9  C   UNL     1      -1.541  11.261  17.906  0.00  0.00    +0.000 C 
ATOM     10  O   UNL     1      -1.833  10.451  17.046  0.00  0.00    +0.000 OA
ENDROOT
BRANCH   1  15
ATOM     11  C   UNL     1       1.891   8.550  19.024  0.00  0.00    +0.000 A 
ATOM     12  C   UNL     1       1.483   8.066  20.269  0.00  0.00    +0.000 A 
ATOM     13  C   UNL     1       0.537   8.775  21.001  0.00  0.00    +0.000 A 
ATOM     14  C   UNL     1      -0.039   9.920  20.452  0.00  0.00    +0.000 A 
ATOM     15  C   UNL     1       0.336  10.385  19.179  0.00  0.00    +0.000 A 
ATOM     16  C   UNL     1       1.363   9.732  18.506  0.00  0.00    +0.000 A 
BRANCH  11  18
ATOM     17  C   UNL     1       3.586   7.136  17.633  0.00  0.00    +0.000 C 
ATOM     18  C   UNL     1       2.709   7.750  18.171  0.00  0.00    +0.000 C 
BRANCH  17  24
ATOM     19  C   UNL     1       5.593   5.199  19.091  0.00  0.00    +0.000 C 
ATOM     20  N   UNL     1       5.643   5.707  17.747  0.00  0.00    +0.000 N 
ATOM     21  C   UNL     1       6.646   5.468  16.855  0.00  0.00    +0.000 A 
ATOM     22  N   UNL     1       6.392   6.097  15.732  0.00  0.00    +0.000 NA
ATOM     23  N   UNL     1       5.201   6.766  15.893  0.00  0.00    +0.000 NA
ATOM     24  C   UNL     1       4.754   6.525  17.107  0.00  0.00    +0.000 A 
ENDBRANCH  17  24
ENDBRANCH  11  18
ENDBRANCH   1  15
BRANCH   6  25
ATOM     25  C   UNL     1      -5.924  11.774  20.156  0.00  0.00    +0.000 C 
ATOM     26  N   UNL     1      -6.365  11.923  21.439  0.00  0.00    +0.000 N 
ATOM     27  O   UNL     1      -6.636  11.282  19.290  0.00  0.00    +0.000 OA
ATOM     28  H   UNL     1      -5.788  12.213  22.214  0.00  0.00    +0.000 HD
ATOM     29  H   UNL     1      -7.302  11.599  21.644  0.00  0.00    +0.000 HD
ENDBRANCH   6  25
BRANCH   8  30
ATOM     30  C   UNL     1      -1.846  14.269  21.679  0.00  0.00    +0.000 C 
ATOM     31  F   UNL     1      -2.707  14.806  22.591  0.00  0.00    +0.000 F 
ATOM     32  F   UNL     1      -0.950  13.551  22.406  0.00  0.00    +0.000 F 
ATOM     33  F   UNL     1      -1.165  15.320  21.155  0.00  0.00    +0.000 F 
ENDBRANCH   8  30
TORSDOF 5
ENDMDL
