MODEL 1
REMARK VINA RESULT:      -9.1      0.000      0.000
REMARK  Name = 
REMARK  6 active torsions:
REMARK  status: ('A' for Active; 'I' for Inactive)
REMARK    1  A    between atoms: C_1  and  C_2
REMARK    2  A    between atoms: C_5  and  C_6
REMARK    3  A    between atoms: C_7  and  N_8
REMARK    4  A    between atoms: C_9  and  C_11
REMARK    5  A    between atoms: C_11  and  N_12
REMARK    6  A    between atoms: C_14  and  C_15
REMARK                            x       y       z     vdW  Elec       q    Type
REMARK                         _______ _______ _______ _____ _____    ______ ____
ROOT
ATOM      1  N   UNL     1       5.005   5.544  18.322  0.00  0.00    +0.000 N 
ATOM      2  N   UNL     1       4.092   6.569  18.392  0.00  0.00    +0.000 NA
ATOM      3  C   UNL     1       2.995   6.421  19.078  0.00  0.00    +0.000 A 
ATOM      4  C   UNL     1       2.642   5.139  19.739  0.00  0.00    +0.000 A 
ATOM      5  C   UNL     1       1.401   4.881  20.338  0.00  0.00    +0.000 A 
ATOM      6  C   UNL     1       1.160   3.659  20.974  0.00  0.00    +0.000 A 
ATOM      7  C   UNL     1       2.137   2.670  20.980  0.00  0.00    +0.000 A 
ATOM      8  C   UNL     1       3.354   2.897  20.342  0.00  0.00    +0.000 A 
ATOM      9  C   UNL     1       3.602   4.130  19.719  0.00  0.00    +0.000 A 
ATOM     10  C   UNL     1       4.868   4.339  18.996  0.00  0.00    +0.000 A 
ATOM     11  O   UNL     1       5.715   3.446  18.995  0.00  0.00    +0.000 OA
ENDROOT
BRANCH   3  12
ATOM     12  C   UNL     1       2.124   7.632  19.175  0.00  0.00    +0.000 A 
ATOM     13  C   UNL     1       1.870   8.369  18.010  0.00  0.00    +0.000 A 
ATOM     14  C   UNL     1       1.085   9.523  18.064  0.00  0.00    +0.000 A 
ATOM     15  C   UNL     1       0.548   9.943  19.279  0.00  0.00    +0.000 A 
ATOM     16  C   UNL     1       0.826   9.235  20.447  0.00  0.00    +0.000 A 
ATOM     17  C   UNL     1       1.636   8.099  20.401  0.00  0.00    +0.000 A 
ENDBRANCH   3  12
BRANCH   1  18
ATOM     18  C   UNL     1       6.210   5.797  17.520  0.00  0.00    +0.000 C 
BRANCH  18  20
ATOM     19  N   UNL     1       6.512   4.662  15.374  0.00  0.00    +0.000 N 
ATOM     20  C   UNL     1       5.995   5.783  16.000  0.00  0.00    +0.000 C 
ATOM     21  O   UNL     1       5.497   6.754  15.435  0.00  0.00    +0.000 OA
ATOM     22  H   UNL     1       7.240   4.224  15.940  0.00  0.00    +0.000 HD
BRANCH  19  29
ATOM     23  C   UNL     1       4.314   2.679  11.477  0.00  0.00    +0.000 C 
ATOM     24  C   UNL     1       5.440   3.490  12.044  0.00  0.00    +0.000 A 
ATOM     25  C   UNL     1       6.484   3.932  11.231  0.00  0.00    +0.000 A 
ATOM     26  C   UNL     1       7.549   4.647  11.781  0.00  0.00    +0.000 A 
ATOM     27  C   UNL     1       7.606   4.931  13.156  0.00  0.00    +0.000 A 
ATOM     28  C   UNL     1       8.753   5.767  13.652  0.00  0.00    +0.000 C 
ATOM     29  C   UNL     1       6.573   4.457  13.982  0.00  0.00    +0.000 A 
ATOM     30  C   UNL     1       5.483   3.777  13.414  0.00  0.00    +0.000 A 
ENDBRANCH  19  29
ENDBRANCH  18  20
ENDBRANCH   1  18
TORSDOF 4
ENDMDL
MODEL 2
REMARK VINA RESULT:      -8.6      1.257      2.093
REMARK  Name = 
REMARK  6 active torsions:
REMARK  status: ('A' for Active; 'I' for Inactive)
REMARK    1  A    between atoms: C_1  and  C_2
REMARK    2  A    between atoms: C_5  and  C_6
REMARK    3  A    between atoms: C_7  and  N_8
REMARK    4  A    between atoms: C_9  and  C_11
REMARK    5  A    between atoms: C_11  and  N_12
REMARK    6  A    between atoms: C_14  and  C_15
REMARK                            x       y       z     vdW  Elec       q    Type
REMARK                         _______ _______ _______ _____ _____    ______ ____
ROOT
ATOM      1  N   UNL     1       5.207   5.163  19.218  0.00  0.00    +0.000 N 
ATOM      2  N   UNL     1       4.382   6.254  19.084  0.00  0.00    +0.000 NA
ATOM      3  C   UNL     1       3.100   6.132  19.282  0.00  0.00    +0.000 A 
ATOM      4  C   UNL     1       2.466   4.822  19.576  0.00  0.00    +0.000 A 
ATOM      5  C   UNL     1       1.080   4.615  19.625  0.00  0.00    +0.000 A 
ATOM      6  C   UNL     1       0.562   3.357  19.947  0.00  0.00    +0.000 A 
ATOM      7  C   UNL     1       1.419   2.286  20.180  0.00  0.00    +0.000 A 
ATOM      8  C   UNL     1       2.795   2.470  20.082  0.00  0.00    +0.000 A 
ATOM      9  C   UNL     1       3.316   3.737  19.776  0.00  0.00    +0.000 A 
ATOM     10  C   UNL     1       4.771   3.907  19.616  0.00  0.00    +0.000 A 
ATOM     11  O   UNL     1       5.514   2.946  19.807  0.00  0.00    +0.000 OA
ENDROOT
BRANCH   3  12
ATOM     12  C   UNL     1       2.312   7.401  19.214  0.00  0.00    +0.000 A 
ATOM     13  C   UNL     1       2.235   8.077  17.989  0.00  0.00    +0.000 A 
ATOM     14  C   UNL     1       1.532   9.280  17.892  0.00  0.00    +0.000 A 
ATOM     15  C   UNL     1       0.901   9.810  19.014  0.00  0.00    +0.000 A 
ATOM     16  C   UNL     1       1.002   9.161  20.244  0.00  0.00    +0.000 A 
ATOM     17  C   UNL     1       1.731   7.974  20.351  0.00  0.00    +0.000 A 
ENDBRANCH   3  12
BRANCH   1  18
ATOM     18  C   UNL     1       6.636   5.392  18.968  0.00  0.00    +0.000 C 
BRANCH  18  20
ATOM     19  N   UNL     1       6.291   5.299  16.548  0.00  0.00    +0.000 N 
ATOM     20  C   UNL     1       7.136   4.948  17.586  0.00  0.00    +0.000 C 
ATOM     21  O   UNL     1       8.146   4.256  17.484  0.00  0.00    +0.000 OA
ATOM     22  H   UNL     1       5.340   5.464  16.883  0.00  0.00    +0.000 HD
BRANCH  19  29
ATOM     23  C   UNL     1       8.723   6.017  12.362  0.00  0.00    +0.000 C 
ATOM     24  C   UNL     1       7.688   5.255  13.133  0.00  0.00    +0.000 A 
ATOM     25  C   UNL     1       6.906   4.282  12.513  0.00  0.00    +0.000 A 
ATOM     26  C   UNL     1       5.915   3.611  13.232  0.00  0.00    +0.000 A 
ATOM     27  C   UNL     1       5.673   3.901  14.586  0.00  0.00    +0.000 A 
ATOM     28  C   UNL     1       4.635   3.082  15.303  0.00  0.00    +0.000 C 
ATOM     29  C   UNL     1       6.437   4.905  15.204  0.00  0.00    +0.000 A 
ATOM     30  C   UNL     1       7.462   5.543  14.485  0.00  0.00    +0.000 A 
ENDBRANCH  19  29
ENDBRANCH  18  20
ENDBRANCH   1  18
TORSDOF 4
ENDMDL
MODEL 3
REMARK VINA RESULT:      -8.3      2.519      7.690
REMARK  Name = 
REMARK  6 active torsions:
REMARK  status: ('A' for Active; 'I' for Inactive)
REMARK    1  A    between atoms: C_1  and  C_2
REMARK    2  A    between atoms: C_5  and  C_6
REMARK    3  A    between atoms: C_7  and  N_8
REMARK    4  A    between atoms: C_9  and  C_11
REMARK    5  A    between atoms: C_11  and  N_12
REMARK    6  A    between atoms: C_14  and  C_15
REMARK                            x       y       z     vdW  Elec       q    Type
REMARK                         _______ _______ _______ _____ _____    ______ ____
ROOT
ATOM      1  N   UNL     1       2.684   6.420  19.428  0.00  0.00    +0.000 N 
ATOM      2  N   UNL     1       3.738   6.213  18.572  0.00  0.00    +0.000 NA
ATOM      3  C   UNL     1       3.972   5.022  18.098  0.00  0.00    +0.000 A 
ATOM      4  C   UNL     1       3.179   3.837  18.513  0.00  0.00    +0.000 A 
ATOM      5  C   UNL     1       3.501   2.517  18.165  0.00  0.00    +0.000 A 
ATOM      6  C   UNL     1       2.681   1.457  18.564  0.00  0.00    +0.000 A 
ATOM      7  C   UNL     1       1.558   1.700  19.348  0.00  0.00    +0.000 A 
ATOM      8  C   UNL     1       1.259   3.001  19.743  0.00  0.00    +0.000 A 
ATOM      9  C   UNL     1       2.073   4.067  19.327  0.00  0.00    +0.000 A 
ATOM     10  C   UNL     1       1.782   5.432  19.798  0.00  0.00    +0.000 A 
ATOM     11  O   UNL     1       0.796   5.627  20.507  0.00  0.00    +0.000 OA
ENDROOT
BRANCH   3  12
ATOM     12  C   UNL     1       5.076   4.929  17.094  0.00  0.00    +0.000 A 
ATOM     13  C   UNL     1       6.388   4.755  17.556  0.00  0.00    +0.000 A 
ATOM     14  C   UNL     1       7.450   4.694  16.652  0.00  0.00    +0.000 A 
ATOM     15  C   UNL     1       7.207   4.801  15.284  0.00  0.00    +0.000 A 
ATOM     16  C   UNL     1       5.910   5.010  14.820  0.00  0.00    +0.000 A 
ATOM     17  C   UNL     1       4.850   5.104  15.724  0.00  0.00    +0.000 A 
ENDBRANCH   3  12
BRANCH   1  18
ATOM     18  C   UNL     1       2.502   7.792  19.918  0.00  0.00    +0.000 C 
BRANCH  18  20
ATOM     19  N   UNL     1       0.875   9.600  19.649  0.00  0.00    +0.000 N 
ATOM     20  C   UNL     1       1.708   8.717  18.985  0.00  0.00    +0.000 C 
ATOM     21  O   UNL     1       1.769   8.569  17.766  0.00  0.00    +0.000 OA
ATOM     22  H   UNL     1       0.654   9.266  20.588  0.00  0.00    +0.000 HD
BRANCH  19  29
ATOM     23  C   UNL     1      -3.523   9.956  17.531  0.00  0.00    +0.000 C 
ATOM     24  C   UNL     1      -2.273  10.623  18.018  0.00  0.00    +0.000 A 
ATOM     25  C   UNL     1      -2.059  11.985  17.805  0.00  0.00    +0.000 A 
ATOM     26  C   UNL     1      -0.870  12.585  18.224  0.00  0.00    +0.000 A 
ATOM     27  C   UNL     1       0.141  11.840  18.856  0.00  0.00    +0.000 A 
ATOM     28  C   UNL     1       1.358  12.578  19.338  0.00  0.00    +0.000 C 
ATOM     29  C   UNL     1      -0.058  10.462  19.040  0.00  0.00    +0.000 A 
ATOM     30  C   UNL     1      -1.276   9.875  18.656  0.00  0.00    +0.000 A 
ENDBRANCH  19  29
ENDBRANCH  18  20
ENDBRANCH   1  18
TORSDOF 4
ENDMDL
MODEL 4
REMARK VINA RESULT:      -8.2      2.564      7.722
REMARK  Name = 
REMARK  6 active torsions:
REMARK  status: ('A' for Active; 'I' for Inactive)
REMARK    1  A    between atoms: C_1  and  C_2
REMARK    2  A    between atoms: C_5  and  C_6
REMARK    3  A    between atoms: C_7  and  N_8
REMARK    4  A    between atoms: C_9  and  C_11
REMARK    5  A    between atoms: C_11  and  N_12
REMARK    6  A    between atoms: C_14  and  C_15
REMARK                            x       y       z     vdW  Elec       q    Type
REMARK                         _______ _______ _______ _____ _____    ______ ____
ROOT
ATOM      1  N   UNL     1       2.644   6.577  19.433  0.00  0.00    +0.000 N 
ATOM      2  N   UNL     1       3.713   6.347  18.600  0.00  0.00    +0.000 NA
ATOM      3  C   UNL     1       3.948   5.146  18.154  0.00  0.00    +0.000 A 
ATOM      4  C   UNL     1       3.141   3.974  18.577  0.00  0.00    +0.000 A 
ATOM      5  C   UNL     1       3.461   2.646  18.260  0.00  0.00    +0.000 A 
ATOM      6  C   UNL     1       2.627   1.598  18.664  0.00  0.00    +0.000 A 
ATOM      7  C   UNL     1       1.491   1.863  19.422  0.00  0.00    +0.000 A 
ATOM      8  C   UNL     1       1.193   3.173  19.786  0.00  0.00    +0.000 A 
ATOM      9  C   UNL     1       2.021   4.226  19.365  0.00  0.00    +0.000 A 
ATOM     10  C   UNL     1       1.730   5.602  19.805  0.00  0.00    +0.000 A 
ATOM     11  O   UNL     1       0.731   5.816  20.491  0.00  0.00    +0.000 OA
ENDROOT
BRANCH   3  12
ATOM     12  C   UNL     1       5.071   5.028  17.173  0.00  0.00    +0.000 A 
ATOM     13  C   UNL     1       4.775   5.096  15.805  0.00  0.00    +0.000 A 
ATOM     14  C   UNL     1       5.792   4.960  14.858  0.00  0.00    +0.000 A 
ATOM     15  C   UNL     1       7.107   4.760  15.272  0.00  0.00    +0.000 A 
ATOM     16  C   UNL     1       7.403   4.656  16.630  0.00  0.00    +0.000 A 
ATOM     17  C   UNL     1       6.383   4.760  17.578  0.00  0.00    +0.000 A 
ENDBRANCH   3  12
BRANCH   1  18
ATOM     18  C   UNL     1       2.461   7.960  19.892  0.00  0.00    +0.000 C 
BRANCH  18  20
ATOM     19  N   UNL     1       0.583   9.511  19.664  0.00  0.00    +0.000 N 
ATOM     20  C   UNL     1       1.584   8.836  18.988  0.00  0.00    +0.000 C 
ATOM     21  O   UNL     1       1.737   8.818  17.768  0.00  0.00    +0.000 OA
ATOM     22  H   UNL     1       0.366   9.058  20.553  0.00  0.00    +0.000 HD
BRANCH  19  29
ATOM     23  C   UNL     1      -2.594   9.815  15.955  0.00  0.00    +0.000 C 
ATOM     24  C   UNL     1      -2.043  10.387  17.225  0.00  0.00    +0.000 A 
ATOM     25  C   UNL     1      -2.491  11.615  17.710  0.00  0.00    +0.000 A 
ATOM     26  C   UNL     1      -1.937  12.157  18.872  0.00  0.00    +0.000 A 
ATOM     27  C   UNL     1      -0.916  11.493  19.573  0.00  0.00    +0.000 A 
ATOM     28  C   UNL     1      -0.426  12.114  20.852  0.00  0.00    +0.000 C 
ATOM     29  C   UNL     1      -0.440  10.273  19.067  0.00  0.00    +0.000 A 
ATOM     30  C   UNL     1      -1.034   9.713  17.923  0.00  0.00    +0.000 A 
ENDBRANCH  19  29
ENDBRANCH  18  20
ENDBRANCH   1  18
TORSDOF 4
ENDMDL
MODEL 5
REMARK VINA RESULT:      -8.2      4.813      8.550
REMARK  Name = 
REMARK  6 active torsions:
REMARK  status: ('A' for Active; 'I' for Inactive)
REMARK    1  A    between atoms: C_1  and  C_2
REMARK    2  A    between atoms: C_5  and  C_6
REMARK    3  A    between atoms: C_7  and  N_8
REMARK    4  A    between atoms: C_9  and  C_11
REMARK    5  A    between atoms: C_11  and  N_12
REMARK    6  A    between atoms: C_14  and  C_15
REMARK                            x       y       z     vdW  Elec       q    Type
REMARK                         _______ _______ _______ _____ _____    ______ ____
ROOT
ATOM      1  N   UNL     1       0.638  10.639  21.704  0.00  0.00    +0.000 N 
ATOM      2  N   UNL     1      -0.197  11.298  22.575  0.00  0.00    +0.000 NA
ATOM      3  C   UNL     1      -0.797  12.392  22.203  0.00  0.00    +0.000 A 
ATOM      4  C   UNL     1      -0.555  13.016  20.879  0.00  0.00    +0.000 A 
ATOM      5  C   UNL     1      -1.043  14.277  20.504  0.00  0.00    +0.000 A 
ATOM      6  C   UNL     1      -0.802  14.779  19.221  0.00  0.00    +0.000 A 
ATOM      7  C   UNL     1      -0.037  14.049  18.318  0.00  0.00    +0.000 A 
ATOM      8  C   UNL     1       0.496  12.820  18.698  0.00  0.00    +0.000 A 
ATOM      9  C   UNL     1       0.239  12.308  19.980  0.00  0.00    +0.000 A 
ATOM     10  C   UNL     1       0.856  11.036  20.392  0.00  0.00    +0.000 A 
ATOM     11  O   UNL     1       1.545  10.411  19.587  0.00  0.00    +0.000 OA
ENDROOT
BRANCH   3  12
ATOM     12  C   UNL     1      -1.763  12.967  23.190  0.00  0.00    +0.000 A 
ATOM     13  C   UNL     1      -2.989  12.316  23.385  0.00  0.00    +0.000 A 
ATOM     14  C   UNL     1      -3.929  12.839  24.276  0.00  0.00    +0.000 A 
ATOM     15  C   UNL     1      -3.648  14.009  24.977  0.00  0.00    +0.000 A 
ATOM     16  C   UNL     1      -2.446  14.681  24.761  0.00  0.00    +0.000 A 
ATOM     17  C   UNL     1      -1.517  14.178  23.848  0.00  0.00    +0.000 A 
ENDBRANCH   3  12
BRANCH   1  18
ATOM     18  C   UNL     1       1.278   9.419  22.212  0.00  0.00    +0.000 C 
BRANCH  18  20
ATOM     19  N   UNL     1       2.058   7.504  20.903  0.00  0.00    +0.000 N 
ATOM     20  C   UNL     1       0.947   8.138  21.433  0.00  0.00    +0.000 C 
ATOM     21  O   UNL     1      -0.223   7.812  21.242  0.00  0.00    +0.000 OA
ATOM     22  H   UNL     1       2.842   8.150  20.804  0.00  0.00    +0.000 HD
BRANCH  19  29
ATOM     23  C   UNL     1       1.154   2.710  20.504  0.00  0.00    +0.000 C 
ATOM     24  C   UNL     1       1.540   4.004  19.854  0.00  0.00    +0.000 A 
ATOM     25  C   UNL     1       1.902   4.049  18.508  0.00  0.00    +0.000 A 
ATOM     26  C   UNL     1       2.302   5.253  17.926  0.00  0.00    +0.000 A 
ATOM     27  C   UNL     1       2.362   6.442  18.675  0.00  0.00    +0.000 A 
ATOM     28  C   UNL     1       2.736   7.706  17.953  0.00  0.00    +0.000 C 
ATOM     29  C   UNL     1       2.031   6.392  20.039  0.00  0.00    +0.000 A 
ATOM     30  C   UNL     1       1.586   5.185  20.605  0.00  0.00    +0.000 A 
ENDBRANCH  19  29
ENDBRANCH  18  20
ENDBRANCH   1  18
TORSDOF 4
ENDMDL
MODEL 6
REMARK VINA RESULT:      -8.2      0.948      1.305
REMARK  Name = 
REMARK  6 active torsions:
REMARK  status: ('A' for Active; 'I' for Inactive)
REMARK    1  A    between atoms: C_1  and  C_2
REMARK    2  A    between atoms: C_5  and  C_6
REMARK    3  A    between atoms: C_7  and  N_8
REMARK    4  A    between atoms: C_9  and  C_11
REMARK    5  A    between atoms: C_11  and  N_12
REMARK    6  A    between atoms: C_14  and  C_15
REMARK                            x       y       z     vdW  Elec       q    Type
REMARK                         _______ _______ _______ _____ _____    ______ ____
ROOT
ATOM      1  N   UNL     1       5.364   5.532  18.384  0.00  0.00    +0.000 N 
ATOM      2  N   UNL     1       4.467   6.573  18.408  0.00  0.00    +0.000 NA
ATOM      3  C   UNL     1       3.240   6.370  18.794  0.00  0.00    +0.000 A 
ATOM      4  C   UNL     1       2.734   5.019  19.143  0.00  0.00    +0.000 A 
ATOM      5  C   UNL     1       1.385   4.727  19.395  0.00  0.00    +0.000 A 
ATOM      6  C   UNL     1       0.995   3.433  19.756  0.00  0.00    +0.000 A 
ATOM      7  C   UNL     1       1.937   2.413  19.825  0.00  0.00    +0.000 A 
ATOM      8  C   UNL     1       3.270   2.681  19.525  0.00  0.00    +0.000 A 
ATOM      9  C   UNL     1       3.665   3.984  19.180  0.00  0.00    +0.000 A 
ATOM     10  C   UNL     1       5.065   4.245  18.807  0.00  0.00    +0.000 A 
ATOM     11  O   UNL     1       5.883   3.327  18.856  0.00  0.00    +0.000 OA
ENDROOT
BRANCH   3  12
ATOM     12  C   UNL     1       2.379   7.590  18.883  0.00  0.00    +0.000 A 
ATOM     13  C   UNL     1       1.849   7.947  20.130  0.00  0.00    +0.000 A 
ATOM     14  C   UNL     1       1.017   9.061  20.248  0.00  0.00    +0.000 A 
ATOM     15  C   UNL     1       0.714   9.827  19.124  0.00  0.00    +0.000 A 
ATOM     16  C   UNL     1       1.209   9.457  17.875  0.00  0.00    +0.000 A 
ATOM     17  C   UNL     1       2.015   8.325  17.748  0.00  0.00    +0.000 A 
ENDBRANCH   3  12
BRANCH   1  18
ATOM     18  C   UNL     1       6.723   5.852  17.928  0.00  0.00    +0.000 C 
BRANCH  18  20
ATOM     19  N   UNL     1       6.484   5.574  15.509  0.00  0.00    +0.000 N 
ATOM     20  C   UNL     1       7.160   5.145  16.638  0.00  0.00    +0.000 C 
ATOM     21  O   UNL     1       7.966   4.217  16.681  0.00  0.00    +0.000 OA
ATOM     22  H   UNL     1       5.592   6.006  15.752  0.00  0.00    +0.000 HD
BRANCH  19  29
ATOM     23  C   UNL     1       4.278   2.849  12.095  0.00  0.00    +0.000 C 
ATOM     24  C   UNL     1       5.456   3.672  12.519  0.00  0.00    +0.000 A 
ATOM     25  C   UNL     1       6.580   3.786  11.702  0.00  0.00    +0.000 A 
ATOM     26  C   UNL     1       7.689   4.520  12.129  0.00  0.00    +0.000 A 
ATOM     27  C   UNL     1       7.709   5.148  13.386  0.00  0.00    +0.000 A 
ATOM     28  C   UNL     1       8.914   5.976  13.737  0.00  0.00    +0.000 C 
ATOM     29  C   UNL     1       6.591   5.006  14.225  0.00  0.00    +0.000 A 
ATOM     30  C   UNL     1       5.462   4.304  13.769  0.00  0.00    +0.000 A 
ENDBRANCH  19  29
ENDBRANCH  18  20
ENDBRANCH   1  18
TORSDOF 4
ENDMDL
MODEL 7
REMARK VINA RESULT:      -8.2      2.140      7.630
REMARK  Name = 
REMARK  6 active torsions:
REMARK  status: ('A' for Active; 'I' for Inactive)
REMARK    1  A    between atoms: C_1  and  C_2
REMARK    2  A    between atoms: C_5  and  C_6
REMARK    3  A    between atoms: C_7  and  N_8
REMARK    4  A    between atoms: C_9  and  C_11
REMARK    5  A    between atoms: C_11  and  N_12
REMARK    6  A    between atoms: C_14  and  C_15
REMARK                            x       y       z     vdW  Elec       q    Type
REMARK                         _______ _______ _______ _____ _____    ______ ____
ROOT
ATOM      1  N   UNL     1       4.342   4.775  18.512  0.00  0.00    +0.000 N 
ATOM      2  N   UNL     1       5.294   5.755  18.656  0.00  0.00    +0.000 NA
ATOM      3  C   UNL     1       6.096   6.038  17.669  0.00  0.00    +0.000 A 
ATOM      4  C   UNL     1       6.077   5.278  16.393  0.00  0.00    +0.000 A 
ATOM      5  C   UNL     1       7.030   5.432  15.375  0.00  0.00    +0.000 A 
ATOM      6  C   UNL     1       6.920   4.705  14.185  0.00  0.00    +0.000 A 
ATOM      7  C   UNL     1       5.886   3.790  14.019  0.00  0.00    +0.000 A 
ATOM      8  C   UNL     1       4.967   3.591  15.045  0.00  0.00    +0.000 A 
ATOM      9  C   UNL     1       5.067   4.334  16.232  0.00  0.00    +0.000 A 
ATOM     10  C   UNL     1       4.124   4.075  17.334  0.00  0.00    +0.000 A 
ATOM     11  O   UNL     1       3.227   3.248  17.177  0.00  0.00    +0.000 OA
ENDROOT
BRANCH   3  12
ATOM     12  C   UNL     1       7.022   7.190  17.896  0.00  0.00    +0.000 A 
ATOM     13  C   UNL     1       8.051   7.047  18.837  0.00  0.00    +0.000 A 
ATOM     14  C   UNL     1       8.918   8.109  19.098  0.00  0.00    +0.000 A 
ATOM     15  C   UNL     1       8.764   9.317  18.421  0.00  0.00    +0.000 A 
ATOM     16  C   UNL     1       7.721   9.478  17.510  0.00  0.00    +0.000 A 
ATOM     17  C   UNL     1       6.833   8.427  17.270  0.00  0.00    +0.000 A 
ENDBRANCH   3  12
BRANCH   1  18
ATOM     18  C   UNL     1       3.488   4.519  19.680  0.00  0.00    +0.000 C 
BRANCH  18  20
ATOM     19  N   UNL     1       2.690   6.831  19.746  0.00  0.00    +0.000 N 
ATOM     20  C   UNL     1       2.323   5.502  19.863  0.00  0.00    +0.000 C 
ATOM     21  O   UNL     1       1.211   5.092  20.188  0.00  0.00    +0.000 OA
ATOM     22  H   UNL     1       3.690   6.956  19.913  0.00  0.00    +0.000 HD
BRANCH  19  29
ATOM     23  C   UNL     1       0.088   9.250  23.112  0.00  0.00    +0.000 C 
ATOM     24  C   UNL     1       0.591   9.149  21.703  0.00  0.00    +0.000 A 
ATOM     25  C   UNL     1       0.186  10.064  20.732  0.00  0.00    +0.000 A 
ATOM     26  C   UNL     1       0.627   9.933  19.414  0.00  0.00    +0.000 A 
ATOM     27  C   UNL     1       1.475   8.879  19.029  0.00  0.00    +0.000 A 
ATOM     28  C   UNL     1       1.958   8.852  17.605  0.00  0.00    +0.000 C 
ATOM     29  C   UNL     1       1.856   7.937  19.998  0.00  0.00    +0.000 A 
ATOM     30  C   UNL     1       1.444   8.103  21.332  0.00  0.00    +0.000 A 
ENDBRANCH  19  29
ENDBRANCH  18  20
ENDBRANCH   1  18
TORSDOF 4
ENDMDL
MODEL 8
REMARK VINA RESULT:      -8.1      2.700      7.788
REMARK  Name = 
REMARK  6 active torsions:
REMARK  status: ('A' for Active; 'I' for Inactive)
REMARK    1  A    between atoms: C_1  and  C_2
REMARK    2  A    between atoms: C_5  and  C_6
REMARK    3  A    between atoms: C_7  and  N_8
REMARK    4  A    between atoms: C_9  and  C_11
REMARK    5  A    between atoms: C_11  and  N_12
REMARK    6  A    between atoms: C_14  and  C_15
REMARK                            x       y       z     vdW  Elec       q    Type
REMARK                         _______ _______ _______ _____ _____    ______ ____
ROOT
ATOM      1  N   UNL     1       2.593   7.154  19.367  0.00  0.00    +0.000 N 
ATOM      2  N   UNL     1       3.590   6.692  18.543  0.00  0.00    +0.000 NA
ATOM      3  C   UNL     1       3.755   5.412  18.370  0.00  0.00    +0.000 A 
ATOM      4  C   UNL     1       2.945   4.404  19.101  0.00  0.00    +0.000 A 
ATOM      5  C   UNL     1       3.201   3.026  19.078  0.00  0.00    +0.000 A 
ATOM      6  C   UNL     1       2.367   2.137  19.763  0.00  0.00    +0.000 A 
ATOM      7  C   UNL     1       1.298   2.619  20.512  0.00  0.00    +0.000 A 
ATOM      8  C   UNL     1       1.067   3.990  20.584  0.00  0.00    +0.000 A 
ATOM      9  C   UNL     1       1.895   4.880  19.881  0.00  0.00    +0.000 A 
ATOM     10  C   UNL     1       1.678   6.332  20.011  0.00  0.00    +0.000 A 
ATOM     11  O   UNL     1       0.739   6.742  20.692  0.00  0.00    +0.000 OA
ENDROOT
BRANCH   3  12
ATOM     12  C   UNL     1       4.799   5.022  17.373  0.00  0.00    +0.000 A 
ATOM     13  C   UNL     1       6.146   5.069  17.760  0.00  0.00    +0.000 A 
ATOM     14  C   UNL     1       7.151   4.741  16.849  0.00  0.00    +0.000 A 
ATOM     15  C   UNL     1       6.818   4.361  15.550  0.00  0.00    +0.000 A 
ATOM     16  C   UNL     1       5.483   4.347  15.148  0.00  0.00    +0.000 A 
ATOM     17  C   UNL     1       4.478   4.705  16.048  0.00  0.00    +0.000 A 
ENDBRANCH   3  12
BRANCH   1  18
ATOM     18  C   UNL     1       2.486   8.612  19.508  0.00  0.00    +0.000 C 
BRANCH  18  20
ATOM     19  N   UNL     1       0.352   9.793  19.313  0.00  0.00    +0.000 N 
ATOM     20  C   UNL     1       1.430   9.277  18.615  0.00  0.00    +0.000 C 
ATOM     21  O   UNL     1       1.535   9.232  17.391  0.00  0.00    +0.000 OA
ATOM     22  H   UNL     1       0.255   9.348  20.227  0.00  0.00    +0.000 HD
BRANCH  19  29
ATOM     23  C   UNL     1      -2.709   9.664  15.497  0.00  0.00    +0.000 C 
ATOM     24  C   UNL     1      -2.350  10.228  16.839  0.00  0.00    +0.000 A 
ATOM     25  C   UNL     1      -3.103  11.254  17.409  0.00  0.00    +0.000 A 
ATOM     26  C   UNL     1      -2.731  11.800  18.639  0.00  0.00    +0.000 A 
ATOM     27  C   UNL     1      -1.593  11.343  19.326  0.00  0.00    +0.000 A 
ATOM     28  C   UNL     1      -1.305  11.937  20.677  0.00  0.00    +0.000 C 
ATOM     29  C   UNL     1      -0.814  10.333  18.738  0.00  0.00    +0.000 A 
ATOM     30  C   UNL     1      -1.221   9.759  17.521  0.00  0.00    +0.000 A 
ENDBRANCH  19  29
ENDBRANCH  18  20
ENDBRANCH   1  18
TORSDOF 4
ENDMDL
MODEL 9
REMARK VINA RESULT:      -8.0      4.929      8.372
REMARK  Name = 
REMARK  6 active torsions:
REMARK  status: ('A' for Active; 'I' for Inactive)
REMARK    1  A    between atoms: C_1  and  C_2
REMARK    2  A    between atoms: C_5  and  C_6
REMARK    3  A    between atoms: C_7  and  N_8
REMARK    4  A    between atoms: C_9  and  C_11
REMARK    5  A    between atoms: C_11  and  N_12
REMARK    6  A    between atoms: C_14  and  C_15
REMARK                            x       y       z     vdW  Elec       q    Type
REMARK                         _______ _______ _______ _____ _____    ______ ____
ROOT
ATOM      1  N   UNL     1       0.574  10.640  22.035  0.00  0.00    +0.000 N 
ATOM      2  N   UNL     1       1.251  11.508  21.213  0.00  0.00    +0.000 NA
ATOM      3  C   UNL     1       0.714  12.647  20.882  0.00  0.00    +0.000 A 
ATOM      4  C   UNL     1      -0.661  13.025  21.298  0.00  0.00    +0.000 A 
ATOM      5  C   UNL     1      -1.341  14.157  20.825  0.00  0.00    +0.000 A 
ATOM      6  C   UNL     1      -2.621  14.464  21.296  0.00  0.00    +0.000 A 
ATOM      7  C   UNL     1      -3.250  13.623  22.208  0.00  0.00    +0.000 A 
ATOM      8  C   UNL     1      -2.605  12.468  22.643  0.00  0.00    +0.000 A 
ATOM      9  C   UNL     1      -1.312  12.170  22.184  0.00  0.00    +0.000 A 
ATOM     10  C   UNL     1      -0.661  10.917  22.604  0.00  0.00    +0.000 A 
ATOM     11  O   UNL     1      -1.239  10.175  23.397  0.00  0.00    +0.000 OA
ENDROOT
BRANCH   3  12
ATOM     12  C   UNL     1       1.578  13.560  20.072  0.00  0.00    +0.000 A 
ATOM     13  C   UNL     1       1.933  13.169  18.773  0.00  0.00    +0.000 A 
ATOM     14  C   UNL     1       2.763  13.980  17.996  0.00  0.00    +0.000 A 
ATOM     15  C   UNL     1       3.239  15.184  18.510  0.00  0.00    +0.000 A 
ATOM     16  C   UNL     1       2.919  15.562  19.813  0.00  0.00    +0.000 A 
ATOM     17  C   UNL     1       2.115  14.738  20.603  0.00  0.00    +0.000 A 
ENDBRANCH   3  12
BRANCH   1  18
ATOM     18  C   UNL     1       1.253   9.376  22.349  0.00  0.00    +0.000 C 
BRANCH  18  20
ATOM     19  N   UNL     1       2.006   7.457  21.031  0.00  0.00    +0.000 N 
ATOM     20  C   UNL     1       0.907   8.202  21.422  0.00  0.00    +0.000 C 
ATOM     21  O   UNL     1      -0.242   8.052  21.013  0.00  0.00    +0.000 OA
ATOM     22  H   UNL     1       2.869   7.995  21.118  0.00  0.00    +0.000 HD
BRANCH  19  29
ATOM     23  C   UNL     1       1.184   2.693  20.269  0.00  0.00    +0.000 C 
ATOM     24  C   UNL     1       1.544   4.040  19.718  0.00  0.00    +0.000 A 
ATOM     25  C   UNL     1       1.897   4.194  18.378  0.00  0.00    +0.000 A 
ATOM     26  C   UNL     1       2.273   5.446  17.889  0.00  0.00    +0.000 A 
ATOM     27  C   UNL     1       2.316   6.575  18.727  0.00  0.00    +0.000 A 
ATOM     28  C   UNL     1       2.664   7.898  18.103  0.00  0.00    +0.000 C 
ATOM     29  C   UNL     1       1.994   6.415  20.084  0.00  0.00    +0.000 A 
ATOM     30  C   UNL     1       1.573   5.160  20.558  0.00  0.00    +0.000 A 
ENDBRANCH  19  29
ENDBRANCH  18  20
ENDBRANCH   1  18
TORSDOF 4
ENDMDL
