MODEL 1
REMARK VINA RESULT:      -8.2      0.000      0.000
REMARK  Name = 
REMARK  5 active torsions:
REMARK  status: ('A' for Active; 'I' for Inactive)
REMARK    1  A    between atoms: C_2  and  C_15
REMARK    2  A    between atoms: N_3  and  C_4
REMARK    3  A    between atoms: C_8  and  C_9
REMARK    4  A    between atoms: C_19  and  C_20
REMARK    5  A    between atoms: C_20  and  N_21
REMARK                            x       y       z     vdW  Elec       q    Type
REMARK                         _______ _______ _______ _____ _____    ______ ____
ROOT
ATOM      1  O   UNL     1       1.764   8.112  20.041  0.00  0.00    +0.000 OA
ATOM      2  C   UNL     1       2.063   8.117  18.851  0.00  0.00    +0.000 C 
ATOM      3  N   UNL     1       1.768   9.110  17.927  0.00  0.00    +0.000 N 
ATOM      4  H   UNL     1       1.909   8.896  16.947  0.00  0.00    +0.000 HD
ENDROOT
BRANCH   3   5
ATOM      5  C   UNL     1       1.070  10.309  18.219  0.00  0.00    +0.000 A 
ATOM      6  C   UNL     1       1.716  11.475  18.636  0.00  0.00    +0.000 A 
ATOM      7  C   UNL     1       0.990  12.611  18.985  0.00  0.00    +0.000 A 
ATOM      8  C   UNL     1      -0.398  12.597  18.914  0.00  0.00    +0.000 A 
ATOM      9  C   UNL     1      -1.074  11.453  18.471  0.00  0.00    +0.000 A 
ATOM     10  C   UNL     1      -0.328  10.317  18.100  0.00  0.00    +0.000 A 
BRANCH   9  11
ATOM     11  C   UNL     1      -2.532  11.431  18.404  0.00  0.00    +0.000 A 
ATOM     12  N   UNL     1      -3.298  10.611  17.710  0.00  0.00    +0.000 NA
ATOM     13  N   UNL     1      -4.616  10.953  17.931  0.00  0.00    +0.000 NA
ATOM     14  C   UNL     1      -4.628  11.955  18.774  0.00  0.00    +0.000 A 
ATOM     15  N   UNL     1      -3.351  12.281  19.105  0.00  0.00    +0.000 N 
ATOM     16  H   UNL     1      -3.056  12.993  19.757  0.00  0.00    +0.000 HD
ENDBRANCH   9  11
ENDBRANCH   3   5
BRANCH   2  17
ATOM     17  C   UNL     1       2.763   6.914  18.334  0.00  0.00    +0.000 A 
ATOM     18  C   UNL     1       3.900   7.117  17.539  0.00  0.00    +0.000 A 
ATOM     19  C   UNL     1       4.565   6.034  16.974  0.00  0.00    +0.000 A 
ATOM     20  C   UNL     1       4.096   4.741  17.197  0.00  0.00    +0.000 A 
ATOM     21  C   UNL     1       2.956   4.519  17.989  0.00  0.00    +0.000 A 
ATOM     22  C   UNL     1       2.288   5.617  18.557  0.00  0.00    +0.000 A 
BRANCH  21  23
ATOM     23  C   UNL     1       2.485   3.111  18.259  0.00  0.00    +0.000 C 
BRANCH  23  24
ATOM     24  N   UNL     1       2.277   2.909  19.680  0.00  0.00    +0.000 N 
ATOM     25  C   UNL     1       1.072   2.867  20.328  0.00  0.00    +0.000 A 
ATOM     26  C   UNL     1       1.393   2.685  21.654  0.00  0.00    +0.000 A 
ATOM     27  N   UNL     1       2.751   2.588  21.817  0.00  0.00    +0.000 NA
ATOM     28  C   UNL     1       3.257   2.720  20.612  0.00  0.00    +0.000 A 
ENDBRANCH  23  24
ENDBRANCH  21  23
ENDBRANCH   2  17
TORSDOF 5
ENDMDL
MODEL 2
REMARK VINA RESULT:      -8.1      1.211      1.338
REMARK  Name = 
REMARK  5 active torsions:
REMARK  status: ('A' for Active; 'I' for Inactive)
REMARK    1  A    between atoms: C_2  and  C_15
REMARK    2  A    between atoms: N_3  and  C_4
REMARK    3  A    between atoms: C_8  and  C_9
REMARK    4  A    between atoms: C_19  and  C_20
REMARK    5  A    between atoms: C_20  and  N_21
REMARK                            x       y       z     vdW  Elec       q    Type
REMARK                         _______ _______ _______ _____ _____    ______ ____
ROOT
ATOM      1  O   UNL     1       2.436   9.162  17.208  0.00  0.00    +0.000 OA
ATOM      2  C   UNL     1       2.216   8.332  18.084  0.00  0.00    +0.000 C 
ATOM      3  N   UNL     1       1.377   8.486  19.179  0.00  0.00    +0.000 N 
ATOM      4  H   UNL     1       1.437   7.796  19.918  0.00  0.00    +0.000 HD
ENDROOT
BRANCH   3   5
ATOM      5  C   UNL     1       0.613   9.648  19.460  0.00  0.00    +0.000 A 
ATOM      6  C   UNL     1       0.917  10.515  20.510  0.00  0.00    +0.000 A 
ATOM      7  C   UNL     1       0.101  11.605  20.801  0.00  0.00    +0.000 A 
ATOM      8  C   UNL     1      -1.034  11.845  20.035  0.00  0.00    +0.000 A 
ATOM      9  C   UNL     1      -1.352  11.009  18.956  0.00  0.00    +0.000 A 
ATOM     10  C   UNL     1      -0.505   9.923  18.660  0.00  0.00    +0.000 A 
BRANCH   9  11
ATOM     11  C   UNL     1      -2.549  11.252  18.156  0.00  0.00    +0.000 A 
ATOM     12  N   UNL     1      -3.699  11.760  18.556  0.00  0.00    +0.000 NA
ATOM     13  N   UNL     1      -4.555  11.802  17.475  0.00  0.00    +0.000 NA
ATOM     14  C   UNL     1      -3.903  11.346  16.435  0.00  0.00    +0.000 A 
ATOM     15  N   UNL     1      -2.644  10.999  16.810  0.00  0.00    +0.000 N 
ATOM     16  H   UNL     1      -1.908  10.647  16.215  0.00  0.00    +0.000 HD
ENDBRANCH   9  11
ENDBRANCH   3   5
BRANCH   2  17
ATOM     17  C   UNL     1       2.966   7.054  17.996  0.00  0.00    +0.000 A 
ATOM     18  C   UNL     1       4.327   7.123  17.665  0.00  0.00    +0.000 A 
ATOM     19  C   UNL     1       5.072   5.959  17.506  0.00  0.00    +0.000 A 
ATOM     20  C   UNL     1       4.461   4.718  17.675  0.00  0.00    +0.000 A 
ATOM     21  C   UNL     1       3.097   4.629  18.004  0.00  0.00    +0.000 A 
ATOM     22  C   UNL     1       2.349   5.809  18.163  0.00  0.00    +0.000 A 
BRANCH  21  23
ATOM     23  C   UNL     1       2.459   3.281  18.228  0.00  0.00    +0.000 C 
BRANCH  23  24
ATOM     24  N   UNL     1       2.278   3.033  19.645  0.00  0.00    +0.000 N 
ATOM     25  C   UNL     1       1.088   2.991  20.319  0.00  0.00    +0.000 A 
ATOM     26  C   UNL     1       1.434   2.757  21.630  0.00  0.00    +0.000 A 
ATOM     27  N   UNL     1       2.793   2.629  21.759  0.00  0.00    +0.000 NA
ATOM     28  C   UNL     1       3.274   2.793  20.548  0.00  0.00    +0.000 A 
ENDBRANCH  23  24
ENDBRANCH  21  23
ENDBRANCH   2  17
TORSDOF 5
ENDMDL
MODEL 3
REMARK VINA RESULT:      -8.0      2.401      3.591
REMARK  Name = 
REMARK  5 active torsions:
REMARK  status: ('A' for Active; 'I' for Inactive)
REMARK    1  A    between atoms: C_2  and  C_15
REMARK    2  A    between atoms: N_3  and  C_4
REMARK    3  A    between atoms: C_8  and  C_9
REMARK    4  A    between atoms: C_19  and  C_20
REMARK    5  A    between atoms: C_20  and  N_21
REMARK                            x       y       z     vdW  Elec       q    Type
REMARK                         _______ _______ _______ _____ _____    ______ ____
ROOT
ATOM      1  O   UNL     1       1.871   7.791  19.825  0.00  0.00    +0.000 OA
ATOM      2  C   UNL     1       2.342   7.894  18.697  0.00  0.00    +0.000 C 
ATOM      3  N   UNL     1       2.248   8.994  17.857  0.00  0.00    +0.000 N 
ATOM      4  H   UNL     1       2.518   8.871  16.888  0.00  0.00    +0.000 HD
ENDROOT
BRANCH   3   5
ATOM      5  C   UNL     1       1.589  10.208  18.179  0.00  0.00    +0.000 A 
ATOM      6  C   UNL     1       0.238  10.264  18.525  0.00  0.00    +0.000 A 
ATOM      7  C   UNL     1      -0.392  11.483  18.763  0.00  0.00    +0.000 A 
ATOM      8  C   UNL     1       0.329  12.668  18.664  0.00  0.00    +0.000 A 
ATOM      9  C   UNL     1       1.694  12.643  18.347  0.00  0.00    +0.000 A 
ATOM     10  C   UNL     1       2.324  11.402  18.130  0.00  0.00    +0.000 A 
BRANCH   9  11
ATOM     11  C   UNL     1       2.452  13.886  18.232  0.00  0.00    +0.000 A 
ATOM     12  N   UNL     1       2.072  15.100  18.581  0.00  0.00    +0.000 NA
ATOM     13  N   UNL     1       3.094  15.978  18.287  0.00  0.00    +0.000 NA
ATOM     14  C   UNL     1       4.085  15.279  17.790  0.00  0.00    +0.000 A 
ATOM     15  N   UNL     1       3.733  13.968  17.745  0.00  0.00    +0.000 N 
ATOM     16  H   UNL     1       4.307  13.196  17.438  0.00  0.00    +0.000 HD
ENDBRANCH   9  11
ENDBRANCH   3   5
BRANCH   2  17
ATOM     17  C   UNL     1       3.034   6.698  18.152  0.00  0.00    +0.000 A 
ATOM     18  C   UNL     1       4.091   6.915  17.257  0.00  0.00    +0.000 A 
ATOM     19  C   UNL     1       4.741   5.837  16.663  0.00  0.00    +0.000 A 
ATOM     20  C   UNL     1       4.337   4.537  16.960  0.00  0.00    +0.000 A 
ATOM     21  C   UNL     1       3.278   4.301  17.853  0.00  0.00    +0.000 A 
ATOM     22  C   UNL     1       2.624   5.394  18.449  0.00  0.00    +0.000 A 
BRANCH  21  23
ATOM     23  C   UNL     1       2.879   2.888  18.199  0.00  0.00    +0.000 C 
BRANCH  23  24
ATOM     24  N   UNL     1       2.501   2.794  19.595  0.00  0.00    +0.000 N 
ATOM     25  C   UNL     1       1.227   2.800  20.096  0.00  0.00    +0.000 A 
ATOM     26  C   UNL     1       1.385   2.720  21.461  0.00  0.00    +0.000 A 
ATOM     27  N   UNL     1       2.713   2.637  21.792  0.00  0.00    +0.000 NA
ATOM     28  C   UNL     1       3.361   2.678  20.650  0.00  0.00    +0.000 A 
ENDBRANCH  23  24
ENDBRANCH  21  23
ENDBRANCH   2  17
TORSDOF 5
ENDMDL
MODEL 4
REMARK VINA RESULT:      -8.0      3.159      9.248
REMARK  Name = 
REMARK  5 active torsions:
REMARK  status: ('A' for Active; 'I' for Inactive)
REMARK    1  A    between atoms: C_2  and  C_15
REMARK    2  A    between atoms: N_3  and  C_4
REMARK    3  A    between atoms: C_8  and  C_9
REMARK    4  A    between atoms: C_19  and  C_20
REMARK    5  A    between atoms: C_20  and  N_21
REMARK                            x       y       z     vdW  Elec       q    Type
REMARK                         _______ _______ _______ _____ _____    ______ ____
ROOT
ATOM      1  O   UNL     1       1.993   8.172  18.985  0.00  0.00    +0.000 OA
ATOM      2  C   UNL     1       1.633   7.916  20.130  0.00  0.00    +0.000 C 
ATOM      3  N   UNL     1       1.752   6.697  20.782  0.00  0.00    +0.000 N 
ATOM      4  H   UNL     1       1.244   6.577  21.650  0.00  0.00    +0.000 HD
ENDROOT
BRANCH   3   5
ATOM      5  C   UNL     1       2.335   5.531  20.224  0.00  0.00    +0.000 A 
ATOM      6  C   UNL     1       1.681   4.297  20.203  0.00  0.00    +0.000 A 
ATOM      7  C   UNL     1       2.315   3.158  19.714  0.00  0.00    +0.000 A 
ATOM      8  C   UNL     1       3.616   3.240  19.232  0.00  0.00    +0.000 A 
ATOM      9  C   UNL     1       4.289   4.469  19.213  0.00  0.00    +0.000 A 
ATOM     10  C   UNL     1       3.629   5.618  19.690  0.00  0.00    +0.000 A 
BRANCH   9  11
ATOM     11  C   UNL     1       5.659   4.557  18.717  0.00  0.00    +0.000 A 
ATOM     12  N   UNL     1       6.743   4.896  19.390  0.00  0.00    +0.000 NA
ATOM     13  N   UNL     1       7.820   4.858  18.529  0.00  0.00    +0.000 NA
ATOM     14  C   UNL     1       7.377   4.473  17.358  0.00  0.00    +0.000 A 
ATOM     15  N   UNL     1       6.036   4.264  17.430  0.00  0.00    +0.000 N 
ATOM     16  H   UNL     1       5.433   3.934  16.691  0.00  0.00    +0.000 HD
ENDBRANCH   9  11
ENDBRANCH   3   5
BRANCH   2  17
ATOM     17  C   UNL     1       0.948   9.004  20.872  0.00  0.00    +0.000 A 
ATOM     18  C   UNL     1       0.508   8.722  22.173  0.00  0.00    +0.000 A 
ATOM     19  C   UNL     1      -0.195   9.678  22.900  0.00  0.00    +0.000 A 
ATOM     20  C   UNL     1      -0.465  10.920  22.330  0.00  0.00    +0.000 A 
ATOM     21  C   UNL     1      -0.035  11.219  21.025  0.00  0.00    +0.000 A 
ATOM     22  C   UNL     1       0.675  10.249  20.296  0.00  0.00    +0.000 A 
BRANCH  21  23
ATOM     23  C   UNL     1      -0.295  12.583  20.436  0.00  0.00    +0.000 C 
BRANCH  23  24
ATOM     24  N   UNL     1       0.937  13.168  19.945  0.00  0.00    +0.000 N 
ATOM     25  C   UNL     1       1.226  13.488  18.646  0.00  0.00    +0.000 A 
ATOM     26  C   UNL     1       2.511  13.981  18.682  0.00  0.00    +0.000 A 
ATOM     27  N   UNL     1       2.991  13.993  19.967  0.00  0.00    +0.000 NA
ATOM     28  C   UNL     1       2.020  13.505  20.706  0.00  0.00    +0.000 A 
ENDBRANCH  23  24
ENDBRANCH  21  23
ENDBRANCH   2  17
TORSDOF 5
ENDMDL
MODEL 5
REMARK VINA RESULT:      -8.0      2.737      9.037
REMARK  Name = 
REMARK  5 active torsions:
REMARK  status: ('A' for Active; 'I' for Inactive)
REMARK    1  A    between atoms: C_2  and  C_15
REMARK    2  A    between atoms: N_3  and  C_4
REMARK    3  A    between atoms: C_8  and  C_9
REMARK    4  A    between atoms: C_19  and  C_20
REMARK    5  A    between atoms: C_20  and  N_21
REMARK                            x       y       z     vdW  Elec       q    Type
REMARK                         _______ _______ _______ _____ _____    ______ ____
ROOT
ATOM      1  O   UNL     1       2.322   7.667  18.788  0.00  0.00    +0.000 OA
ATOM      2  C   UNL     1       1.933   7.529  19.944  0.00  0.00    +0.000 C 
ATOM      3  N   UNL     1       2.098   6.407  20.744  0.00  0.00    +0.000 N 
ATOM      4  H   UNL     1       1.565   6.361  21.604  0.00  0.00    +0.000 HD
ENDROOT
BRANCH   3   5
ATOM      5  C   UNL     1       2.768   5.220  20.351  0.00  0.00    +0.000 A 
ATOM      6  C   UNL     1       2.394   3.956  20.810  0.00  0.00    +0.000 A 
ATOM      7  C   UNL     1       3.122   2.821  20.461  0.00  0.00    +0.000 A 
ATOM      8  C   UNL     1       4.237   2.938  19.638  0.00  0.00    +0.000 A 
ATOM      9  C   UNL     1       4.621   4.190  19.138  0.00  0.00    +0.000 A 
ATOM     10  C   UNL     1       3.863   5.326  19.481  0.00  0.00    +0.000 A 
BRANCH   9  11
ATOM     11  C   UNL     1       5.797   4.318  18.283  0.00  0.00    +0.000 A 
ATOM     12  N   UNL     1       7.040   4.569  18.648  0.00  0.00    +0.000 NA
ATOM     13  N   UNL     1       7.826   4.615  17.516  0.00  0.00    +0.000 NA
ATOM     14  C   UNL     1       7.054   4.364  16.488  0.00  0.00    +0.000 A 
ATOM     15  N   UNL     1       5.782   4.163  16.919  0.00  0.00    +0.000 N 
ATOM     16  H   UNL     1       4.981   3.921  16.354  0.00  0.00    +0.000 HD
ENDBRANCH   9  11
ENDBRANCH   3   5
BRANCH   2  17
ATOM     17  C   UNL     1       1.159   8.653  20.527  0.00  0.00    +0.000 A 
ATOM     18  C   UNL     1       0.945   8.643  21.912  0.00  0.00    +0.000 A 
ATOM     19  C   UNL     1       0.175   9.634  22.512  0.00  0.00    +0.000 A 
ATOM     20  C   UNL     1      -0.387  10.641  21.730  0.00  0.00    +0.000 A 
ATOM     21  C   UNL     1      -0.186  10.666  20.340  0.00  0.00    +0.000 A 
ATOM     22  C   UNL     1       0.593   9.661  19.739  0.00  0.00    +0.000 A 
BRANCH  21  23
ATOM     23  C   UNL     1      -0.763  11.787  19.511  0.00  0.00    +0.000 C 
BRANCH  23  24
ATOM     24  N   UNL     1      -1.955  11.342  18.815  0.00  0.00    +0.000 N 
ATOM     25  C   UNL     1      -3.217  11.854  18.952  0.00  0.00    +0.000 A 
ATOM     26  C   UNL     1      -3.999  11.090  18.116  0.00  0.00    +0.000 A 
ATOM     27  N   UNL     1      -3.241  10.155  17.461  0.00  0.00    +0.000 NA
ATOM     28  C   UNL     1      -2.014  10.334  17.896  0.00  0.00    +0.000 A 
ENDBRANCH  23  24
ENDBRANCH  21  23
ENDBRANCH   2  17
TORSDOF 5
ENDMDL
MODEL 6
REMARK VINA RESULT:      -7.9      2.166      3.342
REMARK  Name = 
REMARK  5 active torsions:
REMARK  status: ('A' for Active; 'I' for Inactive)
REMARK    1  A    between atoms: C_2  and  C_15
REMARK    2  A    between atoms: N_3  and  C_4
REMARK    3  A    between atoms: C_8  and  C_9
REMARK    4  A    between atoms: C_19  and  C_20
REMARK    5  A    between atoms: C_20  and  N_21
REMARK                            x       y       z     vdW  Elec       q    Type
REMARK                         _______ _______ _______ _____ _____    ______ ____
ROOT
ATOM      1  O   UNL     1       2.587   8.661  17.101  0.00  0.00    +0.000 OA
ATOM      2  C   UNL     1       2.089   8.166  18.107  0.00  0.00    +0.000 C 
ATOM      3  N   UNL     1       1.151   8.756  18.943  0.00  0.00    +0.000 N 
ATOM      4  H   UNL     1       0.971   8.312  19.835  0.00  0.00    +0.000 HD
ENDROOT
BRANCH   3   5
ATOM      5  C   UNL     1       0.596  10.048  18.757  0.00  0.00    +0.000 A 
ATOM      6  C   UNL     1       1.272  11.217  19.111  0.00  0.00    +0.000 A 
ATOM      7  C   UNL     1       0.665  12.464  18.982  0.00  0.00    +0.000 A 
ATOM      8  C   UNL     1      -0.631  12.557  18.489  0.00  0.00    +0.000 A 
ATOM      9  C   UNL     1      -1.326  11.405  18.098  0.00  0.00    +0.000 A 
ATOM     10  C   UNL     1      -0.692  10.152  18.213  0.00  0.00    +0.000 A 
BRANCH   9  11
ATOM     11  C   UNL     1      -2.691  11.498  17.589  0.00  0.00    +0.000 A 
ATOM     12  N   UNL     1      -3.140  11.126  16.405  0.00  0.00    +0.000 NA
ATOM     13  N   UNL     1      -4.489  11.405  16.344  0.00  0.00    +0.000 NA
ATOM     14  C   UNL     1      -4.841  11.914  17.499  0.00  0.00    +0.000 A 
ATOM     15  N   UNL     1      -3.754  11.982  18.311  0.00  0.00    +0.000 N 
ATOM     16  H   UNL     1      -3.730  12.302  19.268  0.00  0.00    +0.000 HD
ENDBRANCH   9  11
ENDBRANCH   3   5
BRANCH   2  17
ATOM     17  C   UNL     1       2.580   6.823  18.503  0.00  0.00    +0.000 A 
ATOM     18  C   UNL     1       2.541   6.494  19.865  0.00  0.00    +0.000 A 
ATOM     19  C   UNL     1       3.044   5.276  20.309  0.00  0.00    +0.000 A 
ATOM     20  C   UNL     1       3.590   4.378  19.394  0.00  0.00    +0.000 A 
ATOM     21  C   UNL     1       3.641   4.691  18.025  0.00  0.00    +0.000 A 
ATOM     22  C   UNL     1       3.132   5.925  17.582  0.00  0.00    +0.000 A 
BRANCH  21  23
ATOM     23  C   UNL     1       4.195   3.692  17.039  0.00  0.00    +0.000 C 
BRANCH  23  24
ATOM     24  N   UNL     1       5.442   4.171  16.477  0.00  0.00    +0.000 N 
ATOM     25  C   UNL     1       5.723   4.344  15.149  0.00  0.00    +0.000 A 
ATOM     26  C   UNL     1       7.027   4.784  15.119  0.00  0.00    +0.000 A 
ATOM     27  N   UNL     1       7.527   4.907  16.390  0.00  0.00    +0.000 NA
ATOM     28  C   UNL     1       6.550   4.538  17.186  0.00  0.00    +0.000 A 
ENDBRANCH  23  24
ENDBRANCH  21  23
ENDBRANCH   2  17
TORSDOF 5
ENDMDL
MODEL 7
REMARK VINA RESULT:      -7.8      3.073      9.272
REMARK  Name = 
REMARK  5 active torsions:
REMARK  status: ('A' for Active; 'I' for Inactive)
REMARK    1  A    between atoms: C_2  and  C_15
REMARK    2  A    between atoms: N_3  and  C_4
REMARK    3  A    between atoms: C_8  and  C_9
REMARK    4  A    between atoms: C_19  and  C_20
REMARK    5  A    between atoms: C_20  and  N_21
REMARK                            x       y       z     vdW  Elec       q    Type
REMARK                         _______ _______ _______ _____ _____    ______ ____
ROOT
ATOM      1  O   UNL     1       2.112   7.542  18.591  0.00  0.00    +0.000 OA
ATOM      2  C   UNL     1       1.983   7.486  19.810  0.00  0.00    +0.000 C 
ATOM      3  N   UNL     1       2.348   6.431  20.634  0.00  0.00    +0.000 N 
ATOM      4  H   UNL     1       2.011   6.442  21.589  0.00  0.00    +0.000 HD
ENDROOT
BRANCH   3   5
ATOM      5  C   UNL     1       2.957   5.229  20.193  0.00  0.00    +0.000 A 
ATOM      6  C   UNL     1       2.539   3.969  20.625  0.00  0.00    +0.000 A 
ATOM      7  C   UNL     1       3.209   2.815  20.227  0.00  0.00    +0.000 A 
ATOM      8  C   UNL     1       4.309   2.907  19.382  0.00  0.00    +0.000 A 
ATOM      9  C   UNL     1       4.736   4.155  18.907  0.00  0.00    +0.000 A 
ATOM     10  C   UNL     1       4.036   5.312  19.300  0.00  0.00    +0.000 A 
BRANCH   9  11
ATOM     11  C   UNL     1       5.897   4.257  18.028  0.00  0.00    +0.000 A 
ATOM     12  N   UNL     1       7.153   4.477  18.369  0.00  0.00    +0.000 NA
ATOM     13  N   UNL     1       7.916   4.508  17.221  0.00  0.00    +0.000 NA
ATOM     14  C   UNL     1       7.118   4.279  16.208  0.00  0.00    +0.000 A 
ATOM     15  N   UNL     1       5.849   4.108  16.664  0.00  0.00    +0.000 N 
ATOM     16  H   UNL     1       5.032   3.887  16.115  0.00  0.00    +0.000 HD
ENDBRANCH   9  11
ENDBRANCH   3   5
BRANCH   2  17
ATOM     17  C   UNL     1       1.314   8.639  20.463  0.00  0.00    +0.000 A 
ATOM     18  C   UNL     1       0.905   8.481  21.795  0.00  0.00    +0.000 A 
ATOM     19  C   UNL     1       0.219   9.502  22.446  0.00  0.00    +0.000 A 
ATOM     20  C   UNL     1      -0.066  10.685  21.768  0.00  0.00    +0.000 A 
ATOM     21  C   UNL     1       0.333  10.860  20.431  0.00  0.00    +0.000 A 
ATOM     22  C   UNL     1       1.026   9.825  19.779  0.00  0.00    +0.000 A 
BRANCH  21  23
ATOM     23  C   UNL     1       0.057  12.164  19.723  0.00  0.00    +0.000 C 
BRANCH  23  24
ATOM     24  N   UNL     1       1.289  12.899  19.514  0.00  0.00    +0.000 N 
ATOM     25  C   UNL     1       2.054  13.497  20.478  0.00  0.00    +0.000 A 
ATOM     26  C   UNL     1       3.091  14.084  19.789  0.00  0.00    +0.000 A 
ATOM     27  N   UNL     1       2.987  13.832  18.446  0.00  0.00    +0.000 NA
ATOM     28  C   UNL     1       1.897  13.112  18.310  0.00  0.00    +0.000 A 
ENDBRANCH  23  24
ENDBRANCH  21  23
ENDBRANCH   2  17
TORSDOF 5
ENDMDL
MODEL 8
REMARK VINA RESULT:      -7.8      2.318      3.591
REMARK  Name = 
REMARK  5 active torsions:
REMARK  status: ('A' for Active; 'I' for Inactive)
REMARK    1  A    between atoms: C_2  and  C_15
REMARK    2  A    between atoms: N_3  and  C_4
REMARK    3  A    between atoms: C_8  and  C_9
REMARK    4  A    between atoms: C_19  and  C_20
REMARK    5  A    between atoms: C_20  and  N_21
REMARK                            x       y       z     vdW  Elec       q    Type
REMARK                         _______ _______ _______ _____ _____    ______ ____
ROOT
ATOM      1  O   UNL     1       2.425   8.554  17.184  0.00  0.00    +0.000 OA
ATOM      2  C   UNL     1       2.187   8.190  18.331  0.00  0.00    +0.000 C 
ATOM      3  N   UNL     1       1.434   8.871  19.277  0.00  0.00    +0.000 N 
ATOM      4  H   UNL     1       1.478   8.546  20.235  0.00  0.00    +0.000 HD
ENDROOT
BRANCH   3   5
ATOM      5  C   UNL     1       0.792  10.117  19.060  0.00  0.00    +0.000 A 
ATOM      6  C   UNL     1       1.280  11.317  19.582  0.00  0.00    +0.000 A 
ATOM      7  C   UNL     1       0.583  12.510  19.411  0.00  0.00    +0.000 A 
ATOM      8  C   UNL     1      -0.615  12.518  18.706  0.00  0.00    +0.000 A 
ATOM      9  C   UNL     1      -1.117  11.336  18.145  0.00  0.00    +0.000 A 
ATOM     10  C   UNL     1      -0.391  10.140  18.307  0.00  0.00    +0.000 A 
BRANCH   9  11
ATOM     11  C   UNL     1      -2.380  11.339  17.413  0.00  0.00    +0.000 A 
ATOM     12  N   UNL     1      -3.596  11.510  17.898  0.00  0.00    +0.000 NA
ATOM     13  N   UNL     1      -4.495  11.427  16.856  0.00  0.00    +0.000 NA
ATOM     14  C   UNL     1      -3.811  11.235  15.756  0.00  0.00    +0.000 A 
ATOM     15  N   UNL     1      -2.486  11.182  16.053  0.00  0.00    +0.000 N 
ATOM     16  H   UNL     1      -1.722  11.075  15.403  0.00  0.00    +0.000 HD
ENDBRANCH   9  11
ENDBRANCH   3   5
BRANCH   2  17
ATOM     17  C   UNL     1       2.816   6.919  18.771  0.00  0.00    +0.000 A 
ATOM     18  C   UNL     1       2.102   6.124  19.679  0.00  0.00    +0.000 A 
ATOM     19  C   UNL     1       2.662   4.952  20.178  0.00  0.00    +0.000 A 
ATOM     20  C   UNL     1       3.939   4.569  19.774  0.00  0.00    +0.000 A 
ATOM     21  C   UNL     1       4.670   5.355  18.867  0.00  0.00    +0.000 A 
ATOM     22  C   UNL     1       4.100   6.538  18.367  0.00  0.00    +0.000 A 
BRANCH  21  23
ATOM     23  C   UNL     1       6.035   4.906  18.404  0.00  0.00    +0.000 C 
BRANCH  23  24
ATOM     24  N   UNL     1       6.078   4.821  16.957  0.00  0.00    +0.000 N 
ATOM     25  C   UNL     1       5.325   3.996  16.167  0.00  0.00    +0.000 A 
ATOM     26  C   UNL     1       5.743   4.261  14.883  0.00  0.00    +0.000 A 
ATOM     27  N   UNL     1       6.704   5.240  14.877  0.00  0.00    +0.000 NA
ATOM     28  C   UNL     1       6.880   5.562  16.138  0.00  0.00    +0.000 A 
ENDBRANCH  23  24
ENDBRANCH  21  23
ENDBRANCH   2  17
TORSDOF 5
ENDMDL
MODEL 9
REMARK VINA RESULT:      -7.8      2.188      3.527
REMARK  Name = 
REMARK  5 active torsions:
REMARK  status: ('A' for Active; 'I' for Inactive)
REMARK    1  A    between atoms: C_2  and  C_15
REMARK    2  A    between atoms: N_3  and  C_4
REMARK    3  A    between atoms: C_8  and  C_9
REMARK    4  A    between atoms: C_19  and  C_20
REMARK    5  A    between atoms: C_20  and  N_21
REMARK                            x       y       z     vdW  Elec       q    Type
REMARK                         _______ _______ _______ _____ _____    ______ ____
ROOT
ATOM      1  O   UNL     1       1.929   7.825  20.094  0.00  0.00    +0.000 OA
ATOM      2  C   UNL     1       2.098   7.678  18.888  0.00  0.00    +0.000 C 
ATOM      3  N   UNL     1       1.839   8.613  17.896  0.00  0.00    +0.000 N 
ATOM      4  H   UNL     1       1.845   8.293  16.935  0.00  0.00    +0.000 HD
ENDROOT
BRANCH   3   5
ATOM      5  C   UNL     1       1.340   9.921  18.123  0.00  0.00    +0.000 A 
ATOM      6  C   UNL     1       2.175  11.023  18.318  0.00  0.00    +0.000 A 
ATOM      7  C   UNL     1       1.649  12.279  18.612  0.00  0.00    +0.000 A 
ATOM      8  C   UNL     1       0.273  12.450  18.709  0.00  0.00    +0.000 A 
ATOM      9  C   UNL     1      -0.593  11.370  18.490  0.00  0.00    +0.000 A 
ATOM     10  C   UNL     1      -0.049  10.110  18.172  0.00  0.00    +0.000 A 
BRANCH   9  11
ATOM     11  C   UNL     1      -2.038  11.543  18.601  0.00  0.00    +0.000 A 
ATOM     12  N   UNL     1      -2.982  10.927  17.914  0.00  0.00    +0.000 NA
ATOM     13  N   UNL     1      -4.206  11.402  18.333  0.00  0.00    +0.000 NA
ATOM     14  C   UNL     1      -3.987  12.276  19.284  0.00  0.00    +0.000 A 
ATOM     15  N   UNL     1      -2.649  12.390  19.491  0.00  0.00    +0.000 N 
ATOM     16  H   UNL     1      -2.189  12.965  20.182  0.00  0.00    +0.000 HD
ENDBRANCH   9  11
ENDBRANCH   3   5
BRANCH   2  17
ATOM     17  C   UNL     1       2.573   6.346  18.438  0.00  0.00    +0.000 A 
ATOM     18  C   UNL     1       1.602   5.395  18.092  0.00  0.00    +0.000 A 
ATOM     19  C   UNL     1       1.979   4.108  17.721  0.00  0.00    +0.000 A 
ATOM     20  C   UNL     1       3.329   3.763  17.696  0.00  0.00    +0.000 A 
ATOM     21  C   UNL     1       4.316   4.702  18.043  0.00  0.00    +0.000 A 
ATOM     22  C   UNL     1       3.928   6.000  18.417  0.00  0.00    +0.000 A 
BRANCH  21  23
ATOM     23  C   UNL     1       5.776   4.328  17.970  0.00  0.00    +0.000 C 
BRANCH  23  24
ATOM     24  N   UNL     1       6.300   4.584  16.642  0.00  0.00    +0.000 N 
ATOM     25  C   UNL     1       6.034   3.864  15.510  0.00  0.00    +0.000 A 
ATOM     26  C   UNL     1       6.778   4.472  14.524  0.00  0.00    +0.000 A 
ATOM     27  N   UNL     1       7.459   5.551  15.024  0.00  0.00    +0.000 NA
ATOM     28  C   UNL     1       7.147   5.599  16.300  0.00  0.00    +0.000 A 
ENDBRANCH  23  24
ENDBRANCH  21  23
ENDBRANCH   2  17
TORSDOF 5
ENDMDL
