MODEL 1
REMARK VINA RESULT:      -8.6      0.000      0.000
REMARK  Name = 
REMARK  3 active torsions:
REMARK  status: ('A' for Active; 'I' for Inactive)
REMARK    1  A    between atoms: C_2  and  C_14
REMARK    2  A    between atoms: N_3  and  C_4
REMARK    3  A    between atoms: C_17  and  C_18
REMARK                            x       y       z     vdW  Elec       q    Type
REMARK                         _______ _______ _______ _____ _____    ______ ____
ROOT
ATOM      1  O   UNL     1       6.072   5.040  16.334  0.00  0.00    +0.000 OA
ATOM      2  C   UNL     1       6.056   5.472  17.487  0.00  0.00    +0.000 C 
ATOM      3  N   UNL     1       5.261   4.995  18.501  0.00  0.00    +0.000 N 
ATOM      4  H   UNL     1       5.217   5.520  19.382  0.00  0.00    +0.000 HD
ENDROOT
BRANCH   3   5
ATOM      5  C   UNL     1       4.315   3.940  18.413  0.00  0.00    +0.000 A 
ATOM      6  C   UNL     1       4.507   2.822  17.590  0.00  0.00    +0.000 A 
ATOM      7  C   UNL     1       3.517   1.854  17.466  0.00  0.00    +0.000 A 
ATOM      8  C   UNL     1       2.327   1.996  18.168  0.00  0.00    +0.000 A 
ATOM      9  C   UNL     1       2.136   3.092  19.023  0.00  0.00    +0.000 A 
ATOM     10  C   UNL     1       0.938   3.251  19.729  0.00  0.00    +0.000 A 
ATOM     11  C   UNL     1       0.775   4.335  20.580  0.00  0.00    +0.000 A 
ATOM     12  C   UNL     1       1.822   5.229  20.697  0.00  0.00    +0.000 A 
ATOM     13  N   UNL     1       2.984   5.120  20.017  0.00  0.00    +0.000 NA
ATOM     14  C   UNL     1       3.144   4.070  19.179  0.00  0.00    +0.000 A 
ENDBRANCH   3   5
BRANCH   2  15
ATOM     15  C   UNL     1       6.941   6.617  17.844  0.00  0.00    +0.000 A 
ATOM     16  C   UNL     1       6.748   7.771  17.176  0.00  0.00    +0.000 A 
ATOM     17  C   UNL     1       7.530   8.951  17.451  0.00  0.00    +0.000 A 
ATOM     18  C   UNL     1       8.459   8.933  18.420  0.00  0.00    +0.000 A 
ATOM     19  N   UNL     1       8.681   7.755  19.103  0.00  0.00    +0.000 N 
ATOM     20  C   UNL     1       8.004   6.579  18.887  0.00  0.00    +0.000 A 
ATOM     21  O   UNL     1       8.261   5.561  19.521  0.00  0.00    +0.000 OA
ATOM     22  H   UNL     1       9.427   7.753  19.795  0.00  0.00    +0.000 HD
BRANCH  18  23
ATOM     23  C   UNL     1       9.299  10.098  18.775  0.00  0.00    +0.000 A 
ATOM     24  C   UNL     1       9.547  10.466  20.098  0.00  0.00    +0.000 A 
ATOM     25  C   UNL     1      10.356  11.569  20.349  0.00  0.00    +0.000 A 
ATOM     26  C   UNL     1      10.897  12.274  19.281  0.00  0.00    +0.000 A 
ATOM     27  C   UNL     1      10.620  11.833  17.999  0.00  0.00    +0.000 A 
ATOM     28  N   UNL     1       9.848  10.758  17.722  0.00  0.00    +0.000 NA
ENDBRANCH  18  23
ENDBRANCH   2  15
TORSDOF 3
ENDMDL
MODEL 2
REMARK VINA RESULT:      -8.6      5.372      7.314
REMARK  Name = 
REMARK  3 active torsions:
REMARK  status: ('A' for Active; 'I' for Inactive)
REMARK    1  A    between atoms: C_2  and  C_14
REMARK    2  A    between atoms: N_3  and  C_4
REMARK    3  A    between atoms: C_17  and  C_18
REMARK                            x       y       z     vdW  Elec       q    Type
REMARK                         _______ _______ _______ _____ _____    ______ ____
ROOT
ATOM      1  O   UNL     1       2.175   8.542  17.141  0.00  0.00    +0.000 OA
ATOM      2  C   UNL     1       2.141   8.257  18.339  0.00  0.00    +0.000 C 
ATOM      3  N   UNL     1       2.638   7.103  18.894  0.00  0.00    +0.000 N 
ATOM      4  H   UNL     1       2.426   6.898  19.877  0.00  0.00    +0.000 HD
ENDROOT
BRANCH   3   5
ATOM      5  C   UNL     1       3.265   6.031  18.205  0.00  0.00    +0.000 A 
ATOM      6  C   UNL     1       4.388   6.215  17.388  0.00  0.00    +0.000 A 
ATOM      7  C   UNL     1       4.919   5.155  16.662  0.00  0.00    +0.000 A 
ATOM      8  C   UNL     1       4.330   3.901  16.751  0.00  0.00    +0.000 A 
ATOM      9  C   UNL     1       3.227   3.694  17.593  0.00  0.00    +0.000 A 
ATOM     10  C   UNL     1       2.619   2.437  17.685  0.00  0.00    +0.000 A 
ATOM     11  C   UNL     1       1.538   2.251  18.534  0.00  0.00    +0.000 A 
ATOM     12  C   UNL     1       1.097   3.336  19.267  0.00  0.00    +0.000 A 
ATOM     13  N   UNL     1       1.644   4.568  19.190  0.00  0.00    +0.000 NA
ATOM     14  C   UNL     1       2.693   4.757  18.356  0.00  0.00    +0.000 A 
ENDBRANCH   3   5
BRANCH   2  15
ATOM     15  C   UNL     1       1.498   9.207  19.292  0.00  0.00    +0.000 A 
ATOM     16  C   UNL     1       1.308  10.469  18.861  0.00  0.00    +0.000 A 
ATOM     17  C   UNL     1       0.677  11.470  19.687  0.00  0.00    +0.000 A 
ATOM     18  C   UNL     1       0.228  11.147  20.910  0.00  0.00    +0.000 A 
ATOM     19  N   UNL     1       0.429   9.864  21.373  0.00  0.00    +0.000 N 
ATOM     20  C   UNL     1       1.044   8.858  20.667  0.00  0.00    +0.000 A 
ATOM     21  O   UNL     1       1.205   7.740  21.144  0.00  0.00    +0.000 OA
ATOM     22  H   UNL     1       0.128   9.660  22.323  0.00  0.00    +0.000 HD
BRANCH  18  23
ATOM     23  C   UNL     1      -0.438  12.106  21.820  0.00  0.00    +0.000 A 
ATOM     24  C   UNL     1      -1.558  11.763  22.579  0.00  0.00    +0.000 A 
ATOM     25  C   UNL     1      -2.120  12.719  23.418  0.00  0.00    +0.000 A 
ATOM     26  C   UNL     1      -1.555  13.986  23.482  0.00  0.00    +0.000 A 
ATOM     27  C   UNL     1      -0.433  14.241  22.713  0.00  0.00    +0.000 A 
ATOM     28  N   UNL     1       0.144  13.331  21.897  0.00  0.00    +0.000 NA
ENDBRANCH  18  23
ENDBRANCH   2  15
TORSDOF 3
ENDMDL
MODEL 3
REMARK VINA RESULT:      -8.5      5.503      8.026
REMARK  Name = 
REMARK  3 active torsions:
REMARK  status: ('A' for Active; 'I' for Inactive)
REMARK    1  A    between atoms: C_2  and  C_14
REMARK    2  A    between atoms: N_3  and  C_4
REMARK    3  A    between atoms: C_17  and  C_18
REMARK                            x       y       z     vdW  Elec       q    Type
REMARK                         _______ _______ _______ _____ _____    ______ ____
ROOT
ATOM      1  O   UNL     1       2.375   9.042  17.170  0.00  0.00    +0.000 OA
ATOM      2  C   UNL     1       1.988   8.559  18.234  0.00  0.00    +0.000 C 
ATOM      3  N   UNL     1       2.324   7.314  18.707  0.00  0.00    +0.000 N 
ATOM      4  H   UNL     1       1.831   6.950  19.531  0.00  0.00    +0.000 HD
ENDROOT
BRANCH   3   5
ATOM      5  C   UNL     1       3.155   6.357  18.066  0.00  0.00    +0.000 A 
ATOM      6  C   UNL     1       4.302   6.718  17.348  0.00  0.00    +0.000 A 
ATOM      7  C   UNL     1       5.040   5.760  16.662  0.00  0.00    +0.000 A 
ATOM      8  C   UNL     1       4.636   4.432  16.691  0.00  0.00    +0.000 A 
ATOM      9  C   UNL     1       3.509   4.052  17.436  0.00  0.00    +0.000 A 
ATOM     10  C   UNL     1       3.086   2.718  17.467  0.00  0.00    +0.000 A 
ATOM     11  C   UNL     1       1.977   2.361  18.221  0.00  0.00    +0.000 A 
ATOM     12  C   UNL     1       1.323   3.356  18.922  0.00  0.00    +0.000 A 
ATOM     13  N   UNL     1       1.690   4.656  18.900  0.00  0.00    +0.000 NA
ATOM     14  C   UNL     1       2.765   5.011  18.159  0.00  0.00    +0.000 A 
ENDBRANCH   3   5
BRANCH   2  15
ATOM     15  C   UNL     1       1.066   9.351  19.097  0.00  0.00    +0.000 A 
ATOM     16  C   UNL     1       0.310  10.284  18.488  0.00  0.00    +0.000 A 
ATOM     17  C   UNL     1      -0.634  11.096  19.217  0.00  0.00    +0.000 A 
ATOM     18  C   UNL     1      -0.805  10.909  20.535  0.00  0.00    +0.000 A 
ATOM     19  N   UNL     1      -0.027   9.969  21.178  0.00  0.00    +0.000 N 
ATOM     20  C   UNL     1       0.913   9.174  20.569  0.00  0.00    +0.000 A 
ATOM     21  O   UNL     1       1.584   8.365  21.202  0.00  0.00    +0.000 OA
ATOM     22  H   UNL     1      -0.138   9.885  22.186  0.00  0.00    +0.000 HD
BRANCH  18  23
ATOM     23  C   UNL     1      -1.756  11.689  21.359  0.00  0.00    +0.000 A 
ATOM     24  C   UNL     1      -1.719  11.680  22.754  0.00  0.00    +0.000 A 
ATOM     25  C   UNL     1      -2.642  12.448  23.455  0.00  0.00    +0.000 A 
ATOM     26  C   UNL     1      -3.572  13.205  22.754  0.00  0.00    +0.000 A 
ATOM     27  C   UNL     1      -3.529  13.176  21.371  0.00  0.00    +0.000 A 
ATOM     28  N   UNL     1      -2.639  12.449  20.660  0.00  0.00    +0.000 NA
ENDBRANCH  18  23
ENDBRANCH   2  15
TORSDOF 3
ENDMDL
MODEL 4
REMARK VINA RESULT:      -8.3      5.097      7.443
REMARK  Name = 
REMARK  3 active torsions:
REMARK  status: ('A' for Active; 'I' for Inactive)
REMARK    1  A    between atoms: C_2  and  C_14
REMARK    2  A    between atoms: N_3  and  C_4
REMARK    3  A    between atoms: C_17  and  C_18
REMARK                            x       y       z     vdW  Elec       q    Type
REMARK                         _______ _______ _______ _____ _____    ______ ____
ROOT
ATOM      1  O   UNL     1       2.014   5.891  20.771  0.00  0.00    +0.000 OA
ATOM      2  C   UNL     1       1.938   6.808  19.952  0.00  0.00    +0.000 C 
ATOM      3  N   UNL     1       2.320   6.727  18.635  0.00  0.00    +0.000 N 
ATOM      4  H   UNL     1       2.354   7.589  18.078  0.00  0.00    +0.000 HD
ENDROOT
BRANCH   3   5
ATOM      5  C   UNL     1       2.878   5.598  17.980  0.00  0.00    +0.000 A 
ATOM      6  C   UNL     1       2.173   4.397  17.819  0.00  0.00    +0.000 A 
ATOM      7  C   UNL     1       2.785   3.286  17.250  0.00  0.00    +0.000 A 
ATOM      8  C   UNL     1       4.107   3.369  16.834  0.00  0.00    +0.000 A 
ATOM      9  C   UNL     1       4.813   4.576  16.957  0.00  0.00    +0.000 A 
ATOM     10  C   UNL     1       6.149   4.670  16.550  0.00  0.00    +0.000 A 
ATOM     11  C   UNL     1       6.825   5.877  16.667  0.00  0.00    +0.000 A 
ATOM     12  C   UNL     1       6.138   6.955  17.191  0.00  0.00    +0.000 A 
ATOM     13  N   UNL     1       4.856   6.897  17.613  0.00  0.00    +0.000 NA
ATOM     14  C   UNL     1       4.196   5.720  17.510  0.00  0.00    +0.000 A 
ENDBRANCH   3   5
BRANCH   2  15
ATOM     15  C   UNL     1       1.412   8.132  20.393  0.00  0.00    +0.000 A 
ATOM     16  C   UNL     1       1.069   8.252  21.689  0.00  0.00    +0.000 A 
ATOM     17  C   UNL     1       0.569   9.491  22.234  0.00  0.00    +0.000 A 
ATOM     18  C   UNL     1       0.467  10.577  21.452  0.00  0.00    +0.000 A 
ATOM     19  N   UNL     1       0.799  10.468  20.118  0.00  0.00    +0.000 N 
ATOM     20  C   UNL     1       1.255   9.322  19.511  0.00  0.00    +0.000 A 
ATOM     21  O   UNL     1       1.520   9.288  18.314  0.00  0.00    +0.000 OA
ATOM     22  H   UNL     1       0.662  11.290  19.536  0.00  0.00    +0.000 HD
BRANCH  18  23
ATOM     23  C   UNL     1      -0.026  11.889  21.929  0.00  0.00    +0.000 A 
ATOM     24  C   UNL     1      -1.113  12.009  22.795  0.00  0.00    +0.000 A 
ATOM     25  C   UNL     1      -1.508  13.279  23.205  0.00  0.00    +0.000 A 
ATOM     26  C   UNL     1      -0.814  14.390  22.745  0.00  0.00    +0.000 A 
ATOM     27  C   UNL     1       0.266  14.184  21.904  0.00  0.00    +0.000 A 
ATOM     28  N   UNL     1       0.682  12.964  21.497  0.00  0.00    +0.000 NA
ENDBRANCH  18  23
ENDBRANCH   2  15
TORSDOF 3
ENDMDL
MODEL 5
REMARK VINA RESULT:      -8.2      5.158      7.469
REMARK  Name = 
REMARK  3 active torsions:
REMARK  status: ('A' for Active; 'I' for Inactive)
REMARK    1  A    between atoms: C_2  and  C_14
REMARK    2  A    between atoms: N_3  and  C_4
REMARK    3  A    between atoms: C_17  and  C_18
REMARK                            x       y       z     vdW  Elec       q    Type
REMARK                         _______ _______ _______ _____ _____    ______ ____
ROOT
ATOM      1  O   UNL     1       2.177   7.584  17.984  0.00  0.00    +0.000 OA
ATOM      2  C   UNL     1       2.144   7.594  19.215  0.00  0.00    +0.000 C 
ATOM      3  N   UNL     1       2.719   6.651  20.031  0.00  0.00    +0.000 N 
ATOM      4  H   UNL     1       2.507   6.672  21.036  0.00  0.00    +0.000 HD
ENDROOT
BRANCH   3   5
ATOM      5  C   UNL     1       3.438   5.497  19.620  0.00  0.00    +0.000 A 
ATOM      6  C   UNL     1       4.803   5.532  19.307  0.00  0.00    +0.000 A 
ATOM      7  C   UNL     1       5.450   4.400  18.825  0.00  0.00    +0.000 A 
ATOM      8  C   UNL     1       4.735   3.222  18.655  0.00  0.00    +0.000 A 
ATOM      9  C   UNL     1       3.375   3.163  18.999  0.00  0.00    +0.000 A 
ATOM     10  C   UNL     1       2.641   1.985  18.823  0.00  0.00    +0.000 A 
ATOM     11  C   UNL     1       1.301   1.944  19.182  0.00  0.00    +0.000 A 
ATOM     12  C   UNL     1       0.736   3.091  19.707  0.00  0.00    +0.000 A 
ATOM     13  N   UNL     1       1.408   4.252  19.871  0.00  0.00    +0.000 NA
ATOM     14  C   UNL     1       2.712   4.299  19.514  0.00  0.00    +0.000 A 
ENDBRANCH   3   5
BRANCH   2  15
ATOM     15  C   UNL     1       1.415   8.692  19.912  0.00  0.00    +0.000 A 
ATOM     16  C   UNL     1       0.996   8.446  21.168  0.00  0.00    +0.000 A 
ATOM     17  C   UNL     1       0.298   9.440  21.947  0.00  0.00    +0.000 A 
ATOM     18  C   UNL     1       0.080  10.663  21.439  0.00  0.00    +0.000 A 
ATOM     19  N   UNL     1       0.487  10.927  20.148  0.00  0.00    +0.000 N 
ATOM     20  C   UNL     1       1.131  10.033  19.326  0.00  0.00    +0.000 A 
ATOM     21  O   UNL     1       1.455  10.326  18.180  0.00  0.00    +0.000 OA
ATOM     22  H   UNL     1       0.262  11.843  19.767  0.00  0.00    +0.000 HD
BRANCH  18  23
ATOM     23  C   UNL     1      -0.618  11.744  22.170  0.00  0.00    +0.000 A 
ATOM     24  C   UNL     1      -1.774  11.517  22.917  0.00  0.00    +0.000 A 
ATOM     25  C   UNL     1      -2.365  12.585  23.584  0.00  0.00    +0.000 A 
ATOM     26  C   UNL     1      -1.791  13.846  23.492  0.00  0.00    +0.000 A 
ATOM     27  C   UNL     1      -0.633  13.985  22.746  0.00  0.00    +0.000 A 
ATOM     28  N   UNL     1      -0.028  12.966  22.097  0.00  0.00    +0.000 NA
ENDBRANCH  18  23
ENDBRANCH   2  15
TORSDOF 3
ENDMDL
MODEL 6
REMARK VINA RESULT:      -8.1      6.104      8.512
REMARK  Name = 
REMARK  3 active torsions:
REMARK  status: ('A' for Active; 'I' for Inactive)
REMARK    1  A    between atoms: C_2  and  C_14
REMARK    2  A    between atoms: N_3  and  C_4
REMARK    3  A    between atoms: C_17  and  C_18
REMARK                            x       y       z     vdW  Elec       q    Type
REMARK                         _______ _______ _______ _____ _____    ______ ____
ROOT
ATOM      1  O   UNL     1       1.140   9.255  18.064  0.00  0.00    +0.000 OA
ATOM      2  C   UNL     1       1.195   8.980  19.263  0.00  0.00    +0.000 C 
ATOM      3  N   UNL     1       1.861   7.906  19.801  0.00  0.00    +0.000 N 
ATOM      4  H   UNL     1       1.720   7.685  20.793  0.00  0.00    +0.000 HD
ENDROOT
BRANCH   3   5
ATOM      5  C   UNL     1       2.590   6.916  19.090  0.00  0.00    +0.000 A 
ATOM      6  C   UNL     1       3.494   7.236  18.068  0.00  0.00    +0.000 A 
ATOM      7  C   UNL     1       4.122   6.234  17.337  0.00  0.00    +0.000 A 
ATOM      8  C   UNL     1       3.852   4.903  17.626  0.00  0.00    +0.000 A 
ATOM      9  C   UNL     1       2.976   4.568  18.670  0.00  0.00    +0.000 A 
ATOM     10  C   UNL     1       2.689   3.231  18.965  0.00  0.00    +0.000 A 
ATOM     11  C   UNL     1       1.831   2.921  20.011  0.00  0.00    +0.000 A 
ATOM     12  C   UNL     1       1.284   3.967  20.731  0.00  0.00    +0.000 A 
ATOM     13  N   UNL     1       1.522   5.270  20.462  0.00  0.00    +0.000 NA
ATOM     14  C   UNL     1       2.351   5.577  19.438  0.00  0.00    +0.000 A 
ENDBRANCH   3   5
BRANCH   2  15
ATOM     15  C   UNL     1       0.477   9.850  20.239  0.00  0.00    +0.000 A 
ATOM     16  C   UNL     1      -0.370  10.766  19.733  0.00  0.00    +0.000 A 
ATOM     17  C   UNL     1      -1.135  11.648  20.581  0.00  0.00    +0.000 A 
ATOM     18  C   UNL     1      -1.041  11.546  21.916  0.00  0.00    +0.000 A 
ATOM     19  N   UNL     1      -0.166  10.625  22.451  0.00  0.00    +0.000 N 
ATOM     20  C   UNL     1       0.620   9.767  21.720  0.00  0.00    +0.000 A 
ATOM     21  O   UNL     1       1.390   8.979  22.259  0.00  0.00    +0.000 OA
ATOM     22  H   UNL     1      -0.074  10.605  23.464  0.00  0.00    +0.000 HD
BRANCH  18  23
ATOM     23  C   UNL     1      -1.795  12.402  22.860  0.00  0.00    +0.000 A 
ATOM     24  C   UNL     1      -1.321  13.644  23.285  0.00  0.00    +0.000 A 
ATOM     25  C   UNL     1      -2.094  14.392  24.166  0.00  0.00    +0.000 A 
ATOM     26  C   UNL     1      -3.314  13.889  24.598  0.00  0.00    +0.000 A 
ATOM     27  C   UNL     1      -3.722  12.658  24.114  0.00  0.00    +0.000 A 
ATOM     28  N   UNL     1      -3.001  11.912  23.248  0.00  0.00    +0.000 NA
ENDBRANCH  18  23
ENDBRANCH   2  15
TORSDOF 3
ENDMDL
MODEL 7
REMARK VINA RESULT:      -8.0      6.256      8.414
REMARK  Name = 
REMARK  3 active torsions:
REMARK  status: ('A' for Active; 'I' for Inactive)
REMARK    1  A    between atoms: C_2  and  C_14
REMARK    2  A    between atoms: N_3  and  C_4
REMARK    3  A    between atoms: C_17  and  C_18
REMARK                            x       y       z     vdW  Elec       q    Type
REMARK                         _______ _______ _______ _____ _____    ______ ____
ROOT
ATOM      1  O   UNL     1       1.241   9.473  18.030  0.00  0.00    +0.000 OA
ATOM      2  C   UNL     1       1.253   9.160  19.220  0.00  0.00    +0.000 C 
ATOM      3  N   UNL     1       1.852   8.038  19.739  0.00  0.00    +0.000 N 
ATOM      4  H   UNL     1       1.677   7.794  20.721  0.00  0.00    +0.000 HD
ENDROOT
BRANCH   3   5
ATOM      5  C   UNL     1       2.548   7.035  19.014  0.00  0.00    +0.000 A 
ATOM      6  C   UNL     1       3.424   7.336  17.963  0.00  0.00    +0.000 A 
ATOM      7  C   UNL     1       4.019   6.322  17.222  0.00  0.00    +0.000 A 
ATOM      8  C   UNL     1       3.744   4.996  17.529  0.00  0.00    +0.000 A 
ATOM      9  C   UNL     1       2.897   4.680  18.602  0.00  0.00    +0.000 A 
ATOM     10  C   UNL     1       2.604   3.348  18.916  0.00  0.00    +0.000 A 
ATOM     11  C   UNL     1       1.774   3.056  19.990  0.00  0.00    +0.000 A 
ATOM     12  C   UNL     1       1.261   4.113  20.717  0.00  0.00    +0.000 A 
ATOM     13  N   UNL     1       1.505   5.410  20.431  0.00  0.00    +0.000 NA
ATOM     14  C   UNL     1       2.305   5.700  19.380  0.00  0.00    +0.000 A 
ENDBRANCH   3   5
BRANCH   2  15
ATOM     15  C   UNL     1       0.556  10.034  20.207  0.00  0.00    +0.000 A 
ATOM     16  C   UNL     1       0.604  11.362  19.987  0.00  0.00    +0.000 A 
ATOM     17  C   UNL     1      -0.051  12.304  20.862  0.00  0.00    +0.000 A 
ATOM     18  C   UNL     1      -0.764  11.864  21.911  0.00  0.00    +0.000 A 
ATOM     19  N   UNL     1      -0.811  10.509  22.160  0.00  0.00    +0.000 N 
ATOM     20  C   UNL     1      -0.194   9.546  21.398  0.00  0.00    +0.000 A 
ATOM     21  O   UNL     1      -0.263   8.355  21.683  0.00  0.00    +0.000 OA
ATOM     22  H   UNL     1      -1.312  10.206  22.991  0.00  0.00    +0.000 HD
BRANCH  18  23
ATOM     23  C   UNL     1      -1.475  12.757  22.853  0.00  0.00    +0.000 A 
ATOM     24  C   UNL     1      -2.776  12.502  23.288  0.00  0.00    +0.000 A 
ATOM     25  C   UNL     1      -3.371  13.385  24.183  0.00  0.00    +0.000 A 
ATOM     26  C   UNL     1      -2.659  14.494  24.621  0.00  0.00    +0.000 A 
ATOM     27  C   UNL     1      -1.366  14.665  24.158  0.00  0.00    +0.000 A 
ATOM     28  N   UNL     1      -0.755  13.820  23.298  0.00  0.00    +0.000 NA
ENDBRANCH  18  23
ENDBRANCH   2  15
TORSDOF 3
ENDMDL
MODEL 8
REMARK VINA RESULT:      -8.0      5.282      7.314
REMARK  Name = 
REMARK  3 active torsions:
REMARK  status: ('A' for Active; 'I' for Inactive)
REMARK    1  A    between atoms: C_2  and  C_14
REMARK    2  A    between atoms: N_3  and  C_4
REMARK    3  A    between atoms: C_17  and  C_18
REMARK                            x       y       z     vdW  Elec       q    Type
REMARK                         _______ _______ _______ _____ _____    ______ ____
ROOT
ATOM      1  O   UNL     1       2.540   8.515  17.105  0.00  0.00    +0.000 OA
ATOM      2  C   UNL     1       2.283   8.224  18.274  0.00  0.00    +0.000 C 
ATOM      3  N   UNL     1       2.568   7.020  18.871  0.00  0.00    +0.000 N 
ATOM      4  H   UNL     1       2.179   6.828  19.802  0.00  0.00    +0.000 HD
ENDROOT
BRANCH   3   5
ATOM      5  C   UNL     1       3.189   5.897  18.264  0.00  0.00    +0.000 A 
ATOM      6  C   UNL     1       4.325   6.012  17.452  0.00  0.00    +0.000 A 
ATOM      7  C   UNL     1       4.851   4.899  16.806  0.00  0.00    +0.000 A 
ATOM      8  C   UNL     1       4.245   3.660  16.971  0.00  0.00    +0.000 A 
ATOM      9  C   UNL     1       3.129   3.524  17.810  0.00  0.00    +0.000 A 
ATOM     10  C   UNL     1       2.504   2.283  17.978  0.00  0.00    +0.000 A 
ATOM     11  C   UNL     1       1.409   2.168  18.823  0.00  0.00    +0.000 A 
ATOM     12  C   UNL     1       0.973   3.305  19.476  0.00  0.00    +0.000 A 
ATOM     13  N   UNL     1       1.538   4.523  19.323  0.00  0.00    +0.000 NA
ATOM     14  C   UNL     1       2.599   4.642  18.493  0.00  0.00    +0.000 A 
ENDBRANCH   3   5
BRANCH   2  15
ATOM     15  C   UNL     1       1.591   9.225  19.135  0.00  0.00    +0.000 A 
ATOM     16  C   UNL     1       0.947   8.755  20.221  0.00  0.00    +0.000 A 
ATOM     17  C   UNL     1       0.261   9.631  21.138  0.00  0.00    +0.000 A 
ATOM     18  C   UNL     1       0.279  10.959  20.943  0.00  0.00    +0.000 A 
ATOM     19  N   UNL     1       0.920  11.456  19.827  0.00  0.00    +0.000 N 
ATOM     20  C   UNL     1       1.573  10.694  18.889  0.00  0.00    +0.000 A 
ATOM     21  O   UNL     1       2.112  11.198  17.908  0.00  0.00    +0.000 OA
ATOM     22  H   UNL     1       0.874  12.461  19.673  0.00  0.00    +0.000 HD
BRANCH  18  23
ATOM     23  C   UNL     1      -0.389  11.931  21.837  0.00  0.00    +0.000 A 
ATOM     24  C   UNL     1      -1.491  11.590  22.622  0.00  0.00    +0.000 A 
ATOM     25  C   UNL     1      -2.056  12.559  23.445  0.00  0.00    +0.000 A 
ATOM     26  C   UNL     1      -1.512  13.836  23.465  0.00  0.00    +0.000 A 
ATOM     27  C   UNL     1      -0.407  14.089  22.671  0.00  0.00    +0.000 A 
ATOM     28  N   UNL     1       0.173  13.167  21.871  0.00  0.00    +0.000 NA
ENDBRANCH  18  23
ENDBRANCH   2  15
TORSDOF 3
ENDMDL
MODEL 9
REMARK VINA RESULT:      -7.9      5.544      7.377
REMARK  Name = 
REMARK  3 active torsions:
REMARK  status: ('A' for Active; 'I' for Inactive)
REMARK    1  A    between atoms: C_2  and  C_14
REMARK    2  A    between atoms: N_3  and  C_4
REMARK    3  A    between atoms: C_17  and  C_18
REMARK                            x       y       z     vdW  Elec       q    Type
REMARK                         _______ _______ _______ _____ _____    ______ ____
ROOT
ATOM      1  O   UNL     1       2.299   6.835  20.377  0.00  0.00    +0.000 OA
ATOM      2  C   UNL     1       2.091   7.432  19.320  0.00  0.00    +0.000 C 
ATOM      3  N   UNL     1       2.348   6.936  18.065  0.00  0.00    +0.000 N 
ATOM      4  H   UNL     1       2.277   7.569  17.260  0.00  0.00    +0.000 HD
ENDROOT
BRANCH   3   5
ATOM      5  C   UNL     1       2.904   5.668  17.751  0.00  0.00    +0.000 A 
ATOM      6  C   UNL     1       2.148   4.488  17.770  0.00  0.00    +0.000 A 
ATOM      7  C   UNL     1       2.749   3.256  17.541  0.00  0.00    +0.000 A 
ATOM      8  C   UNL     1       4.114   3.195  17.290  0.00  0.00    +0.000 A 
ATOM      9  C   UNL     1       4.876   4.372  17.233  0.00  0.00    +0.000 A 
ATOM     10  C   UNL     1       6.253   4.323  16.989  0.00  0.00    +0.000 A 
ATOM     11  C   UNL     1       6.987   5.500  16.923  0.00  0.00    +0.000 A 
ATOM     12  C   UNL     1       6.314   6.693  17.106  0.00  0.00    +0.000 A 
ATOM     13  N   UNL     1       4.990   6.778  17.363  0.00  0.00    +0.000 NA
ATOM     14  C   UNL     1       4.273   5.633  17.437  0.00  0.00    +0.000 A 
ENDBRANCH   3   5
BRANCH   2  15
ATOM     15  C   UNL     1       1.534   8.815  19.366  0.00  0.00    +0.000 A 
ATOM     16  C   UNL     1       0.885   9.174  20.491  0.00  0.00    +0.000 A 
ATOM     17  C   UNL     1       0.323  10.492  20.658  0.00  0.00    +0.000 A 
ATOM     18  C   UNL     1       0.468  11.413  19.692  0.00  0.00    +0.000 A 
ATOM     19  N   UNL     1       1.116  11.057  18.527  0.00  0.00    +0.000 N 
ATOM     20  C   UNL     1       1.655   9.819  18.273  0.00  0.00    +0.000 A 
ATOM     21  O   UNL     1       2.207   9.562  17.208  0.00  0.00    +0.000 OA
ATOM     22  H   UNL     1       1.165  11.757  17.791  0.00  0.00    +0.000 HD
BRANCH  18  23
ATOM     23  C   UNL     1      -0.067  12.791  19.783  0.00  0.00    +0.000 A 
ATOM     24  C   UNL     1       0.289  13.792  18.879  0.00  0.00    +0.000 A 
ATOM     25  C   UNL     1      -0.267  15.059  19.026  0.00  0.00    +0.000 A 
ATOM     26  C   UNL     1      -1.159  15.295  20.064  0.00  0.00    +0.000 A 
ATOM     27  C   UNL     1      -1.475  14.243  20.906  0.00  0.00    +0.000 A 
ATOM     28  N   UNL     1      -0.963  12.998  20.783  0.00  0.00    +0.000 NA
ENDBRANCH  18  23
ENDBRANCH   2  15
TORSDOF 3
ENDMDL
