MODEL 1
REMARK VINA RESULT:      -9.3      0.000      0.000
REMARK  Name = 
REMARK  6 active torsions:
REMARK  status: ('A' for Active; 'I' for Inactive)
REMARK    1  A    between atoms: C_2  and  C_3
REMARK    2  A    between atoms: C_3  and  C_4
REMARK    3  A    between atoms: C_8  and  O_9
REMARK    4  A    between atoms: O_9  and  C_10
REMARK    5  A    between atoms: C_10  and  C_11
REMARK    6  A    between atoms: N_19  and  C_20
REMARK                            x       y       z     vdW  Elec       q    Type
REMARK                         _______ _______ _______ _____ _____    ______ ____
ROOT
ATOM      1  O   UNL     1       8.201   9.006  17.139  0.00  0.00    +0.000 OA
ATOM      2  C   UNL     1       8.447   8.597  18.277  0.00  0.00    +0.000 C 
ATOM      3  N   UNL     1       9.062   9.325  19.295  0.00  0.00    +0.000 N 
ATOM      4  H   UNL     1       9.368   8.826  20.123  0.00  0.00    +0.000 HD
ENDROOT
BRANCH   3   5
ATOM      5  C   UNL     1       9.483  10.665  19.151  0.00  0.00    +0.000 A 
ATOM      6  C   UNL     1       9.308  11.571  20.202  0.00  0.00    +0.000 A 
ATOM      7  C   UNL     1       9.408  12.929  19.992  0.00  0.00    +0.000 A 
ATOM      8  C   UNL     1       9.868  13.370  18.767  0.00  0.00    +0.000 A 
ATOM      9  C   UNL     1      10.117  14.803  18.625  0.00  0.00    +0.000 A 
ATOM     10  O   UNL     1       9.338  15.648  19.040  0.00  0.00    +0.000 OA
ATOM     11  N   UNL     1      11.342  15.067  18.072  0.00  0.00    +0.000 N 
ATOM     12  C   UNL     1      11.924  14.217  17.159  0.00  0.00    +0.000 A 
ATOM     13  C   UNL     1      11.401  13.007  16.893  0.00  0.00    +0.000 A 
ATOM     14  C   UNL     1      10.381  12.477  17.819  0.00  0.00    +0.000 A 
ATOM     15  C   UNL     1      10.082  11.112  17.958  0.00  0.00    +0.000 A 
ATOM     16  H   UNL     1      11.745  15.968  18.304  0.00  0.00    +0.000 HD
ENDBRANCH   3   5
BRANCH   2  17
ATOM     17  C   UNL     1       8.143   7.145  18.555  0.00  0.00    +0.000 C 
BRANCH  17  18
ATOM     18  C   UNL     1       7.072   6.508  17.734  0.00  0.00    +0.000 A 
ATOM     19  C   UNL     1       7.359   5.477  16.833  0.00  0.00    +0.000 A 
ATOM     20  C   UNL     1       6.325   4.878  16.110  0.00  0.00    +0.000 A 
ATOM     21  C   UNL     1       5.007   5.286  16.299  0.00  0.00    +0.000 A 
ATOM     22  C   UNL     1       4.720   6.292  17.223  0.00  0.00    +0.000 A 
ATOM     23  C   UNL     1       5.751   6.928  17.898  0.00  0.00    +0.000 A 
BRANCH  22  24
ATOM     24  O   UNL     1       3.398   6.563  17.418  0.00  0.00    +0.000 OA
BRANCH  24  25
ATOM     25  C   UNL     1       2.974   6.436  18.781  0.00  0.00    +0.000 C 
BRANCH  25  26
ATOM     26  C   UNL     1       2.272   5.120  19.010  0.00  0.00    +0.000 A 
ATOM     27  C   UNL     1       1.771   4.415  17.914  0.00  0.00    +0.000 A 
ATOM     28  C   UNL     1       1.178   3.189  18.090  0.00  0.00    +0.000 A 
ATOM     29  C   UNL     1       1.060   2.627  19.364  0.00  0.00    +0.000 A 
ATOM     30  C   UNL     1       1.568   3.306  20.449  0.00  0.00    +0.000 A 
ATOM     31 CL   UNL     1       1.450   2.616  22.022  0.00  0.00    +0.000 Cl
ATOM     32  C   UNL     1       2.188   4.552  20.283  0.00  0.00    +0.000 A 
ENDBRANCH  25  26
ENDBRANCH  24  25
ENDBRANCH  22  24
ENDBRANCH  17  18
ENDBRANCH   2  17
TORSDOF 6
ENDMDL
MODEL 2
REMARK VINA RESULT:      -9.1      1.922      2.540
REMARK  Name = 
REMARK  6 active torsions:
REMARK  status: ('A' for Active; 'I' for Inactive)
REMARK    1  A    between atoms: C_2  and  C_3
REMARK    2  A    between atoms: C_3  and  C_4
REMARK    3  A    between atoms: C_8  and  O_9
REMARK    4  A    between atoms: O_9  and  C_10
REMARK    5  A    between atoms: C_10  and  C_11
REMARK    6  A    between atoms: N_19  and  C_20
REMARK                            x       y       z     vdW  Elec       q    Type
REMARK                         _______ _______ _______ _____ _____    ______ ____
ROOT
ATOM      1  O   UNL     1       7.581   8.824  17.465  0.00  0.00    +0.000 OA
ATOM      2  C   UNL     1       8.225   8.305  18.381  0.00  0.00    +0.000 C 
ATOM      3  N   UNL     1       9.105   8.964  19.239  0.00  0.00    +0.000 N 
ATOM      4  H   UNL     1       9.706   8.402  19.833  0.00  0.00    +0.000 HD
ENDROOT
BRANCH   3   5
ATOM      5  C   UNL     1       9.369  10.350  19.174  0.00  0.00    +0.000 A 
ATOM      6  C   UNL     1       9.187  11.152  20.304  0.00  0.00    +0.000 A 
ATOM      7  C   UNL     1       9.126  12.525  20.199  0.00  0.00    +0.000 A 
ATOM      8  C   UNL     1       9.433  13.102  18.982  0.00  0.00    +0.000 A 
ATOM      9  C   UNL     1       9.517  14.560  18.938  0.00  0.00    +0.000 A 
ATOM     10  O   UNL     1       8.690  15.281  19.477  0.00  0.00    +0.000 OA
ATOM     11  N   UNL     1      10.658  14.998  18.319  0.00  0.00    +0.000 N 
ATOM     12  C   UNL     1      11.248  14.287  17.299  0.00  0.00    +0.000 A 
ATOM     13  C   UNL     1      10.835  13.048  16.976  0.00  0.00    +0.000 A 
ATOM     14  C   UNL     1       9.957  12.342  17.929  0.00  0.00    +0.000 A 
ATOM     15  C   UNL     1       9.817  10.946  17.980  0.00  0.00    +0.000 A 
ATOM     16  H   UNL     1      10.981  15.920  18.592  0.00  0.00    +0.000 HD
ENDBRANCH   3   5
BRANCH   2  17
ATOM     17  C   UNL     1       8.124   6.806  18.517  0.00  0.00    +0.000 C 
BRANCH  17  18
ATOM     18  C   UNL     1       7.038   6.129  17.750  0.00  0.00    +0.000 A 
ATOM     19  C   UNL     1       7.091   6.012  16.357  0.00  0.00    +0.000 A 
ATOM     20  C   UNL     1       6.075   5.337  15.676  0.00  0.00    +0.000 A 
ATOM     21  C   UNL     1       5.021   4.759  16.381  0.00  0.00    +0.000 A 
ATOM     22  C   UNL     1       4.988   4.849  17.772  0.00  0.00    +0.000 A 
ATOM     23  C   UNL     1       5.963   5.569  18.445  0.00  0.00    +0.000 A 
BRANCH  22  24
ATOM     24  O   UNL     1       3.976   4.175  18.390  0.00  0.00    +0.000 OA
BRANCH  24  25
ATOM     25  C   UNL     1       2.667   4.613  18.005  0.00  0.00    +0.000 C 
BRANCH  25  26
ATOM     26  C   UNL     1       2.300   5.900  18.701  0.00  0.00    +0.000 A 
ATOM     27  C   UNL     1       2.023   5.881  20.069  0.00  0.00    +0.000 A 
ATOM     28  C   UNL     1       1.742   7.048  20.737  0.00  0.00    +0.000 A 
ATOM     29  C   UNL     1       1.721   8.271  20.063  0.00  0.00    +0.000 A 
ATOM     30  C   UNL     1       2.011   8.303  18.717  0.00  0.00    +0.000 A 
ATOM     31 CL   UNL     1       2.012   9.806  17.877  0.00  0.00    +0.000 Cl
ATOM     32  C   UNL     1       2.313   7.123  18.025  0.00  0.00    +0.000 A 
ENDBRANCH  25  26
ENDBRANCH  24  25
ENDBRANCH  22  24
ENDBRANCH  17  18
ENDBRANCH   2  17
TORSDOF 6
ENDMDL
MODEL 3
REMARK VINA RESULT:      -8.8      1.784      2.494
REMARK  Name = 
REMARK  6 active torsions:
REMARK  status: ('A' for Active; 'I' for Inactive)
REMARK    1  A    between atoms: C_2  and  C_3
REMARK    2  A    between atoms: C_3  and  C_4
REMARK    3  A    between atoms: C_8  and  O_9
REMARK    4  A    between atoms: O_9  and  C_10
REMARK    5  A    between atoms: C_10  and  C_11
REMARK    6  A    between atoms: N_19  and  C_20
REMARK                            x       y       z     vdW  Elec       q    Type
REMARK                         _______ _______ _______ _____ _____    ______ ____
ROOT
ATOM      1  O   UNL     1       7.102   8.280  17.560  0.00  0.00    +0.000 OA
ATOM      2  C   UNL     1       7.932   7.744  18.300  0.00  0.00    +0.000 C 
ATOM      3  N   UNL     1       8.901   8.403  19.057  0.00  0.00    +0.000 N 
ATOM      4  H   UNL     1       9.635   7.847  19.484  0.00  0.00    +0.000 HD
ENDROOT
BRANCH   3   5
ATOM      5  C   UNL     1       9.052   9.806  19.082  0.00  0.00    +0.000 A 
ATOM      6  C   UNL     1       8.816  10.557  17.926  0.00  0.00    +0.000 A 
ATOM      7  C   UNL     1       9.252  11.861  17.825  0.00  0.00    +0.000 A 
ATOM      8  C   UNL     1       9.762  12.470  18.954  0.00  0.00    +0.000 A 
ATOM      9  C   UNL     1      10.068  13.896  18.862  0.00  0.00    +0.000 A 
ATOM     10  O   UNL     1      10.647  14.382  17.902  0.00  0.00    +0.000 OA
ATOM     11  N   UNL     1       9.551  14.608  19.912  0.00  0.00    +0.000 N 
ATOM     12  C   UNL     1       9.415  14.058  21.166  0.00  0.00    +0.000 A 
ATOM     13  C   UNL     1       9.622  12.746  21.383  0.00  0.00    +0.000 A 
ATOM     14  C   UNL     1       9.686  11.853  20.209  0.00  0.00    +0.000 A 
ATOM     15  C   UNL     1       9.439  10.473  20.260  0.00  0.00    +0.000 A 
ATOM     16  H   UNL     1       9.367  15.589  19.730  0.00  0.00    +0.000 HD
ENDBRANCH   3   5
BRANCH   2  17
ATOM     17  C   UNL     1       7.962   6.235  18.305  0.00  0.00    +0.000 C 
BRANCH  17  18
ATOM     18  C   UNL     1       7.086   5.539  17.319  0.00  0.00    +0.000 A 
ATOM     19  C   UNL     1       7.329   5.617  15.944  0.00  0.00    +0.000 A 
ATOM     20  C   UNL     1       6.510   4.919  15.052  0.00  0.00    +0.000 A 
ATOM     21  C   UNL     1       5.469   4.126  15.528  0.00  0.00    +0.000 A 
ATOM     22  C   UNL     1       5.251   4.022  16.901  0.00  0.00    +0.000 A 
ATOM     23  C   UNL     1       6.024   4.761  17.785  0.00  0.00    +0.000 A 
BRANCH  22  24
ATOM     24  O   UNL     1       4.276   3.150  17.287  0.00  0.00    +0.000 OA
BRANCH  24  25
ATOM     25  C   UNL     1       2.945   3.631  17.061  0.00  0.00    +0.000 C 
BRANCH  25  26
ATOM     26  C   UNL     1       2.341   4.172  18.334  0.00  0.00    +0.000 A 
ATOM     27  C   UNL     1       1.746   3.287  19.236  0.00  0.00    +0.000 A 
ATOM     28  C   UNL     1       1.240   3.746  20.427  0.00  0.00    +0.000 A 
ATOM     29  C   UNL     1       1.304   5.102  20.756  0.00  0.00    +0.000 A 
ATOM     30  C   UNL     1       1.905   5.980  19.882  0.00  0.00    +0.000 A 
ATOM     31 CL   UNL     1       2.011   7.651  20.283  0.00  0.00    +0.000 Cl
ATOM     32  C   UNL     1       2.438   5.524  18.668  0.00  0.00    +0.000 A 
ENDBRANCH  25  26
ENDBRANCH  24  25
ENDBRANCH  22  24
ENDBRANCH  17  18
ENDBRANCH   2  17
TORSDOF 6
ENDMDL
MODEL 4
REMARK VINA RESULT:      -8.7      7.007     10.037
REMARK  Name = 
REMARK  6 active torsions:
REMARK  status: ('A' for Active; 'I' for Inactive)
REMARK    1  A    between atoms: C_2  and  C_3
REMARK    2  A    between atoms: C_3  and  C_4
REMARK    3  A    between atoms: C_8  and  O_9
REMARK    4  A    between atoms: O_9  and  C_10
REMARK    5  A    between atoms: C_10  and  C_11
REMARK    6  A    between atoms: N_19  and  C_20
REMARK                            x       y       z     vdW  Elec       q    Type
REMARK                         _______ _______ _______ _____ _____    ______ ____
ROOT
ATOM      1  O   UNL     1      -0.877   8.429  21.965  0.00  0.00    +0.000 OA
ATOM      2  C   UNL     1       0.116   9.158  21.882  0.00  0.00    +0.000 C 
ATOM      3  N   UNL     1       0.109  10.551  21.842  0.00  0.00    +0.000 N 
ATOM      4  H   UNL     1       0.970  11.028  21.596  0.00  0.00    +0.000 HD
ENDROOT
BRANCH   3   5
ATOM      5  C   UNL     1      -1.068  11.328  21.904  0.00  0.00    +0.000 A 
ATOM      6  C   UNL     1      -1.605  11.881  20.738  0.00  0.00    +0.000 A 
ATOM      7  C   UNL     1      -2.547  12.886  20.796  0.00  0.00    +0.000 A 
ATOM      8  C   UNL     1      -3.086  13.207  22.026  0.00  0.00    +0.000 A 
ATOM      9  C   UNL     1      -4.194  14.160  22.040  0.00  0.00    +0.000 A 
ATOM     10  O   UNL     1      -4.185  15.185  21.375  0.00  0.00    +0.000 OA
ATOM     11  N   UNL     1      -5.249  13.721  22.795  0.00  0.00    +0.000 N 
ATOM     12  C   UNL     1      -5.068  12.926  23.904  0.00  0.00    +0.000 A 
ATOM     13  C   UNL     1      -3.865  12.402  24.203  0.00  0.00    +0.000 A 
ATOM     14  C   UNL     1      -2.821  12.430  23.160  0.00  0.00    +0.000 A 
ATOM     15  C   UNL     1      -1.720  11.560  23.130  0.00  0.00    +0.000 A 
ATOM     16  H   UNL     1      -6.157  14.095  22.542  0.00  0.00    +0.000 HD
ENDBRANCH   3   5
BRANCH   2  17
ATOM     17  C   UNL     1       1.449   8.470  21.709  0.00  0.00    +0.000 C 
BRANCH  17  18
ATOM     18  C   UNL     1       1.752   7.914  20.359  0.00  0.00    +0.000 A 
ATOM     19  C   UNL     1       1.787   8.731  19.223  0.00  0.00    +0.000 A 
ATOM     20  C   UNL     1       2.114   8.182  17.981  0.00  0.00    +0.000 A 
ATOM     21  C   UNL     1       2.429   6.829  17.872  0.00  0.00    +0.000 A 
ATOM     22  C   UNL     1       2.425   6.024  19.011  0.00  0.00    +0.000 A 
ATOM     23  C   UNL     1       2.044   6.554  20.234  0.00  0.00    +0.000 A 
BRANCH  22  24
ATOM     24  O   UNL     1       2.839   4.737  18.833  0.00  0.00    +0.000 OA
BRANCH  24  25
ATOM     25  C   UNL     1       4.092   4.437  19.460  0.00  0.00    +0.000 C 
BRANCH  25  26
ATOM     26  C   UNL     1       5.234   4.577  18.484  0.00  0.00    +0.000 A 
ATOM     27  C   UNL     1       6.472   5.032  18.943  0.00  0.00    +0.000 A 
ATOM     28  C   UNL     1       7.542   5.114  18.088  0.00  0.00    +0.000 A 
ATOM     29  C   UNL     1       7.415   4.751  16.745  0.00  0.00    +0.000 A 
ATOM     30  C   UNL     1       6.204   4.282  16.286  0.00  0.00    +0.000 A 
ATOM     31 CL   UNL     1       6.037   3.810  14.639  0.00  0.00    +0.000 Cl
ATOM     32  C   UNL     1       5.105   4.181  17.151  0.00  0.00    +0.000 A 
ENDBRANCH  25  26
ENDBRANCH  24  25
ENDBRANCH  22  24
ENDBRANCH  17  18
ENDBRANCH   2  17
TORSDOF 6
ENDMDL
MODEL 5
REMARK VINA RESULT:      -8.7      1.449      1.715
REMARK  Name = 
REMARK  6 active torsions:
REMARK  status: ('A' for Active; 'I' for Inactive)
REMARK    1  A    between atoms: C_2  and  C_3
REMARK    2  A    between atoms: C_3  and  C_4
REMARK    3  A    between atoms: C_8  and  O_9
REMARK    4  A    between atoms: O_9  and  C_10
REMARK    5  A    between atoms: C_10  and  C_11
REMARK    6  A    between atoms: N_19  and  C_20
REMARK                            x       y       z     vdW  Elec       q    Type
REMARK                         _______ _______ _______ _____ _____    ______ ____
ROOT
ATOM      1  O   UNL     1       7.539   9.071  17.559  0.00  0.00    +0.000 OA
ATOM      2  C   UNL     1       8.253   8.511  18.396  0.00  0.00    +0.000 C 
ATOM      3  N   UNL     1       9.217   9.126  19.194  0.00  0.00    +0.000 N 
ATOM      4  H   UNL     1       9.858   8.534  19.712  0.00  0.00    +0.000 HD
ENDROOT
BRANCH   3   5
ATOM      5  C   UNL     1       9.499  10.509  19.152  0.00  0.00    +0.000 A 
ATOM      6  C   UNL     1       9.296  11.300  20.287  0.00  0.00    +0.000 A 
ATOM      7  C   UNL     1       9.254  12.674  20.196  0.00  0.00    +0.000 A 
ATOM      8  C   UNL     1       9.600  13.262  18.996  0.00  0.00    +0.000 A 
ATOM      9  C   UNL     1       9.702  14.719  18.972  0.00  0.00    +0.000 A 
ATOM     10  O   UNL     1       8.869  15.443  19.497  0.00  0.00    +0.000 OA
ATOM     11  N   UNL     1      10.863  15.151  18.388  0.00  0.00    +0.000 N 
ATOM     12  C   UNL     1      11.473  14.445  17.376  0.00  0.00    +0.000 A 
ATOM     13  C   UNL     1      11.054  13.215  17.027  0.00  0.00    +0.000 A 
ATOM     14  C   UNL     1      10.143  12.508  17.948  0.00  0.00    +0.000 A 
ATOM     15  C   UNL     1       9.985  11.114  17.977  0.00  0.00    +0.000 A 
ATOM     16  H   UNL     1      11.190  16.065  18.681  0.00  0.00    +0.000 HD
ENDBRANCH   3   5
BRANCH   2  17
ATOM     17  C   UNL     1       8.137   7.009  18.489  0.00  0.00    +0.000 C 
BRANCH  17  18
ATOM     18  C   UNL     1       6.982   6.375  17.790  0.00  0.00    +0.000 A 
ATOM     19  C   UNL     1       6.449   6.921  16.617  0.00  0.00    +0.000 A 
ATOM     20  C   UNL     1       5.391   6.277  15.969  0.00  0.00    +0.000 A 
ATOM     21  C   UNL     1       4.883   5.082  16.471  0.00  0.00    +0.000 A 
ATOM     22  C   UNL     1       5.438   4.523  17.622  0.00  0.00    +0.000 A 
ATOM     23  C   UNL     1       6.447   5.190  18.300  0.00  0.00    +0.000 A 
BRANCH  22  24
ATOM     24  O   UNL     1       4.948   3.305  17.990  0.00  0.00    +0.000 OA
BRANCH  24  25
ATOM     25  C   UNL     1       4.716   3.174  19.398  0.00  0.00    +0.000 C 
BRANCH  25  26
ATOM     26  C   UNL     1       3.316   3.608  19.760  0.00  0.00    +0.000 A 
ATOM     27  C   UNL     1       2.303   2.650  19.834  0.00  0.00    +0.000 A 
ATOM     28  C   UNL     1       1.035   3.009  20.217  0.00  0.00    +0.000 A 
ATOM     29  C   UNL     1       0.731   4.336  20.532  0.00  0.00    +0.000 A 
ATOM     30  C   UNL     1       1.728   5.285  20.480  0.00  0.00    +0.000 A 
ATOM     31 CL   UNL     1       1.375   6.921  20.887  0.00  0.00    +0.000 Cl
ATOM     32  C   UNL     1       3.031   4.931  20.104  0.00  0.00    +0.000 A 
ENDBRANCH  25  26
ENDBRANCH  24  25
ENDBRANCH  22  24
ENDBRANCH  17  18
ENDBRANCH   2  17
TORSDOF 6
ENDMDL
MODEL 6
REMARK VINA RESULT:      -8.7      6.266      9.600
REMARK  Name = 
REMARK  6 active torsions:
REMARK  status: ('A' for Active; 'I' for Inactive)
REMARK    1  A    between atoms: C_2  and  C_3
REMARK    2  A    between atoms: C_3  and  C_4
REMARK    3  A    between atoms: C_8  and  O_9
REMARK    4  A    between atoms: O_9  and  C_10
REMARK    5  A    between atoms: C_10  and  C_11
REMARK    6  A    between atoms: N_19  and  C_20
REMARK                            x       y       z     vdW  Elec       q    Type
REMARK                         _______ _______ _______ _____ _____    ______ ____
ROOT
ATOM      1  O   UNL     1      -0.369   8.466  21.213  0.00  0.00    +0.000 OA
ATOM      2  C   UNL     1       0.562   8.795  20.472  0.00  0.00    +0.000 C 
ATOM      3  N   UNL     1       0.486   9.697  19.411  0.00  0.00    +0.000 N 
ATOM      4  H   UNL     1       1.271   9.749  18.770  0.00  0.00    +0.000 HD
ENDROOT
BRANCH   3   5
ATOM      5  C   UNL     1      -0.697  10.376  19.046  0.00  0.00    +0.000 A 
ATOM      6  C   UNL     1      -1.034  11.580  19.670  0.00  0.00    +0.000 A 
ATOM      7  C   UNL     1      -2.309  12.097  19.575  0.00  0.00    +0.000 A 
ATOM      8  C   UNL     1      -3.194  11.499  18.701  0.00  0.00    +0.000 A 
ATOM      9  C   UNL     1      -4.482  12.159  18.501  0.00  0.00    +0.000 A 
ATOM     10  O   UNL     1      -5.141  12.605  19.428  0.00  0.00    +0.000 OA
ATOM     11  N   UNL     1      -4.797  12.296  17.175  0.00  0.00    +0.000 N 
ATOM     12  C   UNL     1      -4.389  11.377  16.234  0.00  0.00    +0.000 A 
ATOM     13  C   UNL     1      -3.522  10.395  16.540  0.00  0.00    +0.000 A 
ATOM     14  C   UNL     1      -2.774  10.506  17.808  0.00  0.00    +0.000 A 
ATOM     15  C   UNL     1      -1.554   9.857  18.057  0.00  0.00    +0.000 A 
ATOM     16  H   UNL     1      -5.425  13.058  16.948  0.00  0.00    +0.000 HD
ENDBRANCH   3   5
BRANCH   2  17
ATOM     17  C   UNL     1       1.875   8.079  20.675  0.00  0.00    +0.000 C 
BRANCH  17  18
ATOM     18  C   UNL     1       1.932   6.644  20.270  0.00  0.00    +0.000 A 
ATOM     19  C   UNL     1       1.548   5.623  21.146  0.00  0.00    +0.000 A 
ATOM     20  C   UNL     1       1.578   4.293  20.720  0.00  0.00    +0.000 A 
ATOM     21  C   UNL     1       1.964   3.981  19.418  0.00  0.00    +0.000 A 
ATOM     22  C   UNL     1       2.313   5.004  18.537  0.00  0.00    +0.000 A 
ATOM     23  C   UNL     1       2.342   6.319  18.976  0.00  0.00    +0.000 A 
BRANCH  22  24
ATOM     24  O   UNL     1       2.584   4.621  17.256  0.00  0.00    +0.000 OA
BRANCH  24  25
ATOM     25  C   UNL     1       3.510   3.532  17.159  0.00  0.00    +0.000 C 
BRANCH  25  26
ATOM     26  C   UNL     1       4.901   4.029  16.853  0.00  0.00    +0.000 A 
ATOM     27  C   UNL     1       5.409   3.885  15.561  0.00  0.00    +0.000 A 
ATOM     28  C   UNL     1       6.649   4.379  15.242  0.00  0.00    +0.000 A 
ATOM     29  C   UNL     1       7.429   5.028  16.203  0.00  0.00    +0.000 A 
ATOM     30  C   UNL     1       6.930   5.192  17.476  0.00  0.00    +0.000 A 
ATOM     31 CL   UNL     1       7.869   6.010  18.665  0.00  0.00    +0.000 Cl
ATOM     32  C   UNL     1       5.660   4.705  17.812  0.00  0.00    +0.000 A 
ENDBRANCH  25  26
ENDBRANCH  24  25
ENDBRANCH  22  24
ENDBRANCH  17  18
ENDBRANCH   2  17
TORSDOF 6
ENDMDL
MODEL 7
REMARK VINA RESULT:      -8.6      6.300      9.918
REMARK  Name = 
REMARK  6 active torsions:
REMARK  status: ('A' for Active; 'I' for Inactive)
REMARK    1  A    between atoms: C_2  and  C_3
REMARK    2  A    between atoms: C_3  and  C_4
REMARK    3  A    between atoms: C_8  and  O_9
REMARK    4  A    between atoms: O_9  and  C_10
REMARK    5  A    between atoms: C_10  and  C_11
REMARK    6  A    between atoms: N_19  and  C_20
REMARK                            x       y       z     vdW  Elec       q    Type
REMARK                         _______ _______ _______ _____ _____    ______ ____
ROOT
ATOM      1  O   UNL     1       0.304   9.466  20.532  0.00  0.00    +0.000 OA
ATOM      2  C   UNL     1       0.644   9.413  19.346  0.00  0.00    +0.000 C 
ATOM      3  N   UNL     1      -0.129   9.805  18.254  0.00  0.00    +0.000 N 
ATOM      4  H   UNL     1       0.188   9.549  17.326  0.00  0.00    +0.000 HD
ENDROOT
BRANCH   3   5
ATOM      5  C   UNL     1      -1.431  10.340  18.371  0.00  0.00    +0.000 A 
ATOM      6  C   UNL     1      -2.497   9.745  17.690  0.00  0.00    +0.000 A 
ATOM      7  C   UNL     1      -3.693  10.409  17.524  0.00  0.00    +0.000 A 
ATOM      8  C   UNL     1      -3.882  11.597  18.203  0.00  0.00    +0.000 A 
ATOM      9  C   UNL     1      -5.212  12.198  18.139  0.00  0.00    +0.000 A 
ATOM     10  O   UNL     1      -5.846  12.277  17.096  0.00  0.00    +0.000 OA
ATOM     11  N   UNL     1      -5.682  12.559  19.374  0.00  0.00    +0.000 N 
ATOM     12  C   UNL     1      -4.837  12.970  20.379  0.00  0.00    +0.000 A 
ATOM     13  C   UNL     1      -3.500  12.875  20.256  0.00  0.00    +0.000 A 
ATOM     14  C   UNL     1      -2.965  12.037  19.165  0.00  0.00    +0.000 A 
ATOM     15  C   UNL     1      -1.680  11.473  19.169  0.00  0.00    +0.000 A 
ATOM     16  H   UNL     1      -6.691  12.596  19.467  0.00  0.00    +0.000 HD
ENDBRANCH   3   5
BRANCH   2  17
ATOM     17  C   UNL     1       1.977   8.770  19.051  0.00  0.00    +0.000 C 
BRANCH  17  18
ATOM     18  C   UNL     1       2.081   7.298  19.265  0.00  0.00    +0.000 A 
ATOM     19  C   UNL     1       1.861   6.725  20.522  0.00  0.00    +0.000 A 
ATOM     20  C   UNL     1       1.928   5.338  20.677  0.00  0.00    +0.000 A 
ATOM     21  C   UNL     1       2.188   4.521  19.579  0.00  0.00    +0.000 A 
ATOM     22  C   UNL     1       2.374   5.092  18.320  0.00  0.00    +0.000 A 
ATOM     23  C   UNL     1       2.367   6.471  18.176  0.00  0.00    +0.000 A 
BRANCH  22  24
ATOM     24  O   UNL     1       2.526   4.218  17.285  0.00  0.00    +0.000 OA
BRANCH  24  25
ATOM     25  C   UNL     1       3.666   3.359  17.414  0.00  0.00    +0.000 C 
BRANCH  25  26
ATOM     26  C   UNL     1       4.944   4.105  17.118  0.00  0.00    +0.000 A 
ATOM     27  C   UNL     1       5.244   4.446  15.798  0.00  0.00    +0.000 A 
ATOM     28  C   UNL     1       6.371   5.174  15.508  0.00  0.00    +0.000 A 
ATOM     29  C   UNL     1       7.241   5.581  16.523  0.00  0.00    +0.000 A 
ATOM     30  C   UNL     1       6.944   5.266  17.831  0.00  0.00    +0.000 A 
ATOM     31 CL   UNL     1       7.994   5.779  19.095  0.00  0.00    +0.000 Cl
ATOM     32  C   UNL     1       5.789   4.535  18.143  0.00  0.00    +0.000 A 
ENDBRANCH  25  26
ENDBRANCH  24  25
ENDBRANCH  22  24
ENDBRANCH  17  18
ENDBRANCH   2  17
TORSDOF 6
ENDMDL
MODEL 8
REMARK VINA RESULT:      -8.6      6.256      8.392
REMARK  Name = 
REMARK  6 active torsions:
REMARK  status: ('A' for Active; 'I' for Inactive)
REMARK    1  A    between atoms: C_2  and  C_3
REMARK    2  A    between atoms: C_3  and  C_4
REMARK    3  A    between atoms: C_8  and  O_9
REMARK    4  A    between atoms: O_9  and  C_10
REMARK    5  A    between atoms: C_10  and  C_11
REMARK    6  A    between atoms: N_19  and  C_20
REMARK                            x       y       z     vdW  Elec       q    Type
REMARK                         _______ _______ _______ _____ _____    ______ ____
ROOT
ATOM      1  O   UNL     1       1.591   4.544  17.900  0.00  0.00    +0.000 OA
ATOM      2  C   UNL     1       2.782   4.831  18.050  0.00  0.00    +0.000 C 
ATOM      3  N   UNL     1       3.281   6.063  18.471  0.00  0.00    +0.000 N 
ATOM      4  H   UNL     1       4.278   6.231  18.385  0.00  0.00    +0.000 HD
ENDROOT
BRANCH   3   5
ATOM      5  C   UNL     1       2.463   7.166  18.800  0.00  0.00    +0.000 A 
ATOM      6  C   UNL     1       2.030   8.040  17.798  0.00  0.00    +0.000 A 
ATOM      7  C   UNL     1       1.510   9.277  18.112  0.00  0.00    +0.000 A 
ATOM      8  C   UNL     1       1.254   9.563  19.438  0.00  0.00    +0.000 A 
ATOM      9  C   UNL     1       0.557  10.814  19.728  0.00  0.00    +0.000 A 
ATOM     10  O   UNL     1       0.851  11.869  19.186  0.00  0.00    +0.000 OA
ATOM     11  N   UNL     1      -0.497  10.637  20.585  0.00  0.00    +0.000 N 
ATOM     12  C   UNL     1      -0.485   9.664  21.559  0.00  0.00    +0.000 A 
ATOM     13  C   UNL     1       0.484   8.733  21.609  0.00  0.00    +0.000 A 
ATOM     14  C   UNL     1       1.353   8.575  20.426  0.00  0.00    +0.000 A 
ATOM     15  C   UNL     1       2.071   7.406  20.130  0.00  0.00    +0.000 A 
ATOM     16  H   UNL     1      -1.239  11.325  20.519  0.00  0.00    +0.000 HD
ENDBRANCH   3   5
BRANCH   2  17
ATOM     17  C   UNL     1       3.788   3.782  17.644  0.00  0.00    +0.000 C 
BRANCH  17  18
ATOM     18  C   UNL     1       5.087   4.268  17.095  0.00  0.00    +0.000 A 
ATOM     19  C   UNL     1       6.263   4.220  17.851  0.00  0.00    +0.000 A 
ATOM     20  C   UNL     1       7.469   4.647  17.290  0.00  0.00    +0.000 A 
ATOM     21  C   UNL     1       7.510   5.098  15.972  0.00  0.00    +0.000 A 
ATOM     22  C   UNL     1       6.342   5.114  15.210  0.00  0.00    +0.000 A 
ATOM     23  C   UNL     1       5.134   4.746  15.784  0.00  0.00    +0.000 A 
BRANCH  22  24
ATOM     24  O   UNL     1       6.487   5.477  13.904  0.00  0.00    +0.000 OA
BRANCH  24  25
ATOM     25  C   UNL     1       7.420   4.667  13.177  0.00  0.00    +0.000 C 
BRANCH  25  26
ATOM     26  C   UNL     1       6.705   3.644  12.330  0.00  0.00    +0.000 A 
ATOM     27  C   UNL     1       7.417   2.548  11.838  0.00  0.00    +0.000 A 
ATOM     28  C   UNL     1       6.778   1.573  11.113  0.00  0.00    +0.000 A 
ATOM     29  C   UNL     1       5.409   1.659  10.849  0.00  0.00    +0.000 A 
ATOM     30  C   UNL     1       4.693   2.726  11.346  0.00  0.00    +0.000 A 
ATOM     31 CL   UNL     1       3.001   2.835  11.048  0.00  0.00    +0.000 Cl
ATOM     32  C   UNL     1       5.329   3.722  12.099  0.00  0.00    +0.000 A 
ENDBRANCH  25  26
ENDBRANCH  24  25
ENDBRANCH  22  24
ENDBRANCH  17  18
ENDBRANCH   2  17
TORSDOF 6
ENDMDL
MODEL 9
REMARK VINA RESULT:      -8.4      6.266      9.042
REMARK  Name = 
REMARK  6 active torsions:
REMARK  status: ('A' for Active; 'I' for Inactive)
REMARK    1  A    between atoms: C_2  and  C_3
REMARK    2  A    between atoms: C_3  and  C_4
REMARK    3  A    between atoms: C_8  and  O_9
REMARK    4  A    between atoms: O_9  and  C_10
REMARK    5  A    between atoms: C_10  and  C_11
REMARK    6  A    between atoms: N_19  and  C_20
REMARK                            x       y       z     vdW  Elec       q    Type
REMARK                         _______ _______ _______ _____ _____    ______ ____
ROOT
ATOM      1  O   UNL     1       2.055  11.115  18.421  0.00  0.00    +0.000 OA
ATOM      2  C   UNL     1       1.458  10.039  18.318  0.00  0.00    +0.000 C 
ATOM      3  N   UNL     1       0.177   9.764  18.796  0.00  0.00    +0.000 N 
ATOM      4  H   UNL     1      -0.132   8.798  18.807  0.00  0.00    +0.000 HD
ENDROOT
BRANCH   3   5
ATOM      5  C   UNL     1      -0.627  10.712  19.467  0.00  0.00    +0.000 A 
ATOM      6  C   UNL     1      -1.474  11.552  18.739  0.00  0.00    +0.000 A 
ATOM      7  C   UNL     1      -2.021  12.680  19.314  0.00  0.00    +0.000 A 
ATOM      8  C   UNL     1      -1.865  12.862  20.673  0.00  0.00    +0.000 A 
ATOM      9  C   UNL     1      -2.586  13.976  21.284  0.00  0.00    +0.000 A 
ATOM     10  O   UNL     1      -2.627  15.088  20.776  0.00  0.00    +0.000 OA
ATOM     11  N   UNL     1      -3.270  13.601  22.409  0.00  0.00    +0.000 N 
ATOM     12  C   UNL     1      -2.813  12.599  23.235  0.00  0.00    +0.000 A 
ATOM     13  C   UNL     1      -1.767  11.827  22.890  0.00  0.00    +0.000 A 
ATOM     14  C   UNL     1      -1.320  11.858  21.483  0.00  0.00    +0.000 A 
ATOM     15  C   UNL     1      -0.591  10.828  20.869  0.00  0.00    +0.000 A 
ATOM     16  H   UNL     1      -4.076  14.169  22.645  0.00  0.00    +0.000 HD
ENDBRANCH   3   5
BRANCH   2  17
ATOM     17  C   UNL     1       2.227   8.893  17.708  0.00  0.00    +0.000 C 
BRANCH  17  18
ATOM     18  C   UNL     1       2.273   7.620  18.484  0.00  0.00    +0.000 A 
ATOM     19  C   UNL     1       2.029   7.596  19.862  0.00  0.00    +0.000 A 
ATOM     20  C   UNL     1       2.043   6.379  20.549  0.00  0.00    +0.000 A 
ATOM     21  C   UNL     1       2.273   5.188  19.865  0.00  0.00    +0.000 A 
ATOM     22  C   UNL     1       2.483   5.212  18.486  0.00  0.00    +0.000 A 
ATOM     23  C   UNL     1       2.529   6.423  17.812  0.00  0.00    +0.000 A 
BRANCH  22  24
ATOM     24  O   UNL     1       2.603   3.996  17.880  0.00  0.00    +0.000 OA
BRANCH  24  25
ATOM     25  C   UNL     1       3.801   3.291  18.227  0.00  0.00    +0.000 C 
BRANCH  25  26
ATOM     26  C   UNL     1       4.991   3.842  17.481  0.00  0.00    +0.000 A 
ATOM     27  C   UNL     1       6.052   4.395  18.202  0.00  0.00    +0.000 A 
ATOM     28  C   UNL     1       7.171   4.851  17.551  0.00  0.00    +0.000 A 
ATOM     29  C   UNL     1       7.269   4.778  16.159  0.00  0.00    +0.000 A 
ATOM     30  C   UNL     1       6.236   4.217  15.440  0.00  0.00    +0.000 A 
ATOM     31 CL   UNL     1       6.352   4.100  13.726  0.00  0.00    +0.000 Cl
ATOM     32  C   UNL     1       5.094   3.735  16.092  0.00  0.00    +0.000 A 
ENDBRANCH  25  26
ENDBRANCH  24  25
ENDBRANCH  22  24
ENDBRANCH  17  18
ENDBRANCH   2  17
TORSDOF 6
ENDMDL
