MODEL 1
REMARK VINA RESULT:      -7.9      0.000      0.000
REMARK  Name = 
REMARK  6 active torsions:
REMARK  status: ('A' for Active; 'I' for Inactive)
REMARK    1  A    between atoms: C_1  and  C_2
REMARK    2  A    between atoms: C_4  and  C_5
REMARK    3  A    between atoms: C_5  and  O_7
REMARK    4  A    between atoms: O_7  and  C_8
REMARK    5  A    between atoms: C_8  and  C_9
REMARK    6  A    between atoms: N_11  and  C_12
REMARK                            x       y       z     vdW  Elec       q    Type
REMARK                         _______ _______ _______ _____ _____    ______ ____
ROOT
ATOM      1  O   UNL     1       5.761   5.895  18.281  0.00  0.00    +0.000 OA
ENDROOT
BRANCH   1   2
ATOM      2  C   UNL     1       4.579   6.290  17.748  0.00  0.00    +0.000 C 
ATOM      3  O   UNL     1       4.461   6.850  16.669  0.00  0.00    +0.000 OA
BRANCH   2   7
ATOM      4  C   UNL     1       1.268   7.651  21.240  0.00  0.00    +0.000 C 
ATOM      5  C   UNL     1       1.869   6.639  20.310  0.00  0.00    +0.000 A 
ATOM      6  C   UNL     1       2.959   6.940  19.515  0.00  0.00    +0.000 A 
ATOM      7  C   UNL     1       3.455   5.946  18.660  0.00  0.00    +0.000 A 
ATOM      8  C   UNL     1       2.854   4.662  18.626  0.00  0.00    +0.000 A 
ATOM      9  C   UNL     1       3.282   3.568  17.827  0.00  0.00    +0.000 A 
ATOM     10  C   UNL     1       2.619   2.342  17.854  0.00  0.00    +0.000 A 
ATOM     11  C   UNL     1       1.519   2.181  18.682  0.00  0.00    +0.000 A 
ATOM     12  C   UNL     1       1.099   3.244  19.480  0.00  0.00    +0.000 A 
ATOM     13  C   UNL     1       1.746   4.472  19.474  0.00  0.00    +0.000 A 
ATOM     14  N   UNL     1       1.271   5.429  20.287  0.00  0.00    +0.000 NA
ENDBRANCH   2   7
ENDBRANCH   1   2
BRANCH   1  15
ATOM     15  C   UNL     1       6.900   6.213  17.479  0.00  0.00    +0.000 C 
BRANCH  15  16
ATOM     16  C   UNL     1       7.113   5.232  16.322  0.00  0.00    +0.000 C 
ATOM     17  O   UNL     1       7.770   4.207  16.500  0.00  0.00    +0.000 OA
ATOM     18  N   UNL     1       6.543   5.628  15.122  0.00  0.00    +0.000 N 
ATOM     19  H   UNL     1       6.242   6.605  15.053  0.00  0.00    +0.000 HD
BRANCH  18  20
ATOM     20  C   UNL     1       6.597   4.907  13.906  0.00  0.00    +0.000 A 
ATOM     21  C   UNL     1       5.632   3.968  13.531  0.00  0.00    +0.000 A 
ATOM     22  C   UNL     1       5.787   3.240  12.355  0.00  0.00    +0.000 A 
ATOM     23  F   UNL     1       4.865   2.328  12.022  0.00  0.00    +0.000 F 
ATOM     24  C   UNL     1       6.885   3.434  11.523  0.00  0.00    +0.000 A 
ATOM     25  C   UNL     1       7.832   4.398  11.861  0.00  0.00    +0.000 A 
ATOM     26  C   UNL     1       7.675   5.132  13.038  0.00  0.00    +0.000 A 
ATOM     27  F   UNL     1       8.601   6.053  13.349  0.00  0.00    +0.000 F 
ENDBRANCH  18  20
ENDBRANCH  15  16
ENDBRANCH   1  15
TORSDOF 5
ENDMDL
MODEL 2
REMARK VINA RESULT:      -7.9      3.368      6.984
REMARK  Name = 
REMARK  6 active torsions:
REMARK  status: ('A' for Active; 'I' for Inactive)
REMARK    1  A    between atoms: C_1  and  C_2
REMARK    2  A    between atoms: C_4  and  C_5
REMARK    3  A    between atoms: C_5  and  O_7
REMARK    4  A    between atoms: O_7  and  C_8
REMARK    5  A    between atoms: C_8  and  C_9
REMARK    6  A    between atoms: N_11  and  C_12
REMARK                            x       y       z     vdW  Elec       q    Type
REMARK                         _______ _______ _______ _____ _____    ______ ____
ROOT
ATOM      1  O   UNL     1       4.259   3.266  19.758  0.00  0.00    +0.000 OA
ENDROOT
BRANCH   1   2
ATOM      2  C   UNL     1       4.303   3.283  18.403  0.00  0.00    +0.000 C 
ATOM      3  O   UNL     1       3.533   2.670  17.680  0.00  0.00    +0.000 OA
BRANCH   2   7
ATOM      4  C   UNL     1       8.146   6.324  19.395  0.00  0.00    +0.000 C 
ATOM      5  C   UNL     1       7.263   5.578  18.440  0.00  0.00    +0.000 A 
ATOM      6  C   UNL     1       6.186   4.831  18.880  0.00  0.00    +0.000 A 
ATOM      7  C   UNL     1       5.415   4.149  17.928  0.00  0.00    +0.000 A 
ATOM      8  C   UNL     1       5.733   4.237  16.548  0.00  0.00    +0.000 A 
ATOM      9  C   UNL     1       5.013   3.619  15.492  0.00  0.00    +0.000 A 
ATOM     10  C   UNL     1       5.409   3.756  14.162  0.00  0.00    +0.000 A 
ATOM     11  C   UNL     1       6.527   4.517  13.859  0.00  0.00    +0.000 A 
ATOM     12  C   UNL     1       7.233   5.140  14.888  0.00  0.00    +0.000 A 
ATOM     13  C   UNL     1       6.855   5.021  16.219  0.00  0.00    +0.000 A 
ATOM     14  N   UNL     1       7.593   5.668  17.135  0.00  0.00    +0.000 NA
ENDBRANCH   2   7
ENDBRANCH   1   2
BRANCH   1  15
ATOM     15  C   UNL     1       2.946   3.414  20.303  0.00  0.00    +0.000 C 
BRANCH  15  16
ATOM     16  C   UNL     1       2.204   4.638  19.759  0.00  0.00    +0.000 C 
ATOM     17  O   UNL     1       1.152   4.491  19.136  0.00  0.00    +0.000 OA
ATOM     18  N   UNL     1       2.833   5.847  20.007  0.00  0.00    +0.000 N 
ATOM     19  H   UNL     1       3.810   5.806  20.314  0.00  0.00    +0.000 HD
BRANCH  18  20
ATOM     20  C   UNL     1       2.360   7.120  19.611  0.00  0.00    +0.000 A 
ATOM     21  C   UNL     1       1.607   7.950  20.446  0.00  0.00    +0.000 A 
ATOM     22  C   UNL     1       1.109   9.157  19.965  0.00  0.00    +0.000 A 
ATOM     23  F   UNL     1       0.371   9.931  20.772  0.00  0.00    +0.000 F 
ATOM     24  C   UNL     1       1.356   9.574  18.661  0.00  0.00    +0.000 A 
ATOM     25  C   UNL     1       2.141   8.779  17.831  0.00  0.00    +0.000 A 
ATOM     26  C   UNL     1       2.645   7.569  18.314  0.00  0.00    +0.000 A 
ATOM     27  F   UNL     1       3.397   6.814  17.496  0.00  0.00    +0.000 F 
ENDBRANCH  18  20
ENDBRANCH  15  16
ENDBRANCH   1  15
TORSDOF 5
ENDMDL
MODEL 3
REMARK VINA RESULT:      -7.9      5.192      8.388
REMARK  Name = 
REMARK  6 active torsions:
REMARK  status: ('A' for Active; 'I' for Inactive)
REMARK    1  A    between atoms: C_1  and  C_2
REMARK    2  A    between atoms: C_4  and  C_5
REMARK    3  A    between atoms: C_5  and  O_7
REMARK    4  A    between atoms: O_7  and  C_8
REMARK    5  A    between atoms: C_8  and  C_9
REMARK    6  A    between atoms: N_11  and  C_12
REMARK                            x       y       z     vdW  Elec       q    Type
REMARK                         _______ _______ _______ _____ _____    ______ ____
ROOT
ATOM      1  O   UNL     1       1.831   7.879  17.836  0.00  0.00    +0.000 OA
ENDROOT
BRANCH   1   2
ATOM      2  C   UNL     1       2.421   7.069  18.749  0.00  0.00    +0.000 C 
ATOM      3  O   UNL     1       2.412   7.266  19.955  0.00  0.00    +0.000 OA
BRANCH   2   7
ATOM      4  C   UNL     1       6.081   5.242  15.874  0.00  0.00    +0.000 C 
ATOM      5  C   UNL     1       4.855   5.072  16.721  0.00  0.00    +0.000 A 
ATOM      6  C   UNL     1       4.207   6.154  17.286  0.00  0.00    +0.000 A 
ATOM      7  C   UNL     1       3.075   5.914  18.077  0.00  0.00    +0.000 A 
ATOM      8  C   UNL     1       2.606   4.591  18.279  0.00  0.00    +0.000 A 
ATOM      9  C   UNL     1       1.459   4.225  19.031  0.00  0.00    +0.000 A 
ATOM     10  C   UNL     1       1.081   2.891  19.182  0.00  0.00    +0.000 A 
ATOM     11  C   UNL     1       1.836   1.897  18.580  0.00  0.00    +0.000 A 
ATOM     12  C   UNL     1       2.957   2.247  17.827  0.00  0.00    +0.000 A 
ATOM     13  C   UNL     1       3.350   3.568  17.659  0.00  0.00    +0.000 A 
ATOM     14  N   UNL     1       4.436   3.803  16.907  0.00  0.00    +0.000 NA
ENDBRANCH   2   7
ENDBRANCH   1   2
BRANCH   1  15
ATOM     15  C   UNL     1       2.281   9.235  17.880  0.00  0.00    +0.000 C 
BRANCH  15  16
ATOM     16  C   UNL     1       1.150  10.234  18.142  0.00  0.00    +0.000 C 
ATOM     17  O   UNL     1       1.411  11.356  18.577  0.00  0.00    +0.000 OA
ATOM     18  N   UNL     1      -0.119   9.745  17.878  0.00  0.00    +0.000 N 
ATOM     19  H   UNL     1      -0.209   8.731  17.759  0.00  0.00    +0.000 HD
BRANCH  18  20
ATOM     20  C   UNL     1      -1.329  10.462  18.039  0.00  0.00    +0.000 A 
ATOM     21  C   UNL     1      -1.600  11.265  19.150  0.00  0.00    +0.000 A 
ATOM     22  C   UNL     1      -2.841  11.881  19.280  0.00  0.00    +0.000 A 
ATOM     23  F   UNL     1      -3.092  12.630  20.361  0.00  0.00    +0.000 F 
ATOM     24  C   UNL     1      -3.830  11.729  18.313  0.00  0.00    +0.000 A 
ATOM     25  C   UNL     1      -3.558  10.968  17.178  0.00  0.00    +0.000 A 
ATOM     26  C   UNL     1      -2.312  10.353  17.045  0.00  0.00    +0.000 A 
ATOM     27  F   UNL     1      -2.071   9.619  15.946  0.00  0.00    +0.000 F 
ENDBRANCH  18  20
ENDBRANCH  15  16
ENDBRANCH   1  15
TORSDOF 5
ENDMDL
MODEL 4
REMARK VINA RESULT:      -7.9      4.838      8.817
REMARK  Name = 
REMARK  6 active torsions:
REMARK  status: ('A' for Active; 'I' for Inactive)
REMARK    1  A    between atoms: C_1  and  C_2
REMARK    2  A    between atoms: C_4  and  C_5
REMARK    3  A    between atoms: C_5  and  O_7
REMARK    4  A    between atoms: O_7  and  C_8
REMARK    5  A    between atoms: C_8  and  C_9
REMARK    6  A    between atoms: N_11  and  C_12
REMARK                            x       y       z     vdW  Elec       q    Type
REMARK                         _______ _______ _______ _____ _____    ______ ____
ROOT
ATOM      1  O   UNL     1       2.777   8.357  17.925  0.00  0.00    +0.000 OA
ENDROOT
BRANCH   1   2
ATOM      2  C   UNL     1       2.708   7.257  18.713  0.00  0.00    +0.000 C 
ATOM      3  O   UNL     1       2.281   7.252  19.857  0.00  0.00    +0.000 OA
BRANCH   2   7
ATOM      4  C   UNL     1       6.025   5.189  15.594  0.00  0.00    +0.000 C 
ATOM      5  C   UNL     1       4.844   5.104  16.515  0.00  0.00    +0.000 A 
ATOM      6  C   UNL     1       4.321   6.226  17.130  0.00  0.00    +0.000 A 
ATOM      7  C   UNL     1       3.225   6.064  17.989  0.00  0.00    +0.000 A 
ATOM      8  C   UNL     1       2.665   4.779  18.206  0.00  0.00    +0.000 A 
ATOM      9  C   UNL     1       1.541   4.494  19.026  0.00  0.00    +0.000 A 
ATOM     10  C   UNL     1       1.068   3.193  19.186  0.00  0.00    +0.000 A 
ATOM     11  C   UNL     1       1.702   2.151  18.528  0.00  0.00    +0.000 A 
ATOM     12  C   UNL     1       2.798   2.422  17.710  0.00  0.00    +0.000 A 
ATOM     13  C   UNL     1       3.285   3.710  17.531  0.00  0.00    +0.000 A 
ATOM     14  N   UNL     1       4.337   3.869  16.714  0.00  0.00    +0.000 NA
ENDBRANCH   2   7
ENDBRANCH   1   2
BRANCH   1  15
ATOM     15  C   UNL     1       1.511   8.967  17.661  0.00  0.00    +0.000 C 
BRANCH  15  16
ATOM     16  C   UNL     1       1.099   9.983  18.730  0.00  0.00    +0.000 C 
ATOM     17  O   UNL     1       1.668  11.073  18.793  0.00  0.00    +0.000 OA
ATOM     18  N   UNL     1       0.098   9.544  19.582  0.00  0.00    +0.000 N 
ATOM     19  H   UNL     1      -0.110   8.541  19.574  0.00  0.00    +0.000 HD
BRANCH  18  20
ATOM     20  C   UNL     1      -0.458  10.285  20.652  0.00  0.00    +0.000 A 
ATOM     21  C   UNL     1      -1.176  11.470  20.469  0.00  0.00    +0.000 A 
ATOM     22  C   UNL     1      -1.630  12.188  21.571  0.00  0.00    +0.000 A 
ATOM     23  F   UNL     1      -2.298  13.333  21.379  0.00  0.00    +0.000 F 
ATOM     24  C   UNL     1      -1.399  11.745  22.869  0.00  0.00    +0.000 A 
ATOM     25  C   UNL     1      -0.723  10.543  23.066  0.00  0.00    +0.000 A 
ATOM     26  C   UNL     1      -0.271   9.820  21.961  0.00  0.00    +0.000 A 
ATOM     27  F   UNL     1       0.382   8.665  22.172  0.00  0.00    +0.000 F 
ENDBRANCH  18  20
ENDBRANCH  15  16
ENDBRANCH   1  15
TORSDOF 5
ENDMDL
MODEL 5
REMARK VINA RESULT:      -7.8      5.027      8.887
REMARK  Name = 
REMARK  6 active torsions:
REMARK  status: ('A' for Active; 'I' for Inactive)
REMARK    1  A    between atoms: C_1  and  C_2
REMARK    2  A    between atoms: C_4  and  C_5
REMARK    3  A    between atoms: C_5  and  O_7
REMARK    4  A    between atoms: O_7  and  C_8
REMARK    5  A    between atoms: C_8  and  C_9
REMARK    6  A    between atoms: N_11  and  C_12
REMARK                            x       y       z     vdW  Elec       q    Type
REMARK                         _______ _______ _______ _____ _____    ______ ____
ROOT
ATOM      1  O   UNL     1       1.649   8.021  17.783  0.00  0.00    +0.000 OA
ENDROOT
BRANCH   1   2
ATOM      2  C   UNL     1       2.352   7.302  18.691  0.00  0.00    +0.000 C 
ATOM      3  O   UNL     1       2.360   7.526  19.892  0.00  0.00    +0.000 OA
BRANCH   2   7
ATOM      4  C   UNL     1       6.297   5.767  16.029  0.00  0.00    +0.000 C 
ATOM      5  C   UNL     1       5.019   5.507  16.770  0.00  0.00    +0.000 A 
ATOM      6  C   UNL     1       4.282   6.533  17.331  0.00  0.00    +0.000 A 
ATOM      7  C   UNL     1       3.106   6.209  18.021  0.00  0.00    +0.000 A 
ATOM      8  C   UNL     1       2.683   4.859  18.126  0.00  0.00    +0.000 A 
ATOM      9  C   UNL     1       1.500   4.410  18.771  0.00  0.00    +0.000 A 
ATOM     10  C   UNL     1       1.173   3.057  18.832  0.00  0.00    +0.000 A 
ATOM     11  C   UNL     1       2.015   2.125  18.247  0.00  0.00    +0.000 A 
ATOM     12  C   UNL     1       3.172   2.556  17.599  0.00  0.00    +0.000 A 
ATOM     13  C   UNL     1       3.517   3.899  17.522  0.00  0.00    +0.000 A 
ATOM     14  N   UNL     1       4.645   4.214  16.867  0.00  0.00    +0.000 NA
ENDBRANCH   2   7
ENDBRANCH   1   2
BRANCH   1  15
ATOM     15  C   UNL     1       1.864   9.432  17.861  0.00  0.00    +0.000 C 
BRANCH  15  16
ATOM     16  C   UNL     1       0.820  10.153  18.717  0.00  0.00    +0.000 C 
ATOM     17  O   UNL     1      -0.312  10.344  18.272  0.00  0.00    +0.000 OA
ATOM     18  N   UNL     1       1.280  10.564  19.958  0.00  0.00    +0.000 N 
ATOM     19  H   UNL     1       2.295  10.560  20.099  0.00  0.00    +0.000 HD
BRANCH  18  20
ATOM     20  C   UNL     1       0.519  11.251  20.934  0.00  0.00    +0.000 A 
ATOM     21  C   UNL     1      -0.320  10.603  21.844  0.00  0.00    +0.000 A 
ATOM     22  C   UNL     1      -1.097  11.346  22.727  0.00  0.00    +0.000 A 
ATOM     23  F   UNL     1      -1.912  10.709  23.579  0.00  0.00    +0.000 F 
ATOM     24  C   UNL     1      -1.051  12.736  22.740  0.00  0.00    +0.000 A 
ATOM     25  C   UNL     1      -0.186  13.394  21.869  0.00  0.00    +0.000 A 
ATOM     26  C   UNL     1       0.597  12.650  20.985  0.00  0.00    +0.000 A 
ATOM     27  F   UNL     1       1.422  13.303  20.150  0.00  0.00    +0.000 F 
ENDBRANCH  18  20
ENDBRANCH  15  16
ENDBRANCH   1  15
TORSDOF 5
ENDMDL
MODEL 6
REMARK VINA RESULT:      -7.8      1.612      2.273
REMARK  Name = 
REMARK  6 active torsions:
REMARK  status: ('A' for Active; 'I' for Inactive)
REMARK    1  A    between atoms: C_1  and  C_2
REMARK    2  A    between atoms: C_4  and  C_5
REMARK    3  A    between atoms: C_5  and  O_7
REMARK    4  A    between atoms: O_7  and  C_8
REMARK    5  A    between atoms: C_8  and  C_9
REMARK    6  A    between atoms: N_11  and  C_12
REMARK                            x       y       z     vdW  Elec       q    Type
REMARK                         _______ _______ _______ _____ _____    ______ ____
ROOT
ATOM      1  O   UNL     1       6.655   6.289  18.915  0.00  0.00    +0.000 OA
ENDROOT
BRANCH   1   2
ATOM      2  C   UNL     1       6.032   5.101  18.724  0.00  0.00    +0.000 C 
ATOM      3  O   UNL     1       6.603   4.023  18.661  0.00  0.00    +0.000 OA
BRANCH   2   7
ATOM      4  C   UNL     1       2.106   8.138  18.118  0.00  0.00    +0.000 C 
ATOM      5  C   UNL     1       2.710   6.776  18.285  0.00  0.00    +0.000 A 
ATOM      6  C   UNL     1       4.069   6.602  18.469  0.00  0.00    +0.000 A 
ATOM      7  C   UNL     1       4.562   5.297  18.603  0.00  0.00    +0.000 A 
ATOM      8  C   UNL     1       3.679   4.187  18.562  0.00  0.00    +0.000 A 
ATOM      9  C   UNL     1       4.052   2.826  18.715  0.00  0.00    +0.000 A 
ATOM     10  C   UNL     1       3.111   1.800  18.649  0.00  0.00    +0.000 A 
ATOM     11  C   UNL     1       1.777   2.112  18.435  0.00  0.00    +0.000 A 
ATOM     12  C   UNL     1       1.398   3.447  18.297  0.00  0.00    +0.000 A 
ATOM     13  C   UNL     1       2.317   4.486  18.363  0.00  0.00    +0.000 A 
ATOM     14  N   UNL     1       1.851   5.737  18.230  0.00  0.00    +0.000 NA
ENDBRANCH   2   7
ENDBRANCH   1   2
BRANCH   1  15
ATOM     15  C   UNL     1       7.514   6.678  17.841  0.00  0.00    +0.000 C 
BRANCH  15  16
ATOM     16  C   UNL     1       6.926   6.372  16.461  0.00  0.00    +0.000 C 
ATOM     17  O   UNL     1       5.992   7.046  16.028  0.00  0.00    +0.000 OA
ATOM     18  N   UNL     1       7.512   5.295  15.814  0.00  0.00    +0.000 N 
ATOM     19  H   UNL     1       8.102   4.679  16.382  0.00  0.00    +0.000 HD
BRANCH  18  20
ATOM     20  C   UNL     1       7.153   4.806  14.536  0.00  0.00    +0.000 A 
ATOM     21  C   UNL     1       7.696   5.301  13.347  0.00  0.00    +0.000 A 
ATOM     22  C   UNL     1       7.242   4.826  12.121  0.00  0.00    +0.000 A 
ATOM     23  F   UNL     1       7.758   5.328  10.991  0.00  0.00    +0.000 F 
ATOM     24  C   UNL     1       6.258   3.846  12.043  0.00  0.00    +0.000 A 
ATOM     25  C   UNL     1       5.739   3.311  13.220  0.00  0.00    +0.000 A 
ATOM     26  C   UNL     1       6.197   3.784  14.451  0.00  0.00    +0.000 A 
ATOM     27  F   UNL     1       5.681   3.258  15.574  0.00  0.00    +0.000 F 
ENDBRANCH  18  20
ENDBRANCH  15  16
ENDBRANCH   1  15
TORSDOF 5
ENDMDL
MODEL 7
REMARK VINA RESULT:      -7.7      5.292      8.587
REMARK  Name = 
REMARK  6 active torsions:
REMARK  status: ('A' for Active; 'I' for Inactive)
REMARK    1  A    between atoms: C_1  and  C_2
REMARK    2  A    between atoms: C_4  and  C_5
REMARK    3  A    between atoms: C_5  and  O_7
REMARK    4  A    between atoms: O_7  and  C_8
REMARK    5  A    between atoms: C_8  and  C_9
REMARK    6  A    between atoms: N_11  and  C_12
REMARK                            x       y       z     vdW  Elec       q    Type
REMARK                         _______ _______ _______ _____ _____    ______ ____
ROOT
ATOM      1  O   UNL     1       1.951   7.975  17.745  0.00  0.00    +0.000 OA
ENDROOT
BRANCH   1   2
ATOM      2  C   UNL     1       2.554   7.147  18.632  0.00  0.00    +0.000 C 
ATOM      3  O   UNL     1       2.590   7.334  19.839  0.00  0.00    +0.000 OA
BRANCH   2   7
ATOM      4  C   UNL     1       6.097   5.267  15.645  0.00  0.00    +0.000 C 
ATOM      5  C   UNL     1       4.888   5.117  16.520  0.00  0.00    +0.000 A 
ATOM      6  C   UNL     1       4.281   6.207  17.114  0.00  0.00    +0.000 A 
ATOM      7  C   UNL     1       3.163   5.985  17.930  0.00  0.00    +0.000 A 
ATOM      8  C   UNL     1       2.666   4.671  18.126  0.00  0.00    +0.000 A 
ATOM      9  C   UNL     1       1.529   4.324  18.903  0.00  0.00    +0.000 A 
ATOM     10  C   UNL     1       1.122   2.998  19.046  0.00  0.00    +0.000 A 
ATOM     11  C   UNL     1       1.837   1.994  18.413  0.00  0.00    +0.000 A 
ATOM     12  C   UNL     1       2.947   2.325  17.637  0.00  0.00    +0.000 A 
ATOM     13  C   UNL     1       3.369   3.638  17.477  0.00  0.00    +0.000 A 
ATOM     14  N   UNL     1       4.442   3.856  16.701  0.00  0.00    +0.000 NA
ENDBRANCH   2   7
ENDBRANCH   1   2
BRANCH   1  15
ATOM     15  C   UNL     1       1.921   9.345  18.151  0.00  0.00    +0.000 C 
BRANCH  15  16
ATOM     16  C   UNL     1       0.592   9.754  18.791  0.00  0.00    +0.000 C 
ATOM     17  O   UNL     1       0.362   9.465  19.966  0.00  0.00    +0.000 OA
ATOM     18  N   UNL     1      -0.278  10.414  17.938  0.00  0.00    +0.000 N 
ATOM     19  H   UNL     1      -0.065  10.369  16.936  0.00  0.00    +0.000 HD
BRANCH  18  20
ATOM     20  C   UNL     1      -1.565  10.892  18.279  0.00  0.00    +0.000 A 
ATOM     21  C   UNL     1      -2.744  10.356  17.753  0.00  0.00    +0.000 A 
ATOM     22  C   UNL     1      -3.973  10.925  18.073  0.00  0.00    +0.000 A 
ATOM     23  F   UNL     1      -5.091  10.413  17.543  0.00  0.00    +0.000 F 
ATOM     24  C   UNL     1      -4.063  12.020  18.927  0.00  0.00    +0.000 A 
ATOM     25  C   UNL     1      -2.901  12.537  19.494  0.00  0.00    +0.000 A 
ATOM     26  C   UNL     1      -1.668  11.964  19.176  0.00  0.00    +0.000 A 
ATOM     27  F   UNL     1      -0.558  12.480  19.729  0.00  0.00    +0.000 F 
ENDBRANCH  18  20
ENDBRANCH  15  16
ENDBRANCH   1  15
TORSDOF 5
ENDMDL
MODEL 8
REMARK VINA RESULT:      -7.7      5.021      7.712
REMARK  Name = 
REMARK  6 active torsions:
REMARK  status: ('A' for Active; 'I' for Inactive)
REMARK    1  A    between atoms: C_1  and  C_2
REMARK    2  A    between atoms: C_4  and  C_5
REMARK    3  A    between atoms: C_5  and  O_7
REMARK    4  A    between atoms: O_7  and  C_8
REMARK    5  A    between atoms: C_8  and  C_9
REMARK    6  A    between atoms: N_11  and  C_12
REMARK                            x       y       z     vdW  Elec       q    Type
REMARK                         _______ _______ _______ _____ _____    ______ ____
ROOT
ATOM      1  O   UNL     1       7.095   7.588  18.137  0.00  0.00    +0.000 OA
ENDROOT
BRANCH   1   2
ATOM      2  C   UNL     1       7.229   6.256  18.345  0.00  0.00    +0.000 C 
ATOM      3  O   UNL     1       8.016   5.755  19.134  0.00  0.00    +0.000 OA
BRANCH   2   7
ATOM      4  C   UNL     1       6.241   3.904  14.044  0.00  0.00    +0.000 C 
ATOM      5  C   UNL     1       5.859   4.357  15.422  0.00  0.00    +0.000 A 
ATOM      6  C   UNL     1       6.709   5.124  16.196  0.00  0.00    +0.000 A 
ATOM      7  C   UNL     1       6.287   5.496  17.480  0.00  0.00    +0.000 A 
ATOM      8  C   UNL     1       5.012   5.102  17.960  0.00  0.00    +0.000 A 
ATOM      9  C   UNL     1       4.463   5.440  19.225  0.00  0.00    +0.000 A 
ATOM     10  C   UNL     1       3.200   4.995  19.614  0.00  0.00    +0.000 A 
ATOM     11  C   UNL     1       2.458   4.208  18.748  0.00  0.00    +0.000 A 
ATOM     12  C   UNL     1       2.983   3.881  17.497  0.00  0.00    +0.000 A 
ATOM     13  C   UNL     1       4.235   4.316  17.086  0.00  0.00    +0.000 A 
ATOM     14  N   UNL     1       4.647   3.958  15.860  0.00  0.00    +0.000 NA
ENDBRANCH   2   7
ENDBRANCH   1   2
BRANCH   1  15
ATOM     15  C   UNL     1       8.276   8.225  17.642  0.00  0.00    +0.000 C 
BRANCH  15  16
ATOM     16  C   UNL     1       8.473   9.639  18.194  0.00  0.00    +0.000 C 
ATOM     17  O   UNL     1       7.923  10.594  17.645  0.00  0.00    +0.000 OA
ATOM     18  N   UNL     1       9.314   9.714  19.293  0.00  0.00    +0.000 N 
ATOM     19  H   UNL     1       9.890   8.889  19.491  0.00  0.00    +0.000 HD
BRANCH  18  20
ATOM     20  C   UNL     1       9.662  10.897  19.987  0.00  0.00    +0.000 A 
ATOM     21  C   UNL     1       9.038  11.301  21.170  0.00  0.00    +0.000 A 
ATOM     22  C   UNL     1       9.378  12.515  21.759  0.00  0.00    +0.000 A 
ATOM     23  F   UNL     1       8.754  12.898  22.880  0.00  0.00    +0.000 F 
ATOM     24  C   UNL     1      10.347  13.343  21.202  0.00  0.00    +0.000 A 
ATOM     25  C   UNL     1      11.010  12.933  20.048  0.00  0.00    +0.000 A 
ATOM     26  C   UNL     1      10.672  11.713  19.459  0.00  0.00    +0.000 A 
ATOM     27  F   UNL     1      11.319  11.337  18.344  0.00  0.00    +0.000 F 
ENDBRANCH  18  20
ENDBRANCH  15  16
ENDBRANCH   1  15
TORSDOF 5
ENDMDL
MODEL 9
REMARK VINA RESULT:      -7.6      5.044      8.942
REMARK  Name = 
REMARK  6 active torsions:
REMARK  status: ('A' for Active; 'I' for Inactive)
REMARK    1  A    between atoms: C_1  and  C_2
REMARK    2  A    between atoms: C_4  and  C_5
REMARK    3  A    between atoms: C_5  and  O_7
REMARK    4  A    between atoms: O_7  and  C_8
REMARK    5  A    between atoms: C_8  and  C_9
REMARK    6  A    between atoms: N_11  and  C_12
REMARK                            x       y       z     vdW  Elec       q    Type
REMARK                         _______ _______ _______ _____ _____    ______ ____
ROOT
ATOM      1  O   UNL     1       1.570   7.784  17.928  0.00  0.00    +0.000 OA
ENDROOT
BRANCH   1   2
ATOM      2  C   UNL     1       2.214   7.106  18.908  0.00  0.00    +0.000 C 
ATOM      3  O   UNL     1       2.444   7.553  20.021  0.00  0.00    +0.000 OA
BRANCH   2   7
ATOM      4  C   UNL     1       1.324   2.190  18.694  0.00  0.00    +0.000 C 
ATOM      5  C   UNL     1       2.125   3.405  18.334  0.00  0.00    +0.000 A 
ATOM      6  C   UNL     1       1.810   4.656  18.831  0.00  0.00    +0.000 A 
ATOM      7  C   UNL     1       2.596   5.747  18.437  0.00  0.00    +0.000 A 
ATOM      8  C   UNL     1       3.695   5.562  17.559  0.00  0.00    +0.000 A 
ATOM      9  C   UNL     1       4.580   6.580  17.113  0.00  0.00    +0.000 A 
ATOM     10  C   UNL     1       5.629   6.302  16.239  0.00  0.00    +0.000 A 
ATOM     11  C   UNL     1       5.821   5.002  15.796  0.00  0.00    +0.000 A 
ATOM     12  C   UNL     1       4.966   3.993  16.238  0.00  0.00    +0.000 A 
ATOM     13  C   UNL     1       3.917   4.245  17.112  0.00  0.00    +0.000 A 
ATOM     14  N   UNL     1       3.157   3.205  17.488  0.00  0.00    +0.000 NA
ENDBRANCH   2   7
ENDBRANCH   1   2
BRANCH   1  15
ATOM     15  C   UNL     1       1.852   9.185  17.903  0.00  0.00    +0.000 C 
BRANCH  15  16
ATOM     16  C   UNL     1       0.846  10.015  18.705  0.00  0.00    +0.000 C 
ATOM     17  O   UNL     1      -0.220  10.352  18.189  0.00  0.00    +0.000 OA
ATOM     18  N   UNL     1       1.265  10.348  19.983  0.00  0.00    +0.000 N 
ATOM     19  H   UNL     1       2.260  10.216  20.192  0.00  0.00    +0.000 HD
BRANCH  18  20
ATOM     20  C   UNL     1       0.528  11.107  20.922  0.00  0.00    +0.000 A 
ATOM     21  C   UNL     1      -0.351  10.536  21.846  0.00  0.00    +0.000 A 
ATOM     22  C   UNL     1      -1.102  11.348  22.690  0.00  0.00    +0.000 A 
ATOM     23  F   UNL     1      -1.955  10.785  23.555  0.00  0.00    +0.000 F 
ATOM     24  C   UNL     1      -0.990  12.734  22.649  0.00  0.00    +0.000 A 
ATOM     25  C   UNL     1      -0.086  13.317  21.764  0.00  0.00    +0.000 A 
ATOM     26  C   UNL     1       0.671  12.502  20.920  0.00  0.00    +0.000 A 
ATOM     27  F   UNL     1       1.534  13.083  20.070  0.00  0.00    +0.000 F 
ENDBRANCH  18  20
ENDBRANCH  15  16
ENDBRANCH   1  15
TORSDOF 5
ENDMDL
