MODEL 1
REMARK VINA RESULT:      -8.8      0.000      0.000
REMARK  Name = 
REMARK  5 active torsions:
REMARK  status: ('A' for Active; 'I' for Inactive)
REMARK    1  A    between atoms: C_1  and  C_2
REMARK    2  A    between atoms: C_2  and  S_3
REMARK    3  A    between atoms: S_3  and  C_6
REMARK    4  A    between atoms: C_10  and  C_11
REMARK    5  A    between atoms: C_11  and  C_12
REMARK                            x       y       z     vdW  Elec       q    Type
REMARK                         _______ _______ _______ _____ _____    ______ ____
ROOT
ATOM      1  C   UNL     1       2.005   8.021  19.386  0.00  0.00    +0.000 C 
ATOM      2  O   UNL     1       1.517   8.393  20.455  0.00  0.00    +0.000 OA
ATOM      3  N   UNL     1       2.701   6.828  19.266  0.00  0.00    +0.000 N 
ATOM      4  C   UNL     1       2.678   5.857  20.372  0.00  0.00    +0.000 C 
ATOM      5  C   UNL     1       2.218   4.519  19.831  0.00  0.00    +0.000 A 
ATOM      6  C   UNL     1       1.363   3.683  20.562  0.00  0.00    +0.000 A 
ATOM      7  C   UNL     1       0.724   2.623  19.923  0.00  0.00    +0.000 A 
ATOM      8  C   UNL     1       0.933   2.410  18.563  0.00  0.00    +0.000 A 
ATOM      9  C   UNL     1       1.874   3.178  17.870  0.00  0.00    +0.000 A 
ATOM     10  C   UNL     1       2.588   4.200  18.508  0.00  0.00    +0.000 A 
ATOM     11  C   UNL     1       3.690   5.035  17.861  0.00  0.00    +0.000 C 
ATOM     12  C   UNL     1       5.104   4.455  17.855  0.00  0.00    +0.000 C 
ATOM     13  C   UNL     1       4.348   4.567  16.571  0.00  0.00    +0.000 C 
ATOM     14  C   UNL     1       3.623   6.527  18.169  0.00  0.00    +0.000 C 
ENDROOT
BRANCH   1  15
ATOM     15  C   UNL     1       1.784   8.853  18.129  0.00  0.00    +0.000 C 
BRANCH  15  20
ATOM     16  C   UNL     1      -1.451  10.927  17.963  0.00  0.00    +0.000 A 
ATOM     17  C   UNL     1      -1.010  12.145  18.483  0.00  0.00    +0.000 A 
ATOM     18  C   UNL     1       0.331  12.297  18.814  0.00  0.00    +0.000 A 
ATOM     19  C   UNL     1       1.210  11.224  18.661  0.00  0.00    +0.000 A 
ATOM     20  C   UNL     1       0.767   9.974  18.186  0.00  0.00    +0.000 A 
ATOM     21  C   UNL     1      -0.578   9.836  17.818  0.00  0.00    +0.000 A 
BRANCH  16  22
ATOM     22  S   UNL     1      -3.185  10.758  17.554  0.00  0.00    +0.000 S 
ATOM     23  O   UNL     1      -3.891  11.781  18.318  0.00  0.00    +0.000 OA
ATOM     24  O   UNL     1      -3.523   9.350  17.716  0.00  0.00    +0.000 OA
BRANCH  22  26
ATOM     25  C   UNL     1      -3.015   9.941  14.960  0.00  0.00    +0.000 C 
ATOM     26  C   UNL     1      -3.240  11.166  15.825  0.00  0.00    +0.000 C 
ENDBRANCH  22  26
ENDBRANCH  16  22
ENDBRANCH  15  20
ENDBRANCH   1  15
TORSDOF 4
ENDMDL
MODEL 2
REMARK VINA RESULT:      -8.3      0.905      1.159
REMARK  Name = 
REMARK  5 active torsions:
REMARK  status: ('A' for Active; 'I' for Inactive)
REMARK    1  A    between atoms: C_1  and  C_2
REMARK    2  A    between atoms: C_2  and  S_3
REMARK    3  A    between atoms: S_3  and  C_6
REMARK    4  A    between atoms: C_10  and  C_11
REMARK    5  A    between atoms: C_11  and  C_12
REMARK                            x       y       z     vdW  Elec       q    Type
REMARK                         _______ _______ _______ _____ _____    ______ ____
ROOT
ATOM      1  C   UNL     1       2.033   8.000  19.450  0.00  0.00    +0.000 C 
ATOM      2  O   UNL     1       1.517   8.369  20.507  0.00  0.00    +0.000 OA
ATOM      3  N   UNL     1       2.715   6.797  19.341  0.00  0.00    +0.000 N 
ATOM      4  C   UNL     1       2.643   5.817  20.436  0.00  0.00    +0.000 C 
ATOM      5  C   UNL     1       2.180   4.491  19.868  0.00  0.00    +0.000 A 
ATOM      6  C   UNL     1       1.290   3.662  20.563  0.00  0.00    +0.000 A 
ATOM      7  C   UNL     1       0.657   2.617  19.894  0.00  0.00    +0.000 A 
ATOM      8  C   UNL     1       0.906   2.413  18.540  0.00  0.00    +0.000 A 
ATOM      9  C   UNL     1       1.880   3.173  17.885  0.00  0.00    +0.000 A 
ATOM     10  C   UNL     1       2.589   4.179  18.555  0.00  0.00    +0.000 A 
ATOM     11  C   UNL     1       3.722   5.003  17.952  0.00  0.00    +0.000 C 
ATOM     12  C   UNL     1       5.127   4.402  17.985  0.00  0.00    +0.000 C 
ATOM     13  C   UNL     1       4.415   4.537  16.679  0.00  0.00    +0.000 C 
ATOM     14  C   UNL     1       3.667   6.492  18.271  0.00  0.00    +0.000 C 
ENDROOT
BRANCH   1  15
ATOM     15  C   UNL     1       1.865   8.846  18.195  0.00  0.00    +0.000 C 
BRANCH  15  20
ATOM     16  C   UNL     1      -1.583  10.463  17.655  0.00  0.00    +0.000 A 
ATOM     17  C   UNL     1      -1.382  11.714  18.242  0.00  0.00    +0.000 A 
ATOM     18  C   UNL     1      -0.126  12.038  18.739  0.00  0.00    +0.000 A 
ATOM     19  C   UNL     1       0.906  11.099  18.683  0.00  0.00    +0.000 A 
ATOM     20  C   UNL     1       0.703   9.816  18.140  0.00  0.00    +0.000 A 
ATOM     21  C   UNL     1      -0.555   9.506  17.605  0.00  0.00    +0.000 A 
BRANCH  16  22
ATOM     22  S   UNL     1      -3.214  10.071  17.032  0.00  0.00    +0.000 S 
ATOM     23  O   UNL     1      -3.787   9.099  17.955  0.00  0.00    +0.000 OA
ATOM     24  O   UNL     1      -3.061   9.748  15.619  0.00  0.00    +0.000 OA
BRANCH  22  26
ATOM     25  C   UNL     1      -5.164  11.540  18.244  0.00  0.00    +0.000 C 
ATOM     26  C   UNL     1      -4.089  11.612  17.176  0.00  0.00    +0.000 C 
ENDBRANCH  22  26
ENDBRANCH  16  22
ENDBRANCH  15  20
ENDBRANCH   1  15
TORSDOF 4
ENDMDL
MODEL 3
REMARK VINA RESULT:      -8.1      1.629      3.279
REMARK  Name = 
REMARK  5 active torsions:
REMARK  status: ('A' for Active; 'I' for Inactive)
REMARK    1  A    between atoms: C_1  and  C_2
REMARK    2  A    between atoms: C_2  and  S_3
REMARK    3  A    between atoms: S_3  and  C_6
REMARK    4  A    between atoms: C_10  and  C_11
REMARK    5  A    between atoms: C_11  and  C_12
REMARK                            x       y       z     vdW  Elec       q    Type
REMARK                         _______ _______ _______ _____ _____    ______ ____
ROOT
ATOM      1  C   UNL     1       2.394   8.481  18.084  0.00  0.00    +0.000 C 
ATOM      2  O   UNL     1       2.575   9.428  17.317  0.00  0.00    +0.000 OA
ATOM      3  N   UNL     1       2.971   7.237  17.874  0.00  0.00    +0.000 N 
ATOM      4  C   UNL     1       4.008   7.081  16.842  0.00  0.00    +0.000 C 
ATOM      5  C   UNL     1       5.235   6.464  17.480  0.00  0.00    +0.000 A 
ATOM      6  C   UNL     1       6.530   6.871  17.132  0.00  0.00    +0.000 A 
ATOM      7  C   UNL     1       7.606   6.511  17.941  0.00  0.00    +0.000 A 
ATOM      8  C   UNL     1       7.383   5.761  19.093  0.00  0.00    +0.000 A 
ATOM      9  C   UNL     1       6.106   5.265  19.369  0.00  0.00    +0.000 A 
ATOM     10  C   UNL     1       5.020   5.546  18.529  0.00  0.00    +0.000 A 
ATOM     11  C   UNL     1       3.611   4.986  18.700  0.00  0.00    +0.000 C 
ATOM     12  C   UNL     1       3.325   3.603  18.115  0.00  0.00    +0.000 C 
ATOM     13  C   UNL     1       3.371   3.780  19.598  0.00  0.00    +0.000 C 
ATOM     14  C   UNL     1       2.492   6.000  18.494  0.00  0.00    +0.000 C 
ENDROOT
BRANCH   1  15
ATOM     15  C   UNL     1       1.569   8.685  19.349  0.00  0.00    +0.000 C 
BRANCH  15  20
ATOM     16  C   UNL     1      -1.603  10.748  18.657  0.00  0.00    +0.000 A 
ATOM     17  C   UNL     1      -1.428  11.807  19.550  0.00  0.00    +0.000 A 
ATOM     18  C   UNL     1      -0.265  11.873  20.307  0.00  0.00    +0.000 A 
ATOM     19  C   UNL     1       0.693  10.864  20.197  0.00  0.00    +0.000 A 
ATOM     20  C   UNL     1       0.505   9.764  19.339  0.00  0.00    +0.000 A 
ATOM     21  C   UNL     1      -0.651   9.720  18.549  0.00  0.00    +0.000 A 
BRANCH  16  22
ATOM     22  S   UNL     1      -3.115  10.686  17.703  0.00  0.00    +0.000 S 
ATOM     23  O   UNL     1      -3.965  11.761  18.203  0.00  0.00    +0.000 OA
ATOM     24  O   UNL     1      -3.577   9.304  17.731  0.00  0.00    +0.000 OA
BRANCH  22  26
ATOM     25  C   UNL     1      -3.048  10.035  15.057  0.00  0.00    +0.000 C 
ATOM     26  C   UNL     1      -2.576  11.076  16.054  0.00  0.00    +0.000 C 
ENDBRANCH  22  26
ENDBRANCH  16  22
ENDBRANCH  15  20
ENDBRANCH   1  15
TORSDOF 4
ENDMDL
MODEL 4
REMARK VINA RESULT:      -8.0      2.156      3.717
REMARK  Name = 
REMARK  5 active torsions:
REMARK  status: ('A' for Active; 'I' for Inactive)
REMARK    1  A    between atoms: C_1  and  C_2
REMARK    2  A    between atoms: C_2  and  S_3
REMARK    3  A    between atoms: S_3  and  C_6
REMARK    4  A    between atoms: C_10  and  C_11
REMARK    5  A    between atoms: C_11  and  C_12
REMARK                            x       y       z     vdW  Elec       q    Type
REMARK                         _______ _______ _______ _____ _____    ______ ____
ROOT
ATOM      1  C   UNL     1       2.409   7.988  18.575  0.00  0.00    +0.000 C 
ATOM      2  O   UNL     1       2.392   9.012  17.889  0.00  0.00    +0.000 OA
ATOM      3  N   UNL     1       3.146   6.869  18.216  0.00  0.00    +0.000 N 
ATOM      4  C   UNL     1       4.118   6.960  17.114  0.00  0.00    +0.000 C 
ATOM      5  C   UNL     1       5.466   6.489  17.618  0.00  0.00    +0.000 A 
ATOM      6  C   UNL     1       6.658   7.117  17.233  0.00  0.00    +0.000 A 
ATOM      7  C   UNL     1       7.830   6.861  17.940  0.00  0.00    +0.000 A 
ATOM      8  C   UNL     1       7.805   5.993  19.028  0.00  0.00    +0.000 A 
ATOM      9  C   UNL     1       6.639   5.285  19.332  0.00  0.00    +0.000 A 
ATOM     10  C   UNL     1       5.466   5.465  18.587  0.00  0.00    +0.000 A 
ATOM     11  C   UNL     1       4.171   4.682  18.789  0.00  0.00    +0.000 C 
ATOM     12  C   UNL     1       4.051   3.325  18.096  0.00  0.00    +0.000 C 
ATOM     13  C   UNL     1       4.177   3.383  19.583  0.00  0.00    +0.000 C 
ATOM     14  C   UNL     1       2.902   5.526  18.745  0.00  0.00    +0.000 C 
ENDROOT
BRANCH   1  15
ATOM     15  C   UNL     1       1.657   7.957  19.899  0.00  0.00    +0.000 C 
BRANCH  15  20
ATOM     16  C   UNL     1      -0.846  10.876  19.787  0.00  0.00    +0.000 A 
ATOM     17  C   UNL     1      -0.854  11.267  21.128  0.00  0.00    +0.000 A 
ATOM     18  C   UNL     1      -0.008  10.630  22.027  0.00  0.00    +0.000 A 
ATOM     19  C   UNL     1       0.809   9.586  21.591  0.00  0.00    +0.000 A 
ATOM     20  C   UNL     1       0.789   9.147  20.253  0.00  0.00    +0.000 A 
ATOM     21  C   UNL     1      -0.038   9.816  19.341  0.00  0.00    +0.000 A 
BRANCH  16  22
ATOM     22  S   UNL     1      -1.954  11.708  18.656  0.00  0.00    +0.000 S 
ATOM     23  O   UNL     1      -1.146  12.675  17.922  0.00  0.00    +0.000 OA
ATOM     24  O   UNL     1      -3.105  12.145  19.435  0.00  0.00    +0.000 OA
BRANCH  22  26
ATOM     25  C   UNL     1      -2.690  10.931  16.149  0.00  0.00    +0.000 C 
ATOM     26  C   UNL     1      -2.467  10.409  17.555  0.00  0.00    +0.000 C 
ENDBRANCH  22  26
ENDBRANCH  16  22
ENDBRANCH  15  20
ENDBRANCH   1  15
TORSDOF 4
ENDMDL
MODEL 5
REMARK VINA RESULT:      -8.0      2.050      3.157
REMARK  Name = 
REMARK  5 active torsions:
REMARK  status: ('A' for Active; 'I' for Inactive)
REMARK    1  A    between atoms: C_1  and  C_2
REMARK    2  A    between atoms: C_2  and  S_3
REMARK    3  A    between atoms: S_3  and  C_6
REMARK    4  A    between atoms: C_10  and  C_11
REMARK    5  A    between atoms: C_11  and  C_12
REMARK                            x       y       z     vdW  Elec       q    Type
REMARK                         _______ _______ _______ _____ _____    ______ ____
ROOT
ATOM      1  C   UNL     1       1.843   8.110  19.465  0.00  0.00    +0.000 C 
ATOM      2  O   UNL     1       1.337   8.461  20.533  0.00  0.00    +0.000 OA
ATOM      3  N   UNL     1       2.577   6.939  19.342  0.00  0.00    +0.000 N 
ATOM      4  C   UNL     1       2.577   5.962  20.443  0.00  0.00    +0.000 C 
ATOM      5  C   UNL     1       2.161   4.614  19.892  0.00  0.00    +0.000 A 
ATOM      6  C   UNL     1       1.328   3.748  20.612  0.00  0.00    +0.000 A 
ATOM      7  C   UNL     1       0.727   2.672  19.963  0.00  0.00    +0.000 A 
ATOM      8  C   UNL     1       0.950   2.474  18.603  0.00  0.00    +0.000 A 
ATOM      9  C   UNL     1       1.872   3.274  17.921  0.00  0.00    +0.000 A 
ATOM     10  C   UNL     1       2.550   4.314  18.570  0.00  0.00    +0.000 A 
ATOM     11  C   UNL     1       3.629   5.186  17.935  0.00  0.00    +0.000 C 
ATOM     12  C   UNL     1       5.060   4.650  17.935  0.00  0.00    +0.000 C 
ATOM     13  C   UNL     1       4.310   4.746  16.646  0.00  0.00    +0.000 C 
ATOM     14  C   UNL     1       3.514   6.673  18.250  0.00  0.00    +0.000 C 
ENDROOT
BRANCH   1  15
ATOM     15  C   UNL     1       1.605   8.942  18.211  0.00  0.00    +0.000 C 
BRANCH  15  20
ATOM     16  C   UNL     1       0.193  12.480  18.747  0.00  0.00    +0.000 A 
ATOM     17  C   UNL     1      -1.128  12.302  18.330  0.00  0.00    +0.000 A 
ATOM     18  C   UNL     1      -1.556  11.036  17.949  0.00  0.00    +0.000 A 
ATOM     19  C   UNL     1      -0.656   9.970  17.949  0.00  0.00    +0.000 A 
ATOM     20  C   UNL     1       0.692  10.146  18.318  0.00  0.00    +0.000 A 
ATOM     21  C   UNL     1       1.111  11.416  18.738  0.00  0.00    +0.000 A 
BRANCH  16  22
ATOM     22  S   UNL     1       0.718  14.123  19.223  0.00  0.00    +0.000 S 
ATOM     23  O   UNL     1       0.932  14.087  20.665  0.00  0.00    +0.000 OA
ATOM     24  O   UNL     1      -0.237  15.057  18.641  0.00  0.00    +0.000 OA
BRANCH  22  26
ATOM     25  C   UNL     1       3.427  14.364  19.387  0.00  0.00    +0.000 C 
ATOM     26  C   UNL     1       2.280  14.310  18.396  0.00  0.00    +0.000 C 
ENDBRANCH  22  26
ENDBRANCH  16  22
ENDBRANCH  15  20
ENDBRANCH   1  15
TORSDOF 4
ENDMDL
MODEL 6
REMARK VINA RESULT:      -8.0      2.288      3.125
REMARK  Name = 
REMARK  5 active torsions:
REMARK  status: ('A' for Active; 'I' for Inactive)
REMARK    1  A    between atoms: C_1  and  C_2
REMARK    2  A    between atoms: C_2  and  S_3
REMARK    3  A    between atoms: S_3  and  C_6
REMARK    4  A    between atoms: C_10  and  C_11
REMARK    5  A    between atoms: C_11  and  C_12
REMARK                            x       y       z     vdW  Elec       q    Type
REMARK                         _______ _______ _______ _____ _____    ______ ____
ROOT
ATOM      1  C   UNL     1       1.799   8.176  19.505  0.00  0.00    +0.000 C 
ATOM      2  O   UNL     1       1.275   8.503  20.572  0.00  0.00    +0.000 OA
ATOM      3  N   UNL     1       2.543   7.014  19.371  0.00  0.00    +0.000 N 
ATOM      4  C   UNL     1       2.536   6.016  20.454  0.00  0.00    +0.000 C 
ATOM      5  C   UNL     1       2.139   4.676  19.872  0.00  0.00    +0.000 A 
ATOM      6  C   UNL     1       1.303   3.790  20.565  0.00  0.00    +0.000 A 
ATOM      7  C   UNL     1       0.719   2.721  19.887  0.00  0.00    +0.000 A 
ATOM      8  C   UNL     1       0.963   2.550  18.528  0.00  0.00    +0.000 A 
ATOM      9  C   UNL     1       1.887   3.370  17.873  0.00  0.00    +0.000 A 
ATOM     10  C   UNL     1       2.549   4.403  18.550  0.00  0.00    +0.000 A 
ATOM     11  C   UNL     1       3.629   5.296  17.946  0.00  0.00    +0.000 C 
ATOM     12  C   UNL     1       5.065   4.771  17.956  0.00  0.00    +0.000 C 
ATOM     13  C   UNL     1       4.331   4.884  16.660  0.00  0.00    +0.000 C 
ATOM     14  C   UNL     1       3.498   6.775  18.287  0.00  0.00    +0.000 C 
ENDROOT
BRANCH   1  15
ATOM     15  C   UNL     1       1.571   9.029  18.264  0.00  0.00    +0.000 C 
BRANCH  15  20
ATOM     16  C   UNL     1       0.357  12.624  18.895  0.00  0.00    +0.000 A 
ATOM     17  C   UNL     1      -0.971  12.531  18.475  0.00  0.00    +0.000 A 
ATOM     18  C   UNL     1      -1.469  11.302  18.060  0.00  0.00    +0.000 A 
ATOM     19  C   UNL     1      -0.629  10.187  18.031  0.00  0.00    +0.000 A 
ATOM     20  C   UNL     1       0.726  10.279  18.403  0.00  0.00    +0.000 A 
ATOM     21  C   UNL     1       1.214  11.512  18.856  0.00  0.00    +0.000 A 
BRANCH  16  22
ATOM     22  S   UNL     1       0.971  14.223  19.414  0.00  0.00    +0.000 S 
ATOM     23  O   UNL     1       1.911  14.658  18.386  0.00  0.00    +0.000 OA
ATOM     24  O   UNL     1       1.403  14.081  20.798  0.00  0.00    +0.000 OA
BRANCH  22  26
ATOM     25  C   UNL     1      -0.298  16.415  18.409  0.00  0.00    +0.000 C 
ATOM     26  C   UNL     1      -0.477  15.253  19.367  0.00  0.00    +0.000 C 
ENDBRANCH  22  26
ENDBRANCH  16  22
ENDBRANCH  15  20
ENDBRANCH   1  15
TORSDOF 4
ENDMDL
MODEL 7
REMARK VINA RESULT:      -7.9      2.850      4.552
REMARK  Name = 
REMARK  5 active torsions:
REMARK  status: ('A' for Active; 'I' for Inactive)
REMARK    1  A    between atoms: C_1  and  C_2
REMARK    2  A    between atoms: C_2  and  S_3
REMARK    3  A    between atoms: S_3  and  C_6
REMARK    4  A    between atoms: C_10  and  C_11
REMARK    5  A    between atoms: C_11  and  C_12
REMARK                            x       y       z     vdW  Elec       q    Type
REMARK                         _______ _______ _______ _____ _____    ______ ____
ROOT
ATOM      1  C   UNL     1       2.492   8.331  18.175  0.00  0.00    +0.000 C 
ATOM      2  O   UNL     1       2.640   9.376  17.537  0.00  0.00    +0.000 OA
ATOM      3  N   UNL     1       3.170   7.165  17.854  0.00  0.00    +0.000 N 
ATOM      4  C   UNL     1       4.267   7.207  16.874  0.00  0.00    +0.000 C 
ATOM      5  C   UNL     1       5.503   6.602  17.506  0.00  0.00    +0.000 A 
ATOM      6  C   UNL     1       6.780   7.136  17.286  0.00  0.00    +0.000 A 
ATOM      7  C   UNL     1       7.837   6.754  18.109  0.00  0.00    +0.000 A 
ATOM      8  C   UNL     1       7.613   5.856  19.149  0.00  0.00    +0.000 A 
ATOM      9  C   UNL     1       6.364   5.243  19.288  0.00  0.00    +0.000 A 
ATOM     10  C   UNL     1       5.305   5.550  18.424  0.00  0.00    +0.000 A 
ATOM     11  C   UNL     1       3.935   4.878  18.445  0.00  0.00    +0.000 C 
ATOM     12  C   UNL     1       3.783   3.561  17.684  0.00  0.00    +0.000 C 
ATOM     13  C   UNL     1       3.740   3.558  19.178  0.00  0.00    +0.000 C 
ATOM     14  C   UNL     1       2.755   5.832  18.294  0.00  0.00    +0.000 C 
ENDROOT
BRANCH   1  15
ATOM     15  C   UNL     1       1.591   8.323  19.403  0.00  0.00    +0.000 C 
BRANCH  15  20
ATOM     16  C   UNL     1      -0.585  11.159  20.825  0.00  0.00    +0.000 A 
ATOM     17  C   UNL     1      -1.181  11.643  19.659  0.00  0.00    +0.000 A 
ATOM     18  C   UNL     1      -0.925  11.008  18.450  0.00  0.00    +0.000 A 
ATOM     19  C   UNL     1      -0.048   9.923  18.408  0.00  0.00    +0.000 A 
ATOM     20  C   UNL     1       0.600   9.457  19.568  0.00  0.00    +0.000 A 
ATOM     21  C   UNL     1       0.310  10.076  20.791  0.00  0.00    +0.000 A 
BRANCH  16  22
ATOM     22  S   UNL     1      -0.927  12.003  22.365  0.00  0.00    +0.000 S 
ATOM     23  O   UNL     1      -0.083  13.193  22.380  0.00  0.00    +0.000 OA
ATOM     24  O   UNL     1      -0.823  11.009  23.424  0.00  0.00    +0.000 OA
BRANCH  22  26
ATOM     25  C   UNL     1      -3.363  12.396  23.522  0.00  0.00    +0.000 C 
ATOM     26  C   UNL     1      -2.630  12.487  22.197  0.00  0.00    +0.000 C 
ENDBRANCH  22  26
ENDBRANCH  16  22
ENDBRANCH  15  20
ENDBRANCH   1  15
TORSDOF 4
ENDMDL
MODEL 8
REMARK VINA RESULT:      -7.9      2.364      3.390
REMARK  Name = 
REMARK  5 active torsions:
REMARK  status: ('A' for Active; 'I' for Inactive)
REMARK    1  A    between atoms: C_1  and  C_2
REMARK    2  A    between atoms: C_2  and  S_3
REMARK    3  A    between atoms: S_3  and  C_6
REMARK    4  A    between atoms: C_10  and  C_11
REMARK    5  A    between atoms: C_11  and  C_12
REMARK                            x       y       z     vdW  Elec       q    Type
REMARK                         _______ _______ _______ _____ _____    ______ ____
ROOT
ATOM      1  C   UNL     1       2.254   7.730  19.062  0.00  0.00    +0.000 C 
ATOM      2  O   UNL     1       1.789   7.877  20.195  0.00  0.00    +0.000 OA
ATOM      3  N   UNL     1       3.190   6.750  18.768  0.00  0.00    +0.000 N 
ATOM      4  C   UNL     1       3.486   5.704  19.761  0.00  0.00    +0.000 C 
ATOM      5  C   UNL     1       3.297   4.351  19.107  0.00  0.00    +0.000 A 
ATOM      6  C   UNL     1       2.722   3.274  19.795  0.00  0.00    +0.000 A 
ATOM      7  C   UNL     1       2.289   2.156  19.085  0.00  0.00    +0.000 A 
ATOM      8  C   UNL     1       2.421   2.125  17.700  0.00  0.00    +0.000 A 
ATOM      9  C   UNL     1       3.098   3.152  17.037  0.00  0.00    +0.000 A 
ATOM     10  C   UNL     1       3.614   4.251  17.737  0.00  0.00    +0.000 A 
ATOM     11  C   UNL     1       4.435   5.378  17.117  0.00  0.00    +0.000 C 
ATOM     12  C   UNL     1       5.938   5.150  16.957  0.00  0.00    +0.000 C 
ATOM     13  C   UNL     1       5.068   5.198  15.744  0.00  0.00    +0.000 C 
ATOM     14  C   UNL     1       4.057   6.777  17.589  0.00  0.00    +0.000 C 
ENDROOT
BRANCH   1  15
ATOM     15  C   UNL     1       1.741   8.598  17.920  0.00  0.00    +0.000 C 
BRANCH  15  20
ATOM     16  C   UNL     1       0.749  12.128  19.084  0.00  0.00    +0.000 A 
ATOM     17  C   UNL     1      -0.604  12.149  18.736  0.00  0.00    +0.000 A 
ATOM     18  C   UNL     1      -1.185  11.008  18.197  0.00  0.00    +0.000 A 
ATOM     19  C   UNL     1      -0.406   9.872  17.974  0.00  0.00    +0.000 A 
ATOM     20  C   UNL     1       0.970   9.854  18.271  0.00  0.00    +0.000 A 
ATOM     21  C   UNL     1       1.544  10.994  18.850  0.00  0.00    +0.000 A 
BRANCH  16  22
ATOM     22  S   UNL     1       1.471  13.615  19.766  0.00  0.00    +0.000 S 
ATOM     23  O   UNL     1       1.823  13.307  21.148  0.00  0.00    +0.000 OA
ATOM     24  O   UNL     1       0.557  14.708  19.462  0.00  0.00    +0.000 OA
BRANCH  22  26
ATOM     25  C   UNL     1       2.940  15.137  18.048  0.00  0.00    +0.000 C 
ATOM     26  C   UNL     1       2.955  13.826  18.810  0.00  0.00    +0.000 C 
ENDBRANCH  22  26
ENDBRANCH  16  22
ENDBRANCH  15  20
ENDBRANCH   1  15
TORSDOF 4
ENDMDL
MODEL 9
REMARK VINA RESULT:      -7.9      2.220      3.160
REMARK  Name = 
REMARK  5 active torsions:
REMARK  status: ('A' for Active; 'I' for Inactive)
REMARK    1  A    between atoms: C_1  and  C_2
REMARK    2  A    between atoms: C_2  and  S_3
REMARK    3  A    between atoms: S_3  and  C_6
REMARK    4  A    between atoms: C_10  and  C_11
REMARK    5  A    between atoms: C_11  and  C_12
REMARK                            x       y       z     vdW  Elec       q    Type
REMARK                         _______ _______ _______ _____ _____    ______ ____
ROOT
ATOM      1  C   UNL     1       2.221   7.725  19.260  0.00  0.00    +0.000 C 
ATOM      2  O   UNL     1       1.734   7.846  20.387  0.00  0.00    +0.000 OA
ATOM      3  N   UNL     1       3.129   6.723  18.950  0.00  0.00    +0.000 N 
ATOM      4  C   UNL     1       3.363   5.630  19.908  0.00  0.00    +0.000 C 
ATOM      5  C   UNL     1       3.142   4.311  19.199  0.00  0.00    +0.000 A 
ATOM      6  C   UNL     1       2.512   3.230  19.831  0.00  0.00    +0.000 A 
ATOM      7  C   UNL     1       2.057   2.157  19.070  0.00  0.00    +0.000 A 
ATOM      8  C   UNL     1       2.221   2.172  17.687  0.00  0.00    +0.000 A 
ATOM      9  C   UNL     1       2.951   3.199  17.080  0.00  0.00    +0.000 A 
ATOM     10  C   UNL     1       3.488   4.251  17.833  0.00  0.00    +0.000 A 
ATOM     11  C   UNL     1       4.364   5.369  17.276  0.00  0.00    +0.000 C 
ATOM     12  C   UNL     1       5.861   5.093  17.142  0.00  0.00    +0.000 C 
ATOM     13  C   UNL     1       5.023   5.218  15.912  0.00  0.00    +0.000 C 
ATOM     14  C   UNL     1       4.024   6.763  17.793  0.00  0.00    +0.000 C 
ENDROOT
BRANCH   1  15
ATOM     15  C   UNL     1       1.767   8.653  18.141  0.00  0.00    +0.000 C 
BRANCH  15  20
ATOM     16  C   UNL     1       0.043  11.766  19.602  0.00  0.00    +0.000 A 
ATOM     17  C   UNL     1      -1.157  11.763  18.887  0.00  0.00    +0.000 A 
ATOM     18  C   UNL     1      -1.416  10.726  17.999  0.00  0.00    +0.000 A 
ATOM     19  C   UNL     1      -0.463   9.724  17.804  0.00  0.00    +0.000 A 
ATOM     20  C   UNL     1       0.772   9.744  18.480  0.00  0.00    +0.000 A 
ATOM     21  C   UNL     1       1.014  10.771  19.402  0.00  0.00    +0.000 A 
BRANCH  16  22
ATOM     22  S   UNL     1       0.353  13.120  20.730  0.00  0.00    +0.000 S 
ATOM     23  O   UNL     1       0.069  14.346  19.992  0.00  0.00    +0.000 OA
ATOM     24  O   UNL     1       1.670  12.895  21.310  0.00  0.00    +0.000 OA
BRANCH  22  26
ATOM     25  C   UNL     1      -0.782  11.510  22.614  0.00  0.00    +0.000 C 
ATOM     26  C   UNL     1      -0.877  12.891  21.993  0.00  0.00    +0.000 C 
ENDBRANCH  22  26
ENDBRANCH  16  22
ENDBRANCH  15  20
ENDBRANCH   1  15
TORSDOF 4
ENDMDL
