MODEL 1
REMARK VINA RESULT:      -8.8      0.000      0.000
REMARK  Name = 
REMARK  6 active torsions:
REMARK  status: ('A' for Active; 'I' for Inactive)
REMARK    1  A    between atoms: C_5  and  C_7
REMARK    2  A    between atoms: C_7  and  O_8
REMARK    3  A    between atoms: O_8  and  C_9
REMARK    4  A    between atoms: C_9  and  C_11
REMARK    5  A    between atoms: C_16  and  O_17
REMARK    6  A    between atoms: O_17  and  C_18
REMARK                            x       y       z     vdW  Elec       q    Type
REMARK                         _______ _______ _______ _____ _____    ______ ____
ROOT
ATOM      1  O   UNL     1       2.869   6.265  18.099  0.00  0.00    +0.000 OA
ENDROOT
BRANCH   1   2
ATOM      2  C   UNL     1       4.096   5.743  18.346  0.00  0.00    +0.000 C 
ATOM      3  O   UNL     1       4.766   5.897  19.353  0.00  0.00    +0.000 OA
BRANCH   2   4
ATOM      4  C   UNL     1       4.593   5.127  17.091  0.00  0.00    +0.000 A 
ATOM      5  C   UNL     1       5.031   6.016  16.087  0.00  0.00    +0.000 A 
ATOM      6  C   UNL     1       5.738   5.554  14.977  0.00  0.00    +0.000 A 
ATOM      7  C   UNL     1       6.020   4.201  14.861  0.00  0.00    +0.000 A 
ATOM      8  C   UNL     1       5.549   3.305  15.826  0.00  0.00    +0.000 A 
ATOM      9  C   UNL     1       4.808   3.751  16.932  0.00  0.00    +0.000 A 
BRANCH   9  10
ATOM     10  O   UNL     1       4.460   2.745  17.801  0.00  0.00    +0.000 OA
BRANCH  10  11
ATOM     11  C   UNL     1       3.262   2.766  18.475  0.00  0.00    +0.000 A 
ATOM     12  C   UNL     1       1.999   2.761  17.883  0.00  0.00    +0.000 A 
ATOM     13  C   UNL     1       0.861   2.884  18.684  0.00  0.00    +0.000 A 
ATOM     14  C   UNL     1       0.980   2.957  20.073  0.00  0.00    +0.000 A 
ATOM     15  C   UNL     1       2.236   2.871  20.667  0.00  0.00    +0.000 A 
ATOM     16  C   UNL     1       3.373   2.768  19.868  0.00  0.00    +0.000 A 
ENDBRANCH  10  11
ENDBRANCH   9  10
ENDBRANCH   2   4
ENDBRANCH   1   2
BRANCH   1  17
ATOM     17  C   UNL     1       2.724   7.660  18.382  0.00  0.00    +0.000 C 
BRANCH  17  22
ATOM     18  O   UNL     1       1.820  12.506  18.111  0.00  0.00    +0.000 OA
ATOM     19  C   UNL     1       1.408  11.654  18.898  0.00  0.00    +0.000 C 
ATOM     20  C   UNL     1       1.283  10.189  18.515  0.00  0.00    +0.000 C 
ATOM     21  N   UNL     1       1.238   9.240  19.642  0.00  0.00    +0.000 N 
ATOM     22  C   UNL     1       1.853   7.978  19.605  0.00  0.00    +0.000 C 
ATOM     23  O   UNL     1       1.755   7.138  20.500  0.00  0.00    +0.000 OA
ATOM     24  C   UNL     1       0.490   9.691  20.782  0.00  0.00    +0.000 A 
ATOM     25  C   UNL     1      -0.075   8.820  21.725  0.00  0.00    +0.000 A 
ATOM     26  C   UNL     1      -0.734   9.306  22.857  0.00  0.00    +0.000 A 
ATOM     27  C   UNL     1      -0.840  10.677  23.073  0.00  0.00    +0.000 A 
ATOM     28  C   UNL     1      -0.302  11.564  22.142  0.00  0.00    +0.000 A 
ATOM     29  C   UNL     1       0.339  11.078  20.999  0.00  0.00    +0.000 A 
ATOM     30  N   UNL     1       0.873  12.008  20.101  0.00  0.00    +0.000 N 
ATOM     31  H   UNL     1       0.860  12.998  20.314  0.00  0.00    +0.000 HD
ENDBRANCH  17  22
ENDBRANCH   1  17
TORSDOF 6
ENDMDL
MODEL 2
REMARK VINA RESULT:      -8.8      1.711      4.460
REMARK  Name = 
REMARK  6 active torsions:
REMARK  status: ('A' for Active; 'I' for Inactive)
REMARK    1  A    between atoms: C_5  and  C_7
REMARK    2  A    between atoms: C_7  and  O_8
REMARK    3  A    between atoms: O_8  and  C_9
REMARK    4  A    between atoms: C_9  and  C_11
REMARK    5  A    between atoms: C_16  and  O_17
REMARK    6  A    between atoms: O_17  and  C_18
REMARK                            x       y       z     vdW  Elec       q    Type
REMARK                         _______ _______ _______ _____ _____    ______ ____
ROOT
ATOM      1  O   UNL     1       2.480   5.978  17.757  0.00  0.00    +0.000 OA
ENDROOT
BRANCH   1   2
ATOM      2  C   UNL     1       1.854   4.780  17.870  0.00  0.00    +0.000 C 
ATOM      3  O   UNL     1       0.950   4.360  17.168  0.00  0.00    +0.000 OA
BRANCH   2   4
ATOM      4  C   UNL     1       2.302   4.147  19.134  0.00  0.00    +0.000 A 
ATOM      5  C   UNL     1       1.383   4.165  20.204  0.00  0.00    +0.000 A 
ATOM      6  C   UNL     1       1.595   3.394  21.347  0.00  0.00    +0.000 A 
ATOM      7  C   UNL     1       2.725   2.594  21.431  0.00  0.00    +0.000 A 
ATOM      8  C   UNL     1       3.667   2.606  20.398  0.00  0.00    +0.000 A 
ATOM      9  C   UNL     1       3.483   3.402  19.255  0.00  0.00    +0.000 A 
BRANCH   9  10
ATOM     10  O   UNL     1       4.482   3.262  18.323  0.00  0.00    +0.000 OA
BRANCH  10  11
ATOM     11  C   UNL     1       5.411   4.254  18.118  0.00  0.00    +0.000 A 
ATOM     12  C   UNL     1       6.154   4.888  19.115  0.00  0.00    +0.000 A 
ATOM     13  C   UNL     1       6.995   5.952  18.779  0.00  0.00    +0.000 A 
ATOM     14  C   UNL     1       7.136   6.346  17.447  0.00  0.00    +0.000 A 
ATOM     15  C   UNL     1       6.463   5.654  16.443  0.00  0.00    +0.000 A 
ATOM     16  C   UNL     1       5.609   4.606  16.780  0.00  0.00    +0.000 A 
ENDBRANCH  10  11
ENDBRANCH   9  10
ENDBRANCH   2   4
ENDBRANCH   1   2
BRANCH   1  17
ATOM     17  C   UNL     1       2.411   6.822  18.910  0.00  0.00    +0.000 C 
BRANCH  17  22
ATOM     18  O   UNL     1      -0.742   8.347  22.390  0.00  0.00    +0.000 OA
ATOM     19  C   UNL     1      -0.169   8.969  21.496  0.00  0.00    +0.000 C 
ATOM     20  C   UNL     1       1.165   8.521  20.923  0.00  0.00    +0.000 C 
ATOM     21  N   UNL     1       1.495   9.056  19.590  0.00  0.00    +0.000 N 
ATOM     22  C   UNL     1       2.159   8.304  18.606  0.00  0.00    +0.000 C 
ATOM     23  O   UNL     1       2.520   8.758  17.520  0.00  0.00    +0.000 OA
ATOM     24  C   UNL     1       1.109  10.423  19.374  0.00  0.00    +0.000 A 
ATOM     25  C   UNL     1       1.718  11.253  18.422  0.00  0.00    +0.000 A 
ATOM     26  C   UNL     1       1.262  12.554  18.197  0.00  0.00    +0.000 A 
ATOM     27  C   UNL     1       0.182  13.053  18.921  0.00  0.00    +0.000 A 
ATOM     28  C   UNL     1      -0.429  12.254  19.885  0.00  0.00    +0.000 A 
ATOM     29  C   UNL     1       0.041  10.960  20.124  0.00  0.00    +0.000 A 
ATOM     30  N   UNL     1      -0.614  10.193  21.094  0.00  0.00    +0.000 N 
ATOM     31  H   UNL     1      -1.448  10.541  21.551  0.00  0.00    +0.000 HD
ENDBRANCH  17  22
ENDBRANCH   1  17
TORSDOF 6
ENDMDL
MODEL 3
REMARK VINA RESULT:      -8.7      1.240      1.516
REMARK  Name = 
REMARK  6 active torsions:
REMARK  status: ('A' for Active; 'I' for Inactive)
REMARK    1  A    between atoms: C_5  and  C_7
REMARK    2  A    between atoms: C_7  and  O_8
REMARK    3  A    between atoms: O_8  and  C_9
REMARK    4  A    between atoms: C_9  and  C_11
REMARK    5  A    between atoms: C_16  and  O_17
REMARK    6  A    between atoms: O_17  and  C_18
REMARK                            x       y       z     vdW  Elec       q    Type
REMARK                         _______ _______ _______ _____ _____    ______ ____
ROOT
ATOM      1  O   UNL     1       3.464   7.728  17.932  0.00  0.00    +0.000 OA
ENDROOT
BRANCH   1   2
ATOM      2  C   UNL     1       3.209   6.442  17.585  0.00  0.00    +0.000 C 
ATOM      3  O   UNL     1       2.122   5.888  17.585  0.00  0.00    +0.000 OA
BRANCH   2   4
ATOM      4  C   UNL     1       4.508   5.747  17.415  0.00  0.00    +0.000 A 
ATOM      5  C   UNL     1       5.213   6.020  16.224  0.00  0.00    +0.000 A 
ATOM      6  C   UNL     1       6.541   5.622  16.067  0.00  0.00    +0.000 A 
ATOM      7  C   UNL     1       7.180   4.952  17.101  0.00  0.00    +0.000 A 
ATOM      8  C   UNL     1       6.476   4.634  18.265  0.00  0.00    +0.000 A 
ATOM      9  C   UNL     1       5.129   4.999  18.424  0.00  0.00    +0.000 A 
BRANCH   9  10
ATOM     10  O   UNL     1       4.605   4.645  19.644  0.00  0.00    +0.000 OA
BRANCH  10  11
ATOM     11  C   UNL     1       3.454   3.898  19.737  0.00  0.00    +0.000 A 
ATOM     12  C   UNL     1       3.189   2.726  19.028  0.00  0.00    +0.000 A 
ATOM     13  C   UNL     1       1.935   2.118  19.144  0.00  0.00    +0.000 A 
ATOM     14  C   UNL     1       0.971   2.648  20.002  0.00  0.00    +0.000 A 
ATOM     15  C   UNL     1       1.269   3.766  20.776  0.00  0.00    +0.000 A 
ATOM     16  C   UNL     1       2.512   4.385  20.647  0.00  0.00    +0.000 A 
ENDBRANCH  10  11
ENDBRANCH   9  10
ENDBRANCH   2   4
ENDBRANCH   1   2
BRANCH   1  17
ATOM     17  C   UNL     1       2.327   8.595  17.967  0.00  0.00    +0.000 C 
BRANCH  17  22
ATOM     18  O   UNL     1       0.107  13.005  18.005  0.00  0.00    +0.000 OA
ATOM     19  C   UNL     1       0.088  12.088  18.825  0.00  0.00    +0.000 C 
ATOM     20  C   UNL     1       0.300  10.637  18.426  0.00  0.00    +0.000 C 
ATOM     21  N   UNL     1       0.714   9.734  19.514  0.00  0.00    +0.000 N 
ATOM     22  C   UNL     1       1.633   8.687  19.332  0.00  0.00    +0.000 C 
ATOM     23  O   UNL     1       1.925   7.869  20.205  0.00  0.00    +0.000 OA
ATOM     24  C   UNL     1       0.084   9.985  20.781  0.00  0.00    +0.000 A 
ATOM     25  C   UNL     1      -0.047   9.011  21.782  0.00  0.00    +0.000 A 
ATOM     26  C   UNL     1      -0.603   9.320  23.025  0.00  0.00    +0.000 A 
ATOM     27  C   UNL     1      -1.038  10.614  23.297  0.00  0.00    +0.000 A 
ATOM     28  C   UNL     1      -0.934  11.596  22.314  0.00  0.00    +0.000 A 
ATOM     29  C   UNL     1      -0.397  11.281  21.062  0.00  0.00    +0.000 A 
ATOM     30  N   UNL     1      -0.303  12.305  20.114  0.00  0.00    +0.000 N 
ATOM     31  H   UNL     1      -0.547  13.258  20.356  0.00  0.00    +0.000 HD
ENDBRANCH  17  22
ENDBRANCH   1  17
TORSDOF 6
ENDMDL
MODEL 4
REMARK VINA RESULT:      -8.7      2.171      4.170
REMARK  Name = 
REMARK  6 active torsions:
REMARK  status: ('A' for Active; 'I' for Inactive)
REMARK    1  A    between atoms: C_5  and  C_7
REMARK    2  A    between atoms: C_7  and  O_8
REMARK    3  A    between atoms: O_8  and  C_9
REMARK    4  A    between atoms: C_9  and  C_11
REMARK    5  A    between atoms: C_16  and  O_17
REMARK    6  A    between atoms: O_17  and  C_18
REMARK                            x       y       z     vdW  Elec       q    Type
REMARK                         _______ _______ _______ _____ _____    ______ ____
ROOT
ATOM      1  O   UNL     1       1.852   7.973  19.854  0.00  0.00    +0.000 OA
ENDROOT
BRANCH   1   2
ATOM      2  C   UNL     1       2.559   7.243  18.956  0.00  0.00    +0.000 C 
ATOM      3  O   UNL     1       3.122   7.659  17.958  0.00  0.00    +0.000 OA
BRANCH   2   4
ATOM      4  C   UNL     1       2.351   5.807  19.268  0.00  0.00    +0.000 A 
ATOM      5  C   UNL     1       1.637   5.520  20.451  0.00  0.00    +0.000 A 
ATOM      6  C   UNL     1       1.173   4.232  20.716  0.00  0.00    +0.000 A 
ATOM      7  C   UNL     1       1.412   3.218  19.799  0.00  0.00    +0.000 A 
ATOM      8  C   UNL     1       2.159   3.481  18.648  0.00  0.00    +0.000 A 
ATOM      9  C   UNL     1       2.661   4.766  18.384  0.00  0.00    +0.000 A 
BRANCH   9  10
ATOM     10  O   UNL     1       3.336   4.856  17.190  0.00  0.00    +0.000 OA
BRANCH  10  11
ATOM     11  C   UNL     1       4.703   4.722  17.132  0.00  0.00    +0.000 A 
ATOM     12  C   UNL     1       5.576   4.835  18.214  0.00  0.00    +0.000 A 
ATOM     13  C   UNL     1       6.955   4.773  17.997  0.00  0.00    +0.000 A 
ATOM     14  C   UNL     1       7.459   4.544  16.716  0.00  0.00    +0.000 A 
ATOM     15  C   UNL     1       6.584   4.342  15.652  0.00  0.00    +0.000 A 
ATOM     16  C   UNL     1       5.208   4.423  15.863  0.00  0.00    +0.000 A 
ENDBRANCH  10  11
ENDBRANCH   9  10
ENDBRANCH   2   4
ENDBRANCH   1   2
BRANCH   1  17
ATOM     17  C   UNL     1       1.437   9.267  19.406  0.00  0.00    +0.000 C 
BRANCH  17  22
ATOM     18  O   UNL     1      -2.235  11.504  16.979  0.00  0.00    +0.000 OA
ATOM     19  C   UNL     1      -1.950  11.496  18.176  0.00  0.00    +0.000 C 
ATOM     20  C   UNL     1      -1.210  10.338  18.826  0.00  0.00    +0.000 C 
ATOM     21  N   UNL     1      -0.537  10.651  20.099  0.00  0.00    +0.000 N 
ATOM     22  C   UNL     1       0.706  10.107  20.462  0.00  0.00    +0.000 C 
ATOM     23  O   UNL     1       1.243  10.286  21.556  0.00  0.00    +0.000 OA
ATOM     24  C   UNL     1      -1.262  11.541  20.963  0.00  0.00    +0.000 A 
ATOM     25  C   UNL     1      -1.068  11.593  22.352  0.00  0.00    +0.000 A 
ATOM     26  C   UNL     1      -1.744  12.524  23.143  0.00  0.00    +0.000 A 
ATOM     27  C   UNL     1      -2.630  13.427  22.562  0.00  0.00    +0.000 A 
ATOM     28  C   UNL     1      -2.853  13.385  21.188  0.00  0.00    +0.000 A 
ATOM     29  C   UNL     1      -2.192  12.439  20.398  0.00  0.00    +0.000 A 
ATOM     30  N   UNL     1      -2.441  12.445  19.022  0.00  0.00    +0.000 N 
ATOM     31  H   UNL     1      -3.024  13.162  18.605  0.00  0.00    +0.000 HD
ENDBRANCH  17  22
ENDBRANCH   1  17
TORSDOF 6
ENDMDL
MODEL 5
REMARK VINA RESULT:      -8.7      2.393      4.233
REMARK  Name = 
REMARK  6 active torsions:
REMARK  status: ('A' for Active; 'I' for Inactive)
REMARK    1  A    between atoms: C_5  and  C_7
REMARK    2  A    between atoms: C_7  and  O_8
REMARK    3  A    between atoms: O_8  and  C_9
REMARK    4  A    between atoms: C_9  and  C_11
REMARK    5  A    between atoms: C_16  and  O_17
REMARK    6  A    between atoms: O_17  and  C_18
REMARK                            x       y       z     vdW  Elec       q    Type
REMARK                         _______ _______ _______ _____ _____    ______ ____
ROOT
ATOM      1  O   UNL     1       1.558   7.928  17.861  0.00  0.00    +0.000 OA
ENDROOT
BRANCH   1   2
ATOM      2  C   UNL     1       2.775   7.382  18.105  0.00  0.00    +0.000 C 
ATOM      3  O   UNL     1       3.841   7.732  17.628  0.00  0.00    +0.000 OA
BRANCH   2   4
ATOM      4  C   UNL     1       2.570   6.137  18.886  0.00  0.00    +0.000 A 
ATOM      5  C   UNL     1       1.949   6.283  20.145  0.00  0.00    +0.000 A 
ATOM      6  C   UNL     1       1.487   5.172  20.850  0.00  0.00    +0.000 A 
ATOM      7  C   UNL     1       1.637   3.905  20.304  0.00  0.00    +0.000 A 
ATOM      8  C   UNL     1       2.294   3.746  19.081  0.00  0.00    +0.000 A 
ATOM      9  C   UNL     1       2.793   4.853  18.374  0.00  0.00    +0.000 A 
BRANCH   9  10
ATOM     10  O   UNL     1       3.372   4.520  17.173  0.00  0.00    +0.000 OA
BRANCH  10  11
ATOM     11  C   UNL     1       4.738   4.497  17.022  0.00  0.00    +0.000 A 
ATOM     12  C   UNL     1       5.670   4.591  18.056  0.00  0.00    +0.000 A 
ATOM     13  C   UNL     1       7.033   4.654  17.753  0.00  0.00    +0.000 A 
ATOM     14  C   UNL     1       7.466   4.570  16.429  0.00  0.00    +0.000 A 
ATOM     15  C   UNL     1       6.541   4.387  15.406  0.00  0.00    +0.000 A 
ATOM     16  C   UNL     1       5.180   4.344  15.705  0.00  0.00    +0.000 A 
ENDBRANCH  10  11
ENDBRANCH   9  10
ENDBRANCH   2   4
ENDBRANCH   1   2
BRANCH   1  17
ATOM     17  C   UNL     1       1.530   9.356  17.768  0.00  0.00    +0.000 C 
BRANCH  17  22
ATOM     18  O   UNL     1      -2.628  11.116  15.770  0.00  0.00    +0.000 OA
ATOM     19  C   UNL     1      -2.232  11.118  16.935  0.00  0.00    +0.000 C 
ATOM     20  C   UNL     1      -1.281  10.060  17.471  0.00  0.00    +0.000 C 
ATOM     21  N   UNL     1      -0.540  10.432  18.689  0.00  0.00    +0.000 N 
ATOM     22  C   UNL     1       0.795  10.059  18.917  0.00  0.00    +0.000 C 
ATOM     23  O   UNL     1       1.404  10.285  19.963  0.00  0.00    +0.000 OA
ATOM     24  C   UNL     1      -1.295  11.190  19.648  0.00  0.00    +0.000 A 
ATOM     25  C   UNL     1      -0.978  11.235  21.014  0.00  0.00    +0.000 A 
ATOM     26  C   UNL     1      -1.697  12.042  21.899  0.00  0.00    +0.000 A 
ATOM     27  C   UNL     1      -2.750  12.826  21.435  0.00  0.00    +0.000 A 
ATOM     28  C   UNL     1      -3.095  12.787  20.086  0.00  0.00    +0.000 A 
ATOM     29  C   UNL     1      -2.389  11.963  19.204  0.00  0.00    +0.000 A 
ATOM     30  N   UNL     1      -2.766  11.968  17.858  0.00  0.00    +0.000 N 
ATOM     31  H   UNL     1      -3.478  12.606  17.523  0.00  0.00    +0.000 HD
ENDBRANCH  17  22
ENDBRANCH   1  17
TORSDOF 6
ENDMDL
MODEL 6
REMARK VINA RESULT:      -8.7      1.480      3.856
REMARK  Name = 
REMARK  6 active torsions:
REMARK  status: ('A' for Active; 'I' for Inactive)
REMARK    1  A    between atoms: C_5  and  C_7
REMARK    2  A    between atoms: C_7  and  O_8
REMARK    3  A    between atoms: O_8  and  C_9
REMARK    4  A    between atoms: C_9  and  C_11
REMARK    5  A    between atoms: C_16  and  O_17
REMARK    6  A    between atoms: O_17  and  C_18
REMARK                            x       y       z     vdW  Elec       q    Type
REMARK                         _______ _______ _______ _____ _____    ______ ____
ROOT
ATOM      1  O   UNL     1       2.836   7.008  19.496  0.00  0.00    +0.000 OA
ENDROOT
BRANCH   1   2
ATOM      2  C   UNL     1       2.572   5.854  18.836  0.00  0.00    +0.000 C 
ATOM      3  O   UNL     1       2.023   5.740  17.753  0.00  0.00    +0.000 OA
BRANCH   2   4
ATOM      4  C   UNL     1       2.866   4.725  19.753  0.00  0.00    +0.000 A 
ATOM      5  C   UNL     1       2.056   4.626  20.904  0.00  0.00    +0.000 A 
ATOM      6  C   UNL     1       2.076   3.481  21.700  0.00  0.00    +0.000 A 
ATOM      7  C   UNL     1       2.901   2.421  21.353  0.00  0.00    +0.000 A 
ATOM      8  C   UNL     1       3.743   2.529  20.242  0.00  0.00    +0.000 A 
ATOM      9  C   UNL     1       3.758   3.688  19.449  0.00  0.00    +0.000 A 
BRANCH   9  10
ATOM     10  O   UNL     1       4.612   3.608  18.376  0.00  0.00    +0.000 OA
BRANCH  10  11
ATOM     11  C   UNL     1       5.594   4.548  18.174  0.00  0.00    +0.000 A 
ATOM     12  C   UNL     1       6.493   5.002  19.138  0.00  0.00    +0.000 A 
ATOM     13  C   UNL     1       7.380   6.036  18.824  0.00  0.00    +0.000 A 
ATOM     14  C   UNL     1       7.404   6.577  17.538  0.00  0.00    +0.000 A 
ATOM     15  C   UNL     1       6.568   6.062  16.551  0.00  0.00    +0.000 A 
ATOM     16  C   UNL     1       5.670   5.044  16.869  0.00  0.00    +0.000 A 
ENDBRANCH  10  11
ENDBRANCH   9  10
ENDBRANCH   2   4
ENDBRANCH   1   2
BRANCH   1  17
ATOM     17  C   UNL     1       2.089   8.150  19.065  0.00  0.00    +0.000 C 
BRANCH  17  22
ATOM     18  O   UNL     1       2.147  12.977  18.031  0.00  0.00    +0.000 OA
ATOM     19  C   UNL     1       1.541  12.348  18.897  0.00  0.00    +0.000 C 
ATOM     20  C   UNL     1       1.156  10.888  18.719  0.00  0.00    +0.000 C 
ATOM     21  N   UNL     1       0.873  10.151  19.963  0.00  0.00    +0.000 N 
ATOM     22  C   UNL     1       1.235   8.808  20.157  0.00  0.00    +0.000 C 
ATOM     23  O   UNL     1       0.932   8.149  21.153  0.00  0.00    +0.000 OA
ATOM     24  C   UNL     1       0.168  10.903  20.965  0.00  0.00    +0.000 A 
ATOM     25  C   UNL     1      -0.600  10.307  21.976  0.00  0.00    +0.000 A 
ATOM     26  C   UNL     1      -1.209  11.075  22.971  0.00  0.00    +0.000 A 
ATOM     27  C   UNL     1      -1.060  12.459  22.978  0.00  0.00    +0.000 A 
ATOM     28  C   UNL     1      -0.316  13.077  21.975  0.00  0.00    +0.000 A 
ATOM     29  C   UNL     1       0.276  12.310  20.968  0.00  0.00    +0.000 A 
ATOM     30  N   UNL     1       1.023  12.976  19.990  0.00  0.00    +0.000 N 
ATOM     31  H   UNL     1       1.190  13.973  20.058  0.00  0.00    +0.000 HD
ENDBRANCH  17  22
ENDBRANCH   1  17
TORSDOF 6
ENDMDL
MODEL 7
REMARK VINA RESULT:      -8.6      2.830      8.851
REMARK  Name = 
REMARK  6 active torsions:
REMARK  status: ('A' for Active; 'I' for Inactive)
REMARK    1  A    between atoms: C_5  and  C_7
REMARK    2  A    between atoms: C_7  and  O_8
REMARK    3  A    between atoms: O_8  and  C_9
REMARK    4  A    between atoms: C_9  and  C_11
REMARK    5  A    between atoms: C_16  and  O_17
REMARK    6  A    between atoms: O_17  and  C_18
REMARK                            x       y       z     vdW  Elec       q    Type
REMARK                         _______ _______ _______ _____ _____    ______ ____
ROOT
ATOM      1  O   UNL     1       2.108   8.154  20.011  0.00  0.00    +0.000 OA
ENDROOT
BRANCH   1   2
ATOM      2  C   UNL     1       1.193   9.019  19.508  0.00  0.00    +0.000 C 
ATOM      3  O   UNL     1       1.160   9.470  18.375  0.00  0.00    +0.000 OA
BRANCH   2   4
ATOM      4  C   UNL     1       0.357   9.505  20.633  0.00  0.00    +0.000 A 
ATOM      5  C   UNL     1       0.569   8.889  21.884  0.00  0.00    +0.000 A 
ATOM      6  C   UNL     1       0.025   9.424  23.050  0.00  0.00    +0.000 A 
ATOM      7  C   UNL     1      -0.734  10.584  22.980  0.00  0.00    +0.000 A 
ATOM      8  C   UNL     1      -0.991  11.176  21.741  0.00  0.00    +0.000 A 
ATOM      9  C   UNL     1      -0.476  10.630  20.553  0.00  0.00    +0.000 A 
BRANCH   9  10
ATOM     10  O   UNL     1      -0.790  11.360  19.432  0.00  0.00    +0.000 OA
BRANCH  10  11
ATOM     11  C   UNL     1      -1.910  11.076  18.687  0.00  0.00    +0.000 A 
ATOM     12  C   UNL     1      -2.021  10.051  17.748  0.00  0.00    +0.000 A 
ATOM     13  C   UNL     1      -3.188   9.934  16.988  0.00  0.00    +0.000 A 
ATOM     14  C   UNL     1      -4.259  10.803  17.202  0.00  0.00    +0.000 A 
ATOM     15  C   UNL     1      -4.181  11.769  18.202  0.00  0.00    +0.000 A 
ATOM     16  C   UNL     1      -3.010  11.899  18.947  0.00  0.00    +0.000 A 
ENDBRANCH  10  11
ENDBRANCH   9  10
ENDBRANCH   2   4
ENDBRANCH   1   2
BRANCH   1  17
ATOM     17  C   UNL     1       2.142   6.863  19.393  0.00  0.00    +0.000 C 
BRANCH  17  22
ATOM     18  O   UNL     1       2.806   1.996  18.903  0.00  0.00    +0.000 OA
ATOM     19  C   UNL     1       3.273   2.939  18.266  0.00  0.00    +0.000 C 
ATOM     20  C   UNL     1       2.547   4.268  18.133  0.00  0.00    +0.000 C 
ATOM     21  N   UNL     1       3.392   5.419  17.768  0.00  0.00    +0.000 N 
ATOM     22  C   UNL     1       3.197   6.708  18.289  0.00  0.00    +0.000 C 
ATOM     23  O   UNL     1       3.835   7.699  17.933  0.00  0.00    +0.000 OA
ATOM     24  C   UNL     1       4.424   5.131  16.811  0.00  0.00    +0.000 A 
ATOM     25  C   UNL     1       5.004   6.108  15.988  0.00  0.00    +0.000 A 
ATOM     26  C   UNL     1       6.055   5.796  15.122  0.00  0.00    +0.000 A 
ATOM     27  C   UNL     1       6.551   4.496  15.062  0.00  0.00    +0.000 A 
ATOM     28  C   UNL     1       5.981   3.504  15.856  0.00  0.00    +0.000 A 
ATOM     29  C   UNL     1       4.916   3.812  16.708  0.00  0.00    +0.000 A 
ATOM     30  N   UNL     1       4.387   2.784  17.494  0.00  0.00    +0.000 N 
ATOM     31  H   UNL     1       4.813   1.865  17.499  0.00  0.00    +0.000 HD
ENDBRANCH  17  22
ENDBRANCH   1  17
TORSDOF 6
ENDMDL
MODEL 8
REMARK VINA RESULT:      -8.6      2.149      4.388
REMARK  Name = 
REMARK  6 active torsions:
REMARK  status: ('A' for Active; 'I' for Inactive)
REMARK    1  A    between atoms: C_5  and  C_7
REMARK    2  A    between atoms: C_7  and  O_8
REMARK    3  A    between atoms: O_8  and  C_9
REMARK    4  A    between atoms: C_9  and  C_11
REMARK    5  A    between atoms: C_16  and  O_17
REMARK    6  A    between atoms: O_17  and  C_18
REMARK                            x       y       z     vdW  Elec       q    Type
REMARK                         _______ _______ _______ _____ _____    ______ ____
ROOT
ATOM      1  O   UNL     1       1.747   7.743  21.033  0.00  0.00    +0.000 OA
ENDROOT
BRANCH   1   2
ATOM      2  C   UNL     1       2.096   7.407  19.767  0.00  0.00    +0.000 C 
ATOM      3  O   UNL     1       2.185   8.157  18.810  0.00  0.00    +0.000 OA
BRANCH   2   4
ATOM      4  C   UNL     1       2.141   5.926  19.683  0.00  0.00    +0.000 A 
ATOM      5  C   UNL     1       1.431   5.220  20.677  0.00  0.00    +0.000 A 
ATOM      6  C   UNL     1       1.200   3.850  20.559  0.00  0.00    +0.000 A 
ATOM      7  C   UNL     1       1.672   3.171  19.444  0.00  0.00    +0.000 A 
ATOM      8  C   UNL     1       2.418   3.851  18.478  0.00  0.00    +0.000 A 
ATOM      9  C   UNL     1       2.686   5.225  18.600  0.00  0.00    +0.000 A 
BRANCH   9  10
ATOM     10  O   UNL     1       3.397   5.740  17.542  0.00  0.00    +0.000 OA
BRANCH  10  11
ATOM     11  C   UNL     1       4.697   5.364  17.305  0.00  0.00    +0.000 A 
ATOM     12  C   UNL     1       5.155   4.700  16.166  0.00  0.00    +0.000 A 
ATOM     13  C   UNL     1       6.488   4.289  16.096  0.00  0.00    +0.000 A 
ATOM     14  C   UNL     1       7.373   4.585  17.134  0.00  0.00    +0.000 A 
ATOM     15  C   UNL     1       6.937   5.325  18.229  0.00  0.00    +0.000 A 
ATOM     16  C   UNL     1       5.602   5.720  18.309  0.00  0.00    +0.000 A 
ENDBRANCH  10  11
ENDBRANCH   9  10
ENDBRANCH   2   4
ENDBRANCH   1   2
BRANCH   1  17
ATOM     17  C   UNL     1       0.505   8.442  21.165  0.00  0.00    +0.000 C 
BRANCH  17  22
ATOM     18  O   UNL     1      -1.681   9.984  17.015  0.00  0.00    +0.000 OA
ATOM     19  C   UNL     1      -1.198  10.618  17.952  0.00  0.00    +0.000 C 
ATOM     20  C   UNL     1      -1.121  10.052  19.361  0.00  0.00    +0.000 C 
ATOM     21  N   UNL     1      -0.131  10.688  20.247  0.00  0.00    +0.000 N 
ATOM     22  C   UNL     1       0.629   9.972  21.186  0.00  0.00    +0.000 C 
ATOM     23  O   UNL     1       1.397  10.495  21.994  0.00  0.00    +0.000 OA
ATOM     24  C   UNL     1      -0.016  12.113  20.100  0.00  0.00    +0.000 A 
ATOM     25  C   UNL     1       0.472  12.954  21.112  0.00  0.00    +0.000 A 
ATOM     26  C   UNL     1       0.633  14.325  20.899  0.00  0.00    +0.000 A 
ATOM     27  C   UNL     1       0.312  14.886  19.666  0.00  0.00    +0.000 A 
ATOM     28  C   UNL     1      -0.190  14.075  18.651  0.00  0.00    +0.000 A 
ATOM     29  C   UNL     1      -0.371  12.707  18.870  0.00  0.00    +0.000 A 
ATOM     30  N   UNL     1      -0.867  11.933  17.815  0.00  0.00    +0.000 N 
ATOM     31  H   UNL     1      -1.016  12.342  16.900  0.00  0.00    +0.000 HD
ENDBRANCH  17  22
ENDBRANCH   1  17
TORSDOF 6
ENDMDL
MODEL 9
REMARK VINA RESULT:      -8.5      1.581      3.877
REMARK  Name = 
REMARK  6 active torsions:
REMARK  status: ('A' for Active; 'I' for Inactive)
REMARK    1  A    between atoms: C_5  and  C_7
REMARK    2  A    between atoms: C_7  and  O_8
REMARK    3  A    between atoms: O_8  and  C_9
REMARK    4  A    between atoms: C_9  and  C_11
REMARK    5  A    between atoms: C_16  and  O_17
REMARK    6  A    between atoms: O_17  and  C_18
REMARK                            x       y       z     vdW  Elec       q    Type
REMARK                         _______ _______ _______ _____ _____    ______ ____
ROOT
ATOM      1  O   UNL     1       1.751   7.464  20.356  0.00  0.00    +0.000 OA
ENDROOT
BRANCH   1   2
ATOM      2  C   UNL     1       2.488   6.734  19.482  0.00  0.00    +0.000 C 
ATOM      3  O   UNL     1       2.918   7.104  18.403  0.00  0.00    +0.000 OA
BRANCH   2   4
ATOM      4  C   UNL     1       2.500   5.328  19.957  0.00  0.00    +0.000 A 
ATOM      5  C   UNL     1       1.258   4.793  20.361  0.00  0.00    +0.000 A 
ATOM      6  C   UNL     1       1.105   3.426  20.589  0.00  0.00    +0.000 A 
ATOM      7  C   UNL     1       2.189   2.578  20.410  0.00  0.00    +0.000 A 
ATOM      8  C   UNL     1       3.435   3.104  20.057  0.00  0.00    +0.000 A 
ATOM      9  C   UNL     1       3.612   4.483  19.855  0.00  0.00    +0.000 A 
BRANCH   9  10
ATOM     10  O   UNL     1       4.888   4.822  19.473  0.00  0.00    +0.000 OA
BRANCH  10  11
ATOM     11  C   UNL     1       5.316   4.645  18.179  0.00  0.00    +0.000 A 
ATOM     12  C   UNL     1       4.494   4.394  17.080  0.00  0.00    +0.000 A 
ATOM     13  C   UNL     1       5.069   4.135  15.833  0.00  0.00    +0.000 A 
ATOM     14  C   UNL     1       6.454   4.180  15.672  0.00  0.00    +0.000 A 
ATOM     15  C   UNL     1       7.268   4.518  16.749  0.00  0.00    +0.000 A 
ATOM     16  C   UNL     1       6.697   4.757  17.998  0.00  0.00    +0.000 A 
ENDBRANCH  10  11
ENDBRANCH   9  10
ENDBRANCH   2   4
ENDBRANCH   1   2
BRANCH   1  17
ATOM     17  C   UNL     1       1.494   8.817  19.967  0.00  0.00    +0.000 C 
BRANCH  17  22
ATOM     18  O   UNL     1       2.625  13.581  19.334  0.00  0.00    +0.000 OA
ATOM     19  C   UNL     1       1.742  13.046  20.003  0.00  0.00    +0.000 C 
ATOM     20  C   UNL     1       1.156  11.692  19.639  0.00  0.00    +0.000 C 
ATOM     21  N   UNL     1       0.480  10.978  20.737  0.00  0.00    +0.000 N 
ATOM     22  C   UNL     1       0.549   9.584  20.901  0.00  0.00    +0.000 C 
ATOM     23  O   UNL     1      -0.077   8.960  21.758  0.00  0.00    +0.000 OA
ATOM     24  C   UNL     1      -0.285  11.813  21.621  0.00  0.00    +0.000 A 
ATOM     25  C   UNL     1      -1.350  11.337  22.400  0.00  0.00    +0.000 A 
ATOM     26  C   UNL     1      -2.019  12.170  23.299  0.00  0.00    +0.000 A 
ATOM     27  C   UNL     1      -1.636  13.500  23.442  0.00  0.00    +0.000 A 
ATOM     28  C   UNL     1      -0.592  14.002  22.668  0.00  0.00    +0.000 A 
ATOM     29  C   UNL     1       0.064  13.174  21.752  0.00  0.00    +0.000 A 
ATOM     30  N   UNL     1       1.114  13.722  21.007  0.00  0.00    +0.000 N 
ATOM     31  H   UNL     1       1.434  14.667  21.183  0.00  0.00    +0.000 HD
ENDBRANCH  17  22
ENDBRANCH   1  17
TORSDOF 6
ENDMDL
