MODEL 1
REMARK VINA RESULT:      -8.0      0.000      0.000
REMARK  Name = 
REMARK  5 active torsions:
REMARK  status: ('A' for Active; 'I' for Inactive)
REMARK    1  A    between atoms: C_1  and  C_2
REMARK    2  A    between atoms: C_7  and  C_8
REMARK    3  A    between atoms: C_13  and  N_14
REMARK    4  A    between atoms: C_15  and  C_17
REMARK    5  A    between atoms: C_20  and  C_21
REMARK                            x       y       z     vdW  Elec       q    Type
REMARK                         _______ _______ _______ _____ _____    ______ ____
ROOT
ATOM      1  C   UNL     1       2.037   5.352  19.995  0.00  0.00    +0.000 C 
ATOM      2  O   UNL     1       1.336   4.486  20.519  0.00  0.00    +0.000 OA
ATOM      3  N   UNL     1       3.186   5.014  19.293  0.00  0.00    +0.000 N 
ATOM      4  C   UNL     1       3.562   3.641  19.023  0.00  0.00    +0.000 C 
ATOM      5  C   UNL     1       5.083   3.661  19.053  0.00  0.00    +0.000 C 
ATOM      6  C   UNL     1       5.452   5.036  18.491  0.00  0.00    +0.000 C 
ATOM      7  C   UNL     1       4.251   5.916  18.880  0.00  0.00    +0.000 C 
ENDROOT
BRANCH   1  14
ATOM      8  C   UNL     1       0.514  12.687  19.755  0.00  0.00    +0.000 C 
ATOM      9  C   UNL     1       0.701  11.292  20.271  0.00  0.00    +0.000 A 
ATOM     10  C   UNL     1       0.459  10.959  21.609  0.00  0.00    +0.000 A 
ATOM     11  C   UNL     1       0.633   9.649  22.087  0.00  0.00    +0.000 A 
ATOM     12  C   UNL     1       1.047   8.676  21.169  0.00  0.00    +0.000 A 
ATOM     13  N   UNL     1       1.288   7.325  21.317  0.00  0.00    +0.000 N 
ATOM     14  C   UNL     1       1.698   6.759  20.122  0.00  0.00    +0.000 A 
ATOM     15  C   UNL     1       1.630   7.776  19.187  0.00  0.00    +0.000 A 
ATOM     16  C   UNL     1       1.280   8.981  19.835  0.00  0.00    +0.000 A 
ATOM     17  C   UNL     1       1.121  10.298  19.379  0.00  0.00    +0.000 A 
ATOM     18  H   UNL     1       1.191   6.805  22.178  0.00  0.00    +0.000 HD
ENDBRANCH   1  14
BRANCH   6  19
ATOM     19  N   UNL     1       5.694   5.037  17.053  0.00  0.00    +0.000 N 
ATOM     20  C   UNL     1       6.937   4.693  16.558  0.00  0.00    +0.000 C 
ATOM     21  O   UNL     1       7.896   4.440  17.279  0.00  0.00    +0.000 OA
ATOM     22  H   UNL     1       4.952   5.194  16.380  0.00  0.00    +0.000 HD
BRANCH  20  23
ATOM     23  C   UNL     1       7.023   4.668  15.107  0.00  0.00    +0.000 A 
ATOM     24  C   UNL     1       7.738   5.558  14.341  0.00  0.00    +0.000 A 
ATOM     25  O   UNL     1       7.601   5.209  13.038  0.00  0.00    +0.000 OA
ATOM     26  C   UNL     1       6.785   4.107  13.060  0.00  0.00    +0.000 A 
ATOM     27  N   UNL     1       6.405   3.744  14.276  0.00  0.00    +0.000 NA
BRANCH  26  28
ATOM     28  C   UNL     1       6.367   3.410  11.773  0.00  0.00    +0.000 C 
ATOM     29  C   UNL     1       5.152   2.454  11.953  0.00  0.00    +0.000 C 
ATOM     30  C   UNL     1       5.840   1.501  10.961  0.00  0.00    +0.000 C 
ATOM     31  C   UNL     1       7.171   2.129  11.413  0.00  0.00    +0.000 C 
ENDBRANCH  26  28
ENDBRANCH  20  23
ENDBRANCH   6  19
TORSDOF 4
ENDMDL
MODEL 2
REMARK VINA RESULT:      -7.9      1.138      1.432
REMARK  Name = 
REMARK  5 active torsions:
REMARK  status: ('A' for Active; 'I' for Inactive)
REMARK    1  A    between atoms: C_1  and  C_2
REMARK    2  A    between atoms: C_7  and  C_8
REMARK    3  A    between atoms: C_13  and  N_14
REMARK    4  A    between atoms: C_15  and  C_17
REMARK    5  A    between atoms: C_20  and  C_21
REMARK                            x       y       z     vdW  Elec       q    Type
REMARK                         _______ _______ _______ _____ _____    ______ ____
ROOT
ATOM      1  C   UNL     1       2.563   5.622  19.866  0.00  0.00    +0.000 C 
ATOM      2  O   UNL     1       2.084   4.836  20.683  0.00  0.00    +0.000 OA
ATOM      3  N   UNL     1       3.576   5.227  19.002  0.00  0.00    +0.000 N 
ATOM      4  C   UNL     1       4.039   3.858  18.915  0.00  0.00    +0.000 C 
ATOM      5  C   UNL     1       5.523   3.988  18.603  0.00  0.00    +0.000 C 
ATOM      6  C   UNL     1       5.615   5.241  17.730  0.00  0.00    +0.000 C 
ATOM      7  C   UNL     1       4.428   6.098  18.205  0.00  0.00    +0.000 C 
ENDROOT
BRANCH   1  14
ATOM      8  C   UNL     1       0.357  12.678  18.629  0.00  0.00    +0.000 C 
ATOM      9  C   UNL     1       0.702  11.401  19.336  0.00  0.00    +0.000 A 
ATOM     10  C   UNL     1       0.568  11.263  20.723  0.00  0.00    +0.000 A 
ATOM     11  C   UNL     1       0.888  10.063  21.380  0.00  0.00    +0.000 A 
ATOM     12  C   UNL     1       1.338   8.996  20.592  0.00  0.00    +0.000 A 
ATOM     13  N   UNL     1       1.711   7.709  20.925  0.00  0.00    +0.000 N 
ATOM     14  C   UNL     1       2.103   6.999  19.803  0.00  0.00    +0.000 A 
ATOM     15  C   UNL     1       1.889   7.848  18.733  0.00  0.00    +0.000 A 
ATOM     16  C   UNL     1       1.466   9.106  19.214  0.00  0.00    +0.000 A 
ATOM     17  C   UNL     1       1.161  10.319  18.577  0.00  0.00    +0.000 A 
ATOM     18  H   UNL     1       1.711   7.324  21.859  0.00  0.00    +0.000 HD
ENDBRANCH   1  14
BRANCH   6  19
ATOM     19  N   UNL     1       5.559   4.966  16.299  0.00  0.00    +0.000 N 
ATOM     20  C   UNL     1       6.713   4.657  15.606  0.00  0.00    +0.000 C 
ATOM     21  O   UNL     1       7.824   4.663  16.123  0.00  0.00    +0.000 OA
ATOM     22  H   UNL     1       4.681   4.899  15.796  0.00  0.00    +0.000 HD
BRANCH  20  23
ATOM     23  C   UNL     1       6.507   4.336  14.202  0.00  0.00    +0.000 A 
ATOM     24  C   UNL     1       7.383   4.634  13.186  0.00  0.00    +0.000 A 
ATOM     25  O   UNL     1       6.866   4.164  12.024  0.00  0.00    +0.000 OA
ATOM     26  C   UNL     1       5.668   3.600  12.381  0.00  0.00    +0.000 A 
ATOM     27  N   UNL     1       5.402   3.681  13.676  0.00  0.00    +0.000 NA
BRANCH  26  28
ATOM     28  C   UNL     1       4.755   2.965  11.343  0.00  0.00    +0.000 C 
ATOM     29  C   UNL     1       4.432   3.905  10.144  0.00  0.00    +0.000 C 
ATOM     30  C   UNL     1       3.008   3.325  10.160  0.00  0.00    +0.000 C 
ATOM     31  C   UNL     1       3.234   3.035  11.655  0.00  0.00    +0.000 C 
ENDBRANCH  26  28
ENDBRANCH  20  23
ENDBRANCH   6  19
TORSDOF 4
ENDMDL
MODEL 3
REMARK VINA RESULT:      -7.8      0.933      1.391
REMARK  Name = 
REMARK  5 active torsions:
REMARK  status: ('A' for Active; 'I' for Inactive)
REMARK    1  A    between atoms: C_1  and  C_2
REMARK    2  A    between atoms: C_7  and  C_8
REMARK    3  A    between atoms: C_13  and  N_14
REMARK    4  A    between atoms: C_15  and  C_17
REMARK    5  A    between atoms: C_20  and  C_21
REMARK                            x       y       z     vdW  Elec       q    Type
REMARK                         _______ _______ _______ _____ _____    ______ ____
ROOT
ATOM      1  C   UNL     1       2.185   5.068  19.573  0.00  0.00    +0.000 C 
ATOM      2  O   UNL     1       1.436   4.279  20.147  0.00  0.00    +0.000 OA
ATOM      3  N   UNL     1       3.315   4.622  18.900  0.00  0.00    +0.000 N 
ATOM      4  C   UNL     1       3.613   3.216  18.720  0.00  0.00    +0.000 C 
ATOM      5  C   UNL     1       5.132   3.152  18.756  0.00  0.00    +0.000 C 
ATOM      6  C   UNL     1       5.580   4.466  18.111  0.00  0.00    +0.000 C 
ATOM      7  C   UNL     1       4.430   5.435  18.437  0.00  0.00    +0.000 C 
ENDROOT
BRANCH   1  14
ATOM      8  C   UNL     1       0.611  12.317  20.649  0.00  0.00    +0.000 C 
ATOM      9  C   UNL     1       1.008  11.034  19.982  0.00  0.00    +0.000 A 
ATOM     10  C   UNL     1       1.373  10.983  18.632  0.00  0.00    +0.000 A 
ATOM     11  C   UNL     1       1.747   9.779  18.012  0.00  0.00    +0.000 A 
ATOM     12  C   UNL     1       1.755   8.622  18.802  0.00  0.00    +0.000 A 
ATOM     13  N   UNL     1       2.082   7.315  18.503  0.00  0.00    +0.000 N 
ATOM     14  C   UNL     1       1.927   6.498  19.610  0.00  0.00    +0.000 A 
ATOM     15  C   UNL     1       1.571   7.341  20.647  0.00  0.00    +0.000 A 
ATOM     16  C   UNL     1       1.409   8.651  20.146  0.00  0.00    +0.000 A 
ATOM     17  C   UNL     1       1.018   9.859  20.744  0.00  0.00    +0.000 A 
ATOM     18  H   UNL     1       2.387   6.981  17.599  0.00  0.00    +0.000 HD
ENDBRANCH   1  14
BRANCH   6  19
ATOM     19  N   UNL     1       5.824   4.362  16.677  0.00  0.00    +0.000 N 
ATOM     20  C   UNL     1       6.816   5.120  16.086  0.00  0.00    +0.000 C 
ATOM     21  O   UNL     1       7.481   5.947  16.701  0.00  0.00    +0.000 OA
ATOM     22  H   UNL     1       5.352   3.679  16.096  0.00  0.00    +0.000 HD
BRANCH  20  23
ATOM     23  C   UNL     1       7.001   4.871  14.665  0.00  0.00    +0.000 A 
ATOM     24  C   UNL     1       7.838   5.582  13.840  0.00  0.00    +0.000 A 
ATOM     25  O   UNL     1       7.765   5.051  12.594  0.00  0.00    +0.000 OA
ATOM     26  C   UNL     1       6.860   4.027  12.708  0.00  0.00    +0.000 A 
ATOM     27  N   UNL     1       6.368   3.879  13.929  0.00  0.00    +0.000 NA
BRANCH  26  28
ATOM     28  C   UNL     1       6.477   3.175  11.506  0.00  0.00    +0.000 C 
ATOM     29  C   UNL     1       5.281   2.217  11.781  0.00  0.00    +0.000 C 
ATOM     30  C   UNL     1       6.005   1.173  10.915  0.00  0.00    +0.000 C 
ATOM     31  C   UNL     1       7.315   1.882  11.306  0.00  0.00    +0.000 C 
ENDBRANCH  26  28
ENDBRANCH  20  23
ENDBRANCH   6  19
TORSDOF 4
ENDMDL
MODEL 4
REMARK VINA RESULT:      -7.8      4.756      8.065
REMARK  Name = 
REMARK  5 active torsions:
REMARK  status: ('A' for Active; 'I' for Inactive)
REMARK    1  A    between atoms: C_1  and  C_2
REMARK    2  A    between atoms: C_7  and  C_8
REMARK    3  A    between atoms: C_13  and  N_14
REMARK    4  A    between atoms: C_15  and  C_17
REMARK    5  A    between atoms: C_20  and  C_21
REMARK                            x       y       z     vdW  Elec       q    Type
REMARK                         _______ _______ _______ _____ _____    ______ ____
ROOT
ATOM      1  C   UNL     1      -0.272  13.438  21.740  0.00  0.00    +0.000 C 
ATOM      2  O   UNL     1       0.369  14.401  22.160  0.00  0.00    +0.000 OA
ATOM      3  N   UNL     1       0.301  12.524  20.865  0.00  0.00    +0.000 N 
ATOM      4  C   UNL     1       1.701  12.567  20.497  0.00  0.00    +0.000 C 
ATOM      5  C   UNL     1       1.720  12.073  19.058  0.00  0.00    +0.000 C 
ATOM      6  C   UNL     1       0.595  11.037  19.000  0.00  0.00    +0.000 C 
ATOM      7  C   UNL     1      -0.398  11.527  20.068  0.00  0.00    +0.000 C 
ENDROOT
BRANCH   1  14
ATOM      8  C   UNL     1      -7.647  12.681  22.843  0.00  0.00    +0.000 C 
ATOM      9  C   UNL     1      -6.170  12.721  23.098  0.00  0.00    +0.000 A 
ATOM     10  C   UNL     1      -5.628  12.439  24.357  0.00  0.00    +0.000 A 
ATOM     11  C   UNL     1      -4.243  12.475  24.590  0.00  0.00    +0.000 A 
ATOM     12  C   UNL     1      -3.414  12.791  23.506  0.00  0.00    +0.000 A 
ATOM     13  N   UNL     1      -2.041  12.891  23.406  0.00  0.00    +0.000 N 
ATOM     14  C   UNL     1      -1.660  13.246  22.123  0.00  0.00    +0.000 A 
ATOM     15  C   UNL     1      -2.831  13.288  21.387  0.00  0.00    +0.000 A 
ATOM     16  C   UNL     1      -3.929  13.061  22.246  0.00  0.00    +0.000 A 
ATOM     17  C   UNL     1      -5.316  13.041  22.035  0.00  0.00    +0.000 A 
ATOM     18  H   UNL     1      -1.387  12.736  24.161  0.00  0.00    +0.000 HD
ENDBRANCH   1  14
BRANCH   6  19
ATOM     19  N   UNL     1       1.043   9.671  19.248  0.00  0.00    +0.000 N 
ATOM     20  C   UNL     1       1.846   9.026  18.328  0.00  0.00    +0.000 C 
ATOM     21  O   UNL     1       2.164   9.525  17.254  0.00  0.00    +0.000 OA
ATOM     22  H   UNL     1       0.863   9.194  20.124  0.00  0.00    +0.000 HD
BRANCH  20  23
ATOM     23  C   UNL     1       2.277   7.696  18.729  0.00  0.00    +0.000 A 
ATOM     24  C   UNL     1       3.193   6.925  18.055  0.00  0.00    +0.000 A 
ATOM     25  O   UNL     1       3.358   5.763  18.735  0.00  0.00    +0.000 OA
ATOM     26  C   UNL     1       2.511   5.868  19.809  0.00  0.00    +0.000 A 
ATOM     27  N   UNL     1       1.835   7.007  19.850  0.00  0.00    +0.000 NA
BRANCH  26  28
ATOM     28  C   UNL     1       2.383   4.743  20.825  0.00  0.00    +0.000 C 
ATOM     29  C   UNL     1       3.117   3.438  20.400  0.00  0.00    +0.000 C 
ATOM     30  C   UNL     1       1.943   2.657  21.014  0.00  0.00    +0.000 C 
ATOM     31  C   UNL     1       1.080   3.901  20.733  0.00  0.00    +0.000 C 
ENDBRANCH  26  28
ENDBRANCH  20  23
ENDBRANCH   6  19
TORSDOF 4
ENDMDL
MODEL 5
REMARK VINA RESULT:      -7.8      4.213      9.770
REMARK  Name = 
REMARK  5 active torsions:
REMARK  status: ('A' for Active; 'I' for Inactive)
REMARK    1  A    between atoms: C_1  and  C_2
REMARK    2  A    between atoms: C_7  and  C_8
REMARK    3  A    between atoms: C_13  and  N_14
REMARK    4  A    between atoms: C_15  and  C_17
REMARK    5  A    between atoms: C_20  and  C_21
REMARK                            x       y       z     vdW  Elec       q    Type
REMARK                         _______ _______ _______ _____ _____    ______ ____
ROOT
ATOM      1  C   UNL     1       2.171   7.084  19.722  0.00  0.00    +0.000 C 
ATOM      2  O   UNL     1       1.872   6.448  20.733  0.00  0.00    +0.000 OA
ATOM      3  N   UNL     1       1.685   8.368  19.514  0.00  0.00    +0.000 N 
ATOM      4  C   UNL     1       0.914   9.082  20.511  0.00  0.00    +0.000 C 
ATOM      5  C   UNL     1      -0.057   9.922  19.695  0.00  0.00    +0.000 C 
ATOM      6  C   UNL     1       0.730  10.292  18.436  0.00  0.00    +0.000 C 
ATOM      7  C   UNL     1       1.706   9.114  18.265  0.00  0.00    +0.000 C 
ENDROOT
BRANCH   1  14
ATOM      8  C   UNL     1       6.724   4.920  14.174  0.00  0.00    +0.000 C 
ATOM      9  C   UNL     1       5.768   4.868  15.330  0.00  0.00    +0.000 A 
ATOM     10  C   UNL     1       5.329   3.656  15.874  0.00  0.00    +0.000 A 
ATOM     11  C   UNL     1       4.437   3.613  16.959  0.00  0.00    +0.000 A 
ATOM     12  C   UNL     1       4.009   4.836  17.490  0.00  0.00    +0.000 A 
ATOM     13  N   UNL     1       3.164   5.127  18.543  0.00  0.00    +0.000 N 
ATOM     14  C   UNL     1       3.019   6.496  18.699  0.00  0.00    +0.000 A 
ATOM     15  C   UNL     1       3.864   7.068  17.765  0.00  0.00    +0.000 A 
ATOM     16  C   UNL     1       4.441   6.050  16.975  0.00  0.00    +0.000 A 
ATOM     17  C   UNL     1       5.317   6.074  15.878  0.00  0.00    +0.000 A 
ATOM     18  H   UNL     1       2.700   4.445  19.126  0.00  0.00    +0.000 HD
ENDBRANCH   1  14
BRANCH   6  19
ATOM     19  N   UNL     1       1.422  11.573  18.531  0.00  0.00    +0.000 N 
ATOM     20  C   UNL     1       0.719  12.753  18.389  0.00  0.00    +0.000 C 
ATOM     21  O   UNL     1      -0.476  12.790  18.117  0.00  0.00    +0.000 OA
ATOM     22  H   UNL     1       2.399  11.641  18.792  0.00  0.00    +0.000 HD
BRANCH  20  23
ATOM     23  C   UNL     1       1.515  13.956  18.574  0.00  0.00    +0.000 A 
ATOM     24  C   UNL     1       1.062  15.125  19.137  0.00  0.00    +0.000 A 
ATOM     25  O   UNL     1       2.086  16.013  19.163  0.00  0.00    +0.000 OA
ATOM     26  C   UNL     1       3.139  15.343  18.593  0.00  0.00    +0.000 A 
ATOM     27  N   UNL     1       2.848  14.107  18.218  0.00  0.00    +0.000 NA
BRANCH  26  28
ATOM     28  C   UNL     1       4.495  16.011  18.415  0.00  0.00    +0.000 C 
ATOM     29  C   UNL     1       5.618  15.026  17.978  0.00  0.00    +0.000 C 
ATOM     30  C   UNL     1       6.571  15.809  18.895  0.00  0.00    +0.000 C 
ATOM     31  C   UNL     1       5.327  16.196  19.715  0.00  0.00    +0.000 C 
ENDBRANCH  26  28
ENDBRANCH  20  23
ENDBRANCH   6  19
TORSDOF 4
ENDMDL
MODEL 6
REMARK VINA RESULT:      -7.8      4.744     11.653
REMARK  Name = 
REMARK  5 active torsions:
REMARK  status: ('A' for Active; 'I' for Inactive)
REMARK    1  A    between atoms: C_1  and  C_2
REMARK    2  A    between atoms: C_7  and  C_8
REMARK    3  A    between atoms: C_13  and  N_14
REMARK    4  A    between atoms: C_15  and  C_17
REMARK    5  A    between atoms: C_20  and  C_21
REMARK                            x       y       z     vdW  Elec       q    Type
REMARK                         _______ _______ _______ _____ _____    ______ ____
ROOT
ATOM      1  C   UNL     1       1.866   9.435  18.458  0.00  0.00    +0.000 C 
ATOM      2  O   UNL     1       2.339   9.815  17.387  0.00  0.00    +0.000 OA
ATOM      3  N   UNL     1       1.205  10.318  19.303  0.00  0.00    +0.000 N 
ATOM      4  C   UNL     1       0.918  11.688  18.930  0.00  0.00    +0.000 C 
ATOM      5  C   UNL     1       1.012  12.455  20.241  0.00  0.00    +0.000 C 
ATOM      6  C   UNL     1       0.501  11.467  21.293  0.00  0.00    +0.000 C 
ATOM      7  C   UNL     1       0.861  10.094  20.699  0.00  0.00    +0.000 C 
ENDROOT
BRANCH   1  14
ATOM      8  C   UNL     1       2.450   2.622  21.527  0.00  0.00    +0.000 C 
ATOM      9  C   UNL     1       2.458   3.729  20.516  0.00  0.00    +0.000 A 
ATOM     10  C   UNL     1       2.747   3.498  19.166  0.00  0.00    +0.000 A 
ATOM     11  C   UNL     1       2.749   4.538  18.222  0.00  0.00    +0.000 A 
ATOM     12  C   UNL     1       2.437   5.825  18.679  0.00  0.00    +0.000 A 
ATOM     13  N   UNL     1       2.341   7.031  18.014  0.00  0.00    +0.000 N 
ATOM     14  C   UNL     1       2.015   8.055  18.887  0.00  0.00    +0.000 A 
ATOM     15  C   UNL     1       1.823   7.449  20.116  0.00  0.00    +0.000 A 
ATOM     16  C   UNL     1       2.135   6.075  20.010  0.00  0.00    +0.000 A 
ATOM     17  C   UNL     1       2.156   5.028  20.944  0.00  0.00    +0.000 A 
ATOM     18  H   UNL     1       2.494   7.167  17.025  0.00  0.00    +0.000 HD
ENDBRANCH   1  14
BRANCH   6  19
ATOM     19  N   UNL     1      -0.925  11.591  21.571  0.00  0.00    +0.000 N 
ATOM     20  C   UNL     1      -1.364  12.420  22.585  0.00  0.00    +0.000 C 
ATOM     21  O   UNL     1      -0.602  13.028  23.328  0.00  0.00    +0.000 OA
ATOM     22  H   UNL     1      -1.630  11.159  20.985  0.00  0.00    +0.000 HD
BRANCH  20  23
ATOM     23  C   UNL     1      -2.811  12.506  22.711  0.00  0.00    +0.000 A 
ATOM     24  C   UNL     1      -3.523  12.226  23.853  0.00  0.00    +0.000 A 
ATOM     25  O   UNL     1      -4.838  12.437  23.600  0.00  0.00    +0.000 OA
ATOM     26  C   UNL     1      -4.879  12.831  22.287  0.00  0.00    +0.000 A 
ATOM     27  N   UNL     1      -3.690  12.884  21.705  0.00  0.00    +0.000 NA
BRANCH  26  28
ATOM     28  C   UNL     1      -6.198  13.152  21.600  0.00  0.00    +0.000 C 
ATOM     29  C   UNL     1      -7.039  11.889  21.252  0.00  0.00    +0.000 C 
ATOM     30  C   UNL     1      -7.440  12.597  19.947  0.00  0.00    +0.000 C 
ATOM     31  C   UNL     1      -6.118  13.377  20.064  0.00  0.00    +0.000 C 
ENDBRANCH  26  28
ENDBRANCH  20  23
ENDBRANCH   6  19
TORSDOF 4
ENDMDL
MODEL 7
REMARK VINA RESULT:      -7.6      3.687     10.019
REMARK  Name = 
REMARK  5 active torsions:
REMARK  status: ('A' for Active; 'I' for Inactive)
REMARK    1  A    between atoms: C_1  and  C_2
REMARK    2  A    between atoms: C_7  and  C_8
REMARK    3  A    between atoms: C_13  and  N_14
REMARK    4  A    between atoms: C_15  and  C_17
REMARK    5  A    between atoms: C_20  and  C_21
REMARK                            x       y       z     vdW  Elec       q    Type
REMARK                         _______ _______ _______ _____ _____    ______ ____
ROOT
ATOM      1  C   UNL     1       2.599   6.322  20.134  0.00  0.00    +0.000 C 
ATOM      2  O   UNL     1       2.384   5.619  21.121  0.00  0.00    +0.000 OA
ATOM      3  N   UNL     1       1.991   7.562  19.992  0.00  0.00    +0.000 N 
ATOM      4  C   UNL     1       1.183   8.160  21.034  0.00  0.00    +0.000 C 
ATOM      5  C   UNL     1       0.118   8.940  20.277  0.00  0.00    +0.000 C 
ATOM      6  C   UNL     1       0.837   9.433  19.019  0.00  0.00    +0.000 C 
ATOM      7  C   UNL     1       1.912   8.360  18.776  0.00  0.00    +0.000 C 
ENDROOT
BRANCH   1  14
ATOM      8  C   UNL     1       6.332   3.846  14.124  0.00  0.00    +0.000 C 
ATOM      9  C   UNL     1       6.036   4.328  15.513  0.00  0.00    +0.000 A 
ATOM     10  C   UNL     1       7.044   4.492  16.470  0.00  0.00    +0.000 A 
ATOM     11  C   UNL     1       6.762   4.947  17.769  0.00  0.00    +0.000 A 
ATOM     12  C   UNL     1       5.428   5.248  18.072  0.00  0.00    +0.000 A 
ATOM     13  N   UNL     1       4.840   5.721  19.228  0.00  0.00    +0.000 N 
ATOM     14  C   UNL     1       3.471   5.858  19.068  0.00  0.00    +0.000 A 
ATOM     15  C   UNL     1       3.218   5.538  17.747  0.00  0.00    +0.000 A 
ATOM     16  C   UNL     1       4.415   5.106  17.135  0.00  0.00    +0.000 A 
ATOM     17  C   UNL     1       4.711   4.630  15.848  0.00  0.00    +0.000 A 
ATOM     18  H   UNL     1       5.327   5.935  20.087  0.00  0.00    +0.000 HD
ENDBRANCH   1  14
BRANCH   6  19
ATOM     19  N   UNL     1       1.410  10.768  19.155  0.00  0.00    +0.000 N 
ATOM     20  C   UNL     1       0.656  11.881  18.843  0.00  0.00    +0.000 C 
ATOM     21  O   UNL     1      -0.479  11.813  18.385  0.00  0.00    +0.000 OA
ATOM     22  H   UNL     1       2.325  10.923  19.563  0.00  0.00    +0.000 HD
BRANCH  20  23
ATOM     23  C   UNL     1       1.323  13.150  19.090  0.00  0.00    +0.000 A 
ATOM     24  C   UNL     1       2.421  13.323  19.898  0.00  0.00    +0.000 A 
ATOM     25  O   UNL     1       2.775  14.631  19.867  0.00  0.00    +0.000 OA
ATOM     26  C   UNL     1       1.855  15.218  19.036  0.00  0.00    +0.000 A 
ATOM     27  N   UNL     1       0.958  14.375  18.547  0.00  0.00    +0.000 NA
BRANCH  26  28
ATOM     28  C   UNL     1       1.893  16.712  18.747  0.00  0.00    +0.000 C 
ATOM     29  C   UNL     1       0.556  17.266  18.174  0.00  0.00    +0.000 C 
ATOM     30  C   UNL     1       1.400  18.175  17.265  0.00  0.00    +0.000 C 
ATOM     31  C   UNL     1       2.510  17.114  17.378  0.00  0.00    +0.000 C 
ENDBRANCH  26  28
ENDBRANCH  20  23
ENDBRANCH   6  19
TORSDOF 4
ENDMDL
MODEL 8
REMARK VINA RESULT:      -7.6      7.657     11.044
REMARK  Name = 
REMARK  5 active torsions:
REMARK  status: ('A' for Active; 'I' for Inactive)
REMARK    1  A    between atoms: C_1  and  C_2
REMARK    2  A    between atoms: C_7  and  C_8
REMARK    3  A    between atoms: C_13  and  N_14
REMARK    4  A    between atoms: C_15  and  C_17
REMARK    5  A    between atoms: C_20  and  C_21
REMARK                            x       y       z     vdW  Elec       q    Type
REMARK                         _______ _______ _______ _____ _____    ______ ____
ROOT
ATOM      1  C   UNL     1       5.423  16.248  18.841  0.00  0.00    +0.000 C 
ATOM      2  O   UNL     1       5.423  17.450  18.580  0.00  0.00    +0.000 OA
ATOM      3  N   UNL     1       4.248  15.587  19.175  0.00  0.00    +0.000 N 
ATOM      4  C   UNL     1       2.949  16.224  19.112  0.00  0.00    +0.000 C 
ATOM      5  C   UNL     1       2.167  15.583  20.249  0.00  0.00    +0.000 C 
ATOM      6  C   UNL     1       2.689  14.146  20.301  0.00  0.00    +0.000 C 
ATOM      7  C   UNL     1       4.132  14.269  19.783  0.00  0.00    +0.000 C 
ENDROOT
BRANCH   1  14
ATOM      8  C   UNL     1      11.545  12.003  18.013  0.00  0.00    +0.000 C 
ATOM      9  C   UNL     1      10.539  12.943  18.606  0.00  0.00    +0.000 A 
ATOM     10  C   UNL     1      10.722  13.527  19.865  0.00  0.00    +0.000 A 
ATOM     11  C   UNL     1       9.778  14.410  20.415  0.00  0.00    +0.000 A 
ATOM     12  C   UNL     1       8.643  14.701  19.647  0.00  0.00    +0.000 A 
ATOM     13  N   UNL     1       7.562  15.524  19.893  0.00  0.00    +0.000 N 
ATOM     14  C   UNL     1       6.662  15.488  18.841  0.00  0.00    +0.000 A 
ATOM     15  C   UNL     1       7.245  14.681  17.881  0.00  0.00    +0.000 A 
ATOM     16  C   UNL     1       8.447  14.144  18.391  0.00  0.00    +0.000 A 
ATOM     17  C   UNL     1       9.390  13.248  17.866  0.00  0.00    +0.000 A 
ATOM     18  H   UNL     1       7.427  16.078  20.726  0.00  0.00    +0.000 HD
ENDBRANCH   1  14
BRANCH   6  19
ATOM     19  N   UNL     1       1.899  13.205  19.515  0.00  0.00    +0.000 N 
ATOM     20  C   UNL     1       1.241  12.162  20.137  0.00  0.00    +0.000 C 
ATOM     21  O   UNL     1       1.334  11.935  21.338  0.00  0.00    +0.000 OA
ATOM     22  H   UNL     1       1.733  13.336  18.524  0.00  0.00    +0.000 HD
BRANCH  20  23
ATOM     23  C   UNL     1       0.435  11.341  19.248  0.00  0.00    +0.000 A 
ATOM     24  C   UNL     1       0.906  10.290  18.498  0.00  0.00    +0.000 A 
ATOM     25  O   UNL     1      -0.134   9.752  17.813  0.00  0.00    +0.000 OA
ATOM     26  C   UNL     1      -1.215  10.519  18.168  0.00  0.00    +0.000 A 
ATOM     27  N   UNL     1      -0.927  11.489  19.023  0.00  0.00    +0.000 NA
BRANCH  26  28
ATOM     28  C   UNL     1      -2.597  10.248  17.592  0.00  0.00    +0.000 C 
ATOM     29  C   UNL     1      -2.682  10.474  16.054  0.00  0.00    +0.000 C 
ATOM     30  C   UNL     1      -4.087  11.054  16.284  0.00  0.00    +0.000 C 
ATOM     31  C   UNL     1      -3.611  11.421  17.702  0.00  0.00    +0.000 C 
ENDBRANCH  26  28
ENDBRANCH  20  23
ENDBRANCH   6  19
TORSDOF 4
ENDMDL
MODEL 9
REMARK VINA RESULT:      -7.5      4.934     12.005
REMARK  Name = 
REMARK  5 active torsions:
REMARK  status: ('A' for Active; 'I' for Inactive)
REMARK    1  A    between atoms: C_1  and  C_2
REMARK    2  A    between atoms: C_7  and  C_8
REMARK    3  A    between atoms: C_13  and  N_14
REMARK    4  A    between atoms: C_15  and  C_17
REMARK    5  A    between atoms: C_20  and  C_21
REMARK                            x       y       z     vdW  Elec       q    Type
REMARK                         _______ _______ _______ _____ _____    ______ ____
ROOT
ATOM      1  C   UNL     1       2.121   9.215  18.401  0.00  0.00    +0.000 C 
ATOM      2  O   UNL     1       2.830   9.538  17.448  0.00  0.00    +0.000 OA
ATOM      3  N   UNL     1       1.351  10.157  19.071  0.00  0.00    +0.000 N 
ATOM      4  C   UNL     1       1.230  11.529  18.623  0.00  0.00    +0.000 C 
ATOM      5  C   UNL     1       1.092  12.328  19.911  0.00  0.00    +0.000 C 
ATOM      6  C   UNL     1       0.315  11.400  20.847  0.00  0.00    +0.000 C 
ATOM      7  C   UNL     1       0.709   9.993  20.367  0.00  0.00    +0.000 C 
ENDROOT
BRANCH   1  14
ATOM      8  C   UNL     1       1.906   2.488  21.699  0.00  0.00    +0.000 C 
ATOM      9  C   UNL     1       2.006   3.550  20.645  0.00  0.00    +0.000 A 
ATOM     10  C   UNL     1       2.163   3.237  19.290  0.00  0.00    +0.000 A 
ATOM     11  C   UNL     1       2.254   4.236  18.306  0.00  0.00    +0.000 A 
ATOM     12  C   UNL     1       2.167   5.568  18.730  0.00  0.00    +0.000 A 
ATOM     13  N   UNL     1       2.204   6.755  18.025  0.00  0.00    +0.000 N 
ATOM     14  C   UNL     1       2.094   7.842  18.875  0.00  0.00    +0.000 A 
ATOM     15  C   UNL     1       1.900   7.309  20.136  0.00  0.00    +0.000 A 
ATOM     16  C   UNL     1       1.998   5.902  20.067  0.00  0.00    +0.000 A 
ATOM     17  C   UNL     1       1.930   4.892  21.038  0.00  0.00    +0.000 A 
ATOM     18  H   UNL     1       2.307   6.836  17.023  0.00  0.00    +0.000 HD
ENDBRANCH   1  14
BRANCH   6  19
ATOM     19  N   UNL     1      -1.129  11.610  20.816  0.00  0.00    +0.000 N 
ATOM     20  C   UNL     1      -1.741  12.368  21.795  0.00  0.00    +0.000 C 
ATOM     21  O   UNL     1      -1.136  12.837  22.753  0.00  0.00    +0.000 OA
ATOM     22  H   UNL     1      -1.704  11.295  20.043  0.00  0.00    +0.000 HD
BRANCH  20  23
ATOM     23  C   UNL     1      -3.170  12.556  21.607  0.00  0.00    +0.000 A 
ATOM     24  C   UNL     1      -3.786  12.786  20.400  0.00  0.00    +0.000 A 
ATOM     25  O   UNL     1      -5.121  12.887  20.612  0.00  0.00    +0.000 OA
ATOM     26  C   UNL     1      -5.269  12.727  21.966  0.00  0.00    +0.000 A 
ATOM     27  N   UNL     1      -4.129  12.530  22.611  0.00  0.00    +0.000 NA
BRANCH  26  28
ATOM     28  C   UNL     1      -6.640  12.793  22.623  0.00  0.00    +0.000 C 
ATOM     29  C   UNL     1      -7.130  14.246  22.888  0.00  0.00    +0.000 C 
ATOM     30  C   UNL     1      -7.728  13.733  24.209  0.00  0.00    +0.000 C 
ATOM     31  C   UNL     1      -6.651  12.633  24.169  0.00  0.00    +0.000 C 
ENDBRANCH  26  28
ENDBRANCH  20  23
ENDBRANCH   6  19
TORSDOF 4
ENDMDL
