MODEL 1
REMARK VINA RESULT:      -8.3      0.000      0.000
REMARK  Name = 
REMARK  6 active torsions:
REMARK  status: ('A' for Active; 'I' for Inactive)
REMARK    1  A    between atoms: C_1  and  S_2
REMARK    2  A    between atoms: S_2  and  C_5
REMARK    3  A    between atoms: C_9  and  C_10
REMARK    4  A    between atoms: N_12  and  C_13
REMARK    5  A    between atoms: C_17  and  C_18
REMARK    6  A    between atoms: C_19  and  C_20
REMARK                            x       y       z     vdW  Elec       q    Type
REMARK                         _______ _______ _______ _____ _____    ______ ____
ROOT
ATOM      1  C   UNL     1       2.374   7.663  18.641  0.00  0.00    +0.000 C 
ATOM      2  O   UNL     1       2.102   7.654  19.837  0.00  0.00    +0.000 OA
ATOM      3  N   UNL     1       2.131   8.689  17.740  0.00  0.00    +0.000 N 
ATOM      4  H   UNL     1       2.263   8.489  16.756  0.00  0.00    +0.000 HD
ENDROOT
BRANCH   1   9
ATOM      5  C   UNL     1       4.869   5.323  17.054  0.00  0.00    +0.000 A 
ATOM      6  C   UNL     1       4.155   4.124  16.994  0.00  0.00    +0.000 A 
ATOM      7  C   UNL     1       2.838   4.078  17.459  0.00  0.00    +0.000 A 
ATOM      8  C   UNL     1       2.239   5.220  18.000  0.00  0.00    +0.000 A 
ATOM      9  C   UNL     1       2.964   6.417  18.078  0.00  0.00    +0.000 A 
ATOM     10  C   UNL     1       4.279   6.472  17.588  0.00  0.00    +0.000 A 
BRANCH   5  12
ATOM     11  C   UNL     1       6.636   4.654  14.947  0.00  0.00    +0.000 C 
ATOM     12  S   UNL     1       6.581   5.359  16.571  0.00  0.00    +0.000 S 
ATOM     13  O   UNL     1       7.301   4.462  17.457  0.00  0.00    +0.000 OA
ATOM     14  O   UNL     1       6.951   6.759  16.474  0.00  0.00    +0.000 OA
ENDBRANCH   5  12
ENDBRANCH   1   9
BRANCH   3  15
ATOM     15  C   UNL     1       1.524   9.936  18.041  0.00  0.00    +0.000 A 
ATOM     16  C   UNL     1       2.260  11.105  18.264  0.00  0.00    +0.000 A 
ATOM     17  C   UNL     1       1.623  12.299  18.608  0.00  0.00    +0.000 A 
ATOM     18  C   UNL     1       0.237  12.344  18.718  0.00  0.00    +0.000 A 
ATOM     19  C   UNL     1      -0.519  11.197  18.465  0.00  0.00    +0.000 A 
ATOM     20  C   UNL     1       0.122   9.997  18.124  0.00  0.00    +0.000 A 
BRANCH  19  21
ATOM     21  C   UNL     1      -1.946  11.281  18.562  0.00  0.00    +0.000 C 
ATOM     22  C   UNL     1      -3.135  11.449  18.661  0.00  0.00    +0.000 C 
BRANCH  22  23
ATOM     23  C   UNL     1      -4.531  11.730  18.802  0.00  0.00    +0.000 A 
ATOM     24  C   UNL     1      -4.980  12.578  19.816  0.00  0.00    +0.000 A 
ATOM     25  C   UNL     1      -6.342  12.875  19.929  0.00  0.00    +0.000 A 
ATOM     26  C   UNL     1      -7.255  12.326  19.029  0.00  0.00    +0.000 A 
ATOM     27  C   UNL     1      -6.811  11.474  18.018  0.00  0.00    +0.000 A 
ATOM     28  C   UNL     1      -5.450  11.176  17.905  0.00  0.00    +0.000 A 
ENDBRANCH  22  23
ENDBRANCH  19  21
ENDBRANCH   3  15
TORSDOF 5
ENDMDL
MODEL 2
REMARK VINA RESULT:      -8.3      0.822      1.044
REMARK  Name = 
REMARK  6 active torsions:
REMARK  status: ('A' for Active; 'I' for Inactive)
REMARK    1  A    between atoms: C_1  and  S_2
REMARK    2  A    between atoms: S_2  and  C_5
REMARK    3  A    between atoms: C_9  and  C_10
REMARK    4  A    between atoms: N_12  and  C_13
REMARK    5  A    between atoms: C_17  and  C_18
REMARK    6  A    between atoms: C_19  and  C_20
REMARK                            x       y       z     vdW  Elec       q    Type
REMARK                         _______ _______ _______ _____ _____    ______ ____
ROOT
ATOM      1  C   UNL     1       2.309   7.575  18.663  0.00  0.00    +0.000 C 
ATOM      2  O   UNL     1       2.230   7.650  19.885  0.00  0.00    +0.000 OA
ATOM      3  N   UNL     1       1.966   8.558  17.745  0.00  0.00    +0.000 N 
ATOM      4  H   UNL     1       1.933   8.294  16.768  0.00  0.00    +0.000 HD
ENDROOT
BRANCH   1   9
ATOM      5  C   UNL     1       4.478   5.000  16.965  0.00  0.00    +0.000 A 
ATOM      6  C   UNL     1       3.671   3.861  17.003  0.00  0.00    +0.000 A 
ATOM      7  C   UNL     1       2.396   3.933  17.571  0.00  0.00    +0.000 A 
ATOM      8  C   UNL     1       1.933   5.135  18.118  0.00  0.00    +0.000 A 
ATOM      9  C   UNL     1       2.753   6.271  18.098  0.00  0.00    +0.000 A 
ATOM     10  C   UNL     1       4.024   6.207  17.505  0.00  0.00    +0.000 A 
BRANCH   5  12
ATOM     11  C   UNL     1       7.176   4.745  17.780  0.00  0.00    +0.000 C 
ATOM     12  S   UNL     1       6.143   4.885  16.348  0.00  0.00    +0.000 S 
ATOM     13  O   UNL     1       6.458   6.150  15.710  0.00  0.00    +0.000 OA
ATOM     14  O   UNL     1       6.220   3.641  15.605  0.00  0.00    +0.000 OA
ENDBRANCH   5  12
ENDBRANCH   1   9
BRANCH   3  15
ATOM     15  C   UNL     1       1.464   9.849  18.054  0.00  0.00    +0.000 A 
ATOM     16  C   UNL     1       2.291  10.965  18.221  0.00  0.00    +0.000 A 
ATOM     17  C   UNL     1       1.757  12.206  18.575  0.00  0.00    +0.000 A 
ATOM     18  C   UNL     1       0.385  12.350  18.754  0.00  0.00    +0.000 A 
ATOM     19  C   UNL     1      -0.461  11.257  18.558  0.00  0.00    +0.000 A 
ATOM     20  C   UNL     1       0.077  10.009  18.207  0.00  0.00    +0.000 A 
BRANCH  19  21
ATOM     21  C   UNL     1      -1.872  11.442  18.725  0.00  0.00    +0.000 C 
ATOM     22  C   UNL     1      -3.062  11.622  18.767  0.00  0.00    +0.000 C 
BRANCH  22  23
ATOM     23  C   UNL     1      -4.473  11.863  18.737  0.00  0.00    +0.000 A 
ATOM     24  C   UNL     1      -5.144  12.261  19.896  0.00  0.00    +0.000 A 
ATOM     25  C   UNL     1      -6.516  12.527  19.853  0.00  0.00    +0.000 A 
ATOM     26  C   UNL     1      -7.217  12.397  18.655  0.00  0.00    +0.000 A 
ATOM     27  C   UNL     1      -6.551  11.996  17.497  0.00  0.00    +0.000 A 
ATOM     28  C   UNL     1      -5.180  11.728  17.539  0.00  0.00    +0.000 A 
ENDBRANCH  22  23
ENDBRANCH  19  21
ENDBRANCH   3  15
TORSDOF 5
ENDMDL
MODEL 3
REMARK VINA RESULT:      -8.1      3.615     10.352
REMARK  Name = 
REMARK  6 active torsions:
REMARK  status: ('A' for Active; 'I' for Inactive)
REMARK    1  A    between atoms: C_1  and  S_2
REMARK    2  A    between atoms: S_2  and  C_5
REMARK    3  A    between atoms: C_9  and  C_10
REMARK    4  A    between atoms: N_12  and  C_13
REMARK    5  A    between atoms: C_17  and  C_18
REMARK    6  A    between atoms: C_19  and  C_20
REMARK                            x       y       z     vdW  Elec       q    Type
REMARK                         _______ _______ _______ _____ _____    ______ ____
ROOT
ATOM      1  C   UNL     1       1.882   7.726  19.773  0.00  0.00    +0.000 C 
ATOM      2  O   UNL     1       2.218   8.009  18.628  0.00  0.00    +0.000 OA
ATOM      3  N   UNL     1       2.075   6.514  20.422  0.00  0.00    +0.000 N 
ATOM      4  H   UNL     1       1.601   6.376  21.306  0.00  0.00    +0.000 HD
ENDROOT
BRANCH   1   9
ATOM      5  C   UNL     1      -0.159  10.817  20.474  0.00  0.00    +0.000 A 
ATOM      6  C   UNL     1      -0.307  10.767  21.862  0.00  0.00    +0.000 A 
ATOM      7  C   UNL     1       0.280   9.725  22.584  0.00  0.00    +0.000 A 
ATOM      8  C   UNL     1       0.997   8.723  21.922  0.00  0.00    +0.000 A 
ATOM      9  C   UNL     1       1.127   8.764  20.528  0.00  0.00    +0.000 A 
ATOM     10  C   UNL     1       0.559   9.824  19.803  0.00  0.00    +0.000 A 
BRANCH   5  12
ATOM     11  C   UNL     1      -1.852  11.222  18.241  0.00  0.00    +0.000 C 
ATOM     12  S   UNL     1      -1.001  12.076  19.539  0.00  0.00    +0.000 S 
ATOM     13  O   UNL     1       0.015  12.906  18.917  0.00  0.00    +0.000 OA
ATOM     14  O   UNL     1      -1.989  12.657  20.429  0.00  0.00    +0.000 OA
ENDBRANCH   5  12
ENDBRANCH   1   9
BRANCH   3  15
ATOM     15  C   UNL     1       2.710   5.369  19.876  0.00  0.00    +0.000 A 
ATOM     16  C   UNL     1       2.798   4.151  20.559  0.00  0.00    +0.000 A 
ATOM     17  C   UNL     1       3.478   3.064  20.004  0.00  0.00    +0.000 A 
ATOM     18  C   UNL     1       4.068   3.178  18.749  0.00  0.00    +0.000 A 
ATOM     19  C   UNL     1       3.962   4.374  18.035  0.00  0.00    +0.000 A 
ATOM     20  C   UNL     1       3.283   5.466  18.596  0.00  0.00    +0.000 A 
BRANCH  19  21
ATOM     21  C   UNL     1       4.559   4.452  16.735  0.00  0.00    +0.000 C 
ATOM     22  C   UNL     1       5.116   4.439  15.668  0.00  0.00    +0.000 C 
BRANCH  22  23
ATOM     23  C   UNL     1       5.831   4.363  14.430  0.00  0.00    +0.000 A 
ATOM     24  C   UNL     1       7.020   5.076  14.258  0.00  0.00    +0.000 A 
ATOM     25  C   UNL     1       7.731   4.972  13.058  0.00  0.00    +0.000 A 
ATOM     26  C   UNL     1       7.257   4.156  12.032  0.00  0.00    +0.000 A 
ATOM     27  C   UNL     1       6.068   3.447  12.198  0.00  0.00    +0.000 A 
ATOM     28  C   UNL     1       5.355   3.551  13.396  0.00  0.00    +0.000 A 
ENDBRANCH  22  23
ENDBRANCH  19  21
ENDBRANCH   3  15
TORSDOF 5
ENDMDL
MODEL 4
REMARK VINA RESULT:      -8.1      2.057      2.743
REMARK  Name = 
REMARK  6 active torsions:
REMARK  status: ('A' for Active; 'I' for Inactive)
REMARK    1  A    between atoms: C_1  and  S_2
REMARK    2  A    between atoms: S_2  and  C_5
REMARK    3  A    between atoms: C_9  and  C_10
REMARK    4  A    between atoms: N_12  and  C_13
REMARK    5  A    between atoms: C_17  and  C_18
REMARK    6  A    between atoms: C_19  and  C_20
REMARK                            x       y       z     vdW  Elec       q    Type
REMARK                         _______ _______ _______ _____ _____    ______ ____
ROOT
ATOM      1  C   UNL     1       2.214   7.866  18.850  0.00  0.00    +0.000 C 
ATOM      2  O   UNL     1       1.907   7.890  20.037  0.00  0.00    +0.000 OA
ATOM      3  N   UNL     1       2.002   8.870  17.915  0.00  0.00    +0.000 N 
ATOM      4  H   UNL     1       2.163   8.643  16.941  0.00  0.00    +0.000 HD
ENDROOT
BRANCH   1   9
ATOM      5  C   UNL     1       2.834   4.181  18.351  0.00  0.00    +0.000 A 
ATOM      6  C   UNL     1       3.887   4.178  17.433  0.00  0.00    +0.000 A 
ATOM      7  C   UNL     1       4.417   5.391  16.984  0.00  0.00    +0.000 A 
ATOM      8  C   UNL     1       3.886   6.604  17.433  0.00  0.00    +0.000 A 
ATOM      9  C   UNL     1       2.816   6.604  18.337  0.00  0.00    +0.000 A 
ATOM     10  C   UNL     1       2.298   5.387  18.809  0.00  0.00    +0.000 A 
BRANCH   5  12
ATOM     11  C   UNL     1       1.887   2.740  20.595  0.00  0.00    +0.000 C 
ATOM     12  S   UNL     1       2.080   2.644  18.837  0.00  0.00    +0.000 S 
ATOM     13  O   UNL     1       3.035   1.586  18.563  0.00  0.00    +0.000 OA
ATOM     14  O   UNL     1       0.760   2.625  18.233  0.00  0.00    +0.000 OA
ENDBRANCH   5  12
ENDBRANCH   1   9
BRANCH   3  15
ATOM     15  C   UNL     1       1.391  10.126  18.165  0.00  0.00    +0.000 A 
ATOM     16  C   UNL     1       2.123  11.307  18.327  0.00  0.00    +0.000 A 
ATOM     17  C   UNL     1       1.483  12.513  18.622  0.00  0.00    +0.000 A 
ATOM     18  C   UNL     1       0.098  12.556  18.744  0.00  0.00    +0.000 A 
ATOM     19  C   UNL     1      -0.655  11.395  18.552  0.00  0.00    +0.000 A 
ATOM     20  C   UNL     1      -0.010  10.183  18.260  0.00  0.00    +0.000 A 
BRANCH  19  21
ATOM     21  C   UNL     1      -2.081  11.475  18.660  0.00  0.00    +0.000 C 
ATOM     22  C   UNL     1      -3.274  11.633  18.709  0.00  0.00    +0.000 C 
BRANCH  22  23
ATOM     23  C   UNL     1      -4.679  11.902  18.739  0.00  0.00    +0.000 A 
ATOM     24  C   UNL     1      -5.297  12.288  19.930  0.00  0.00    +0.000 A 
ATOM     25  C   UNL     1      -6.665  12.581  19.947  0.00  0.00    +0.000 A 
ATOM     26  C   UNL     1      -7.414  12.488  18.775  0.00  0.00    +0.000 A 
ATOM     27  C   UNL     1      -6.802  12.098  17.584  0.00  0.00    +0.000 A 
ATOM     28  C   UNL     1      -5.435  11.804  17.567  0.00  0.00    +0.000 A 
ENDBRANCH  22  23
ENDBRANCH  19  21
ENDBRANCH   3  15
TORSDOF 5
ENDMDL
MODEL 5
REMARK VINA RESULT:      -8.0      3.399     10.357
REMARK  Name = 
REMARK  6 active torsions:
REMARK  status: ('A' for Active; 'I' for Inactive)
REMARK    1  A    between atoms: C_1  and  S_2
REMARK    2  A    between atoms: S_2  and  C_5
REMARK    3  A    between atoms: C_9  and  C_10
REMARK    4  A    between atoms: N_12  and  C_13
REMARK    5  A    between atoms: C_17  and  C_18
REMARK    6  A    between atoms: C_19  and  C_20
REMARK                            x       y       z     vdW  Elec       q    Type
REMARK                         _______ _______ _______ _____ _____    ______ ____
ROOT
ATOM      1  C   UNL     1       2.177   7.480  19.623  0.00  0.00    +0.000 C 
ATOM      2  O   UNL     1       2.805   7.745  18.603  0.00  0.00    +0.000 OA
ATOM      3  N   UNL     1       2.079   6.242  20.243  0.00  0.00    +0.000 N 
ATOM      4  H   UNL     1       1.395   6.143  20.984  0.00  0.00    +0.000 HD
ENDROOT
BRANCH   1   9
ATOM      5  C   UNL     1       0.023  10.563  19.886  0.00  0.00    +0.000 A 
ATOM      6  C   UNL     1      -0.139  10.696  21.267  0.00  0.00    +0.000 A 
ATOM      7  C   UNL     1       0.475   9.782  22.127  0.00  0.00    +0.000 A 
ATOM      8  C   UNL     1       1.234   8.726  21.612  0.00  0.00    +0.000 A 
ATOM      9  C   UNL     1       1.378   8.583  20.225  0.00  0.00    +0.000 A 
ATOM     10  C   UNL     1       0.782   9.515  19.360  0.00  0.00    +0.000 A 
BRANCH   5  12
ATOM     11  C   UNL     1      -2.186  12.326  19.733  0.00  0.00    +0.000 C 
ATOM     12  S   UNL     1      -0.851  11.654  18.783  0.00  0.00    +0.000 S 
ATOM     13  O   UNL     1      -1.434  10.836  17.736  0.00  0.00    +0.000 OA
ATOM     14  O   UNL     1       0.066  12.730  18.459  0.00  0.00    +0.000 OA
ENDBRANCH   5  12
ENDBRANCH   1   9
BRANCH   3  15
ATOM     15  C   UNL     1       2.701   5.042  19.810  0.00  0.00    +0.000 A 
ATOM     16  C   UNL     1       2.694   3.867  20.569  0.00  0.00    +0.000 A 
ATOM     17  C   UNL     1       3.364   2.723  20.127  0.00  0.00    +0.000 A 
ATOM     18  C   UNL     1       4.038   2.737  18.911  0.00  0.00    +0.000 A 
ATOM     19  C   UNL     1       4.028   3.889  18.121  0.00  0.00    +0.000 A 
ATOM     20  C   UNL     1       3.359   5.038  18.568  0.00  0.00    +0.000 A 
BRANCH  19  21
ATOM     21  C   UNL     1       4.710   3.864  16.861  0.00  0.00    +0.000 C 
ATOM     22  C   UNL     1       5.284   3.943  15.805  0.00  0.00    +0.000 C 
BRANCH  22  23
ATOM     23  C   UNL     1       5.956   4.122  14.555  0.00  0.00    +0.000 A 
ATOM     24  C   UNL     1       5.485   3.484  13.404  0.00  0.00    +0.000 A 
ATOM     25  C   UNL     1       6.126   3.688  12.179  0.00  0.00    +0.000 A 
ATOM     26  C   UNL     1       7.236   4.529  12.101  0.00  0.00    +0.000 A 
ATOM     27  C   UNL     1       7.712   5.163  13.248  0.00  0.00    +0.000 A 
ATOM     28  C   UNL     1       7.073   4.959  14.474  0.00  0.00    +0.000 A 
ENDBRANCH  22  23
ENDBRANCH  19  21
ENDBRANCH   3  15
TORSDOF 5
ENDMDL
MODEL 6
REMARK VINA RESULT:      -8.0      4.192     10.320
REMARK  Name = 
REMARK  6 active torsions:
REMARK  status: ('A' for Active; 'I' for Inactive)
REMARK    1  A    between atoms: C_1  and  S_2
REMARK    2  A    between atoms: S_2  and  C_5
REMARK    3  A    between atoms: C_9  and  C_10
REMARK    4  A    between atoms: N_12  and  C_13
REMARK    5  A    between atoms: C_17  and  C_18
REMARK    6  A    between atoms: C_19  and  C_20
REMARK                            x       y       z     vdW  Elec       q    Type
REMARK                         _______ _______ _______ _____ _____    ______ ____
ROOT
ATOM      1  C   UNL     1       2.032   7.481  19.529  0.00  0.00    +0.000 C 
ATOM      2  O   UNL     1       2.228   7.617  18.326  0.00  0.00    +0.000 OA
ATOM      3  N   UNL     1       2.283   6.348  20.291  0.00  0.00    +0.000 N 
ATOM      4  H   UNL     1       1.919   6.330  21.236  0.00  0.00    +0.000 HD
ENDROOT
BRANCH   1   9
ATOM      5  C   UNL     1       0.547  10.893  20.138  0.00  0.00    +0.000 A 
ATOM      6  C   UNL     1       0.198  10.828  21.489  0.00  0.00    +0.000 A 
ATOM      7  C   UNL     1       0.465   9.666  22.219  0.00  0.00    +0.000 A 
ATOM      8  C   UNL     1       1.062   8.564  21.598  0.00  0.00    +0.000 A 
ATOM      9  C   UNL     1       1.392   8.624  20.238  0.00  0.00    +0.000 A 
ATOM     10  C   UNL     1       1.148   9.799  19.509  0.00  0.00    +0.000 A 
BRANCH   5  12
ATOM     11  C   UNL     1      -0.143  13.630  20.349  0.00  0.00    +0.000 C 
ATOM     12  S   UNL     1       0.105  12.324  19.178  0.00  0.00    +0.000 S 
ATOM     13  O   UNL     1      -1.177  12.051  18.556  0.00  0.00    +0.000 OA
ATOM     14  O   UNL     1       1.266  12.651  18.370  0.00  0.00    +0.000 OA
ENDBRANCH   5  12
ENDBRANCH   1   9
BRANCH   3  15
ATOM     15  C   UNL     1       2.828   5.128  19.814  0.00  0.00    +0.000 A 
ATOM     16  C   UNL     1       2.720   3.923  20.516  0.00  0.00    +0.000 A 
ATOM     17  C   UNL     1       3.315   2.755  20.034  0.00  0.00    +0.000 A 
ATOM     18  C   UNL     1       4.016   2.775  18.833  0.00  0.00    +0.000 A 
ATOM     19  C   UNL     1       4.107   3.960  18.098  0.00  0.00    +0.000 A 
ATOM     20  C   UNL     1       3.511   5.133  18.587  0.00  0.00    +0.000 A 
BRANCH  19  21
ATOM     21  C   UNL     1       4.814   3.943  16.852  0.00  0.00    +0.000 C 
ATOM     22  C   UNL     1       5.382   4.025  15.793  0.00  0.00    +0.000 C 
BRANCH  22  23
ATOM     23  C   UNL     1       6.023   4.201  14.526  0.00  0.00    +0.000 A 
ATOM     24  C   UNL     1       7.124   5.052  14.406  0.00  0.00    +0.000 A 
ATOM     25  C   UNL     1       7.768   5.195  13.173  0.00  0.00    +0.000 A 
ATOM     26  C   UNL     1       7.313   4.488  12.060  0.00  0.00    +0.000 A 
ATOM     27  C   UNL     1       6.210   3.641  12.175  0.00  0.00    +0.000 A 
ATOM     28  C   UNL     1       5.566   3.499  13.407  0.00  0.00    +0.000 A 
ENDBRANCH  22  23
ENDBRANCH  19  21
ENDBRANCH   3  15
TORSDOF 5
ENDMDL
MODEL 7
REMARK VINA RESULT:      -7.9      2.159      2.802
REMARK  Name = 
REMARK  6 active torsions:
REMARK  status: ('A' for Active; 'I' for Inactive)
REMARK    1  A    between atoms: C_1  and  S_2
REMARK    2  A    between atoms: S_2  and  C_5
REMARK    3  A    between atoms: C_9  and  C_10
REMARK    4  A    between atoms: N_12  and  C_13
REMARK    5  A    between atoms: C_17  and  C_18
REMARK    6  A    between atoms: C_19  and  C_20
REMARK                            x       y       z     vdW  Elec       q    Type
REMARK                         _______ _______ _______ _____ _____    ______ ____
ROOT
ATOM      1  C   UNL     1       2.223   8.023  18.875  0.00  0.00    +0.000 C 
ATOM      2  O   UNL     1       1.844   8.022  20.042  0.00  0.00    +0.000 OA
ATOM      3  N   UNL     1       2.090   9.056  17.957  0.00  0.00    +0.000 N 
ATOM      4  H   UNL     1       2.305   8.851  16.989  0.00  0.00    +0.000 HD
ENDROOT
BRANCH   1   9
ATOM      5  C   UNL     1       2.886   4.339  18.419  0.00  0.00    +0.000 A 
ATOM      6  C   UNL     1       3.909   4.337  17.467  0.00  0.00    +0.000 A 
ATOM      7  C   UNL     1       4.403   5.549  16.980  0.00  0.00    +0.000 A 
ATOM      8  C   UNL     1       3.868   6.762  17.425  0.00  0.00    +0.000 A 
ATOM      9  C   UNL     1       2.828   6.761  18.364  0.00  0.00    +0.000 A 
ATOM     10  C   UNL     1       2.346   5.545  18.874  0.00  0.00    +0.000 A 
BRANCH   5  12
ATOM     11  C   UNL     1       3.326   1.544  18.473  0.00  0.00    +0.000 C 
ATOM     12  S   UNL     1       2.174   2.799  18.956  0.00  0.00    +0.000 S 
ATOM     13  O   UNL     1       0.960   2.591  18.189  0.00  0.00    +0.000 OA
ATOM     14  O   UNL     1       2.134   2.850  20.406  0.00  0.00    +0.000 OA
ENDBRANCH   5  12
ENDBRANCH   1   9
BRANCH   3  15
ATOM     15  C   UNL     1       1.492  10.318  18.205  0.00  0.00    +0.000 A 
ATOM     16  C   UNL     1       2.227  11.506  18.276  0.00  0.00    +0.000 A 
ATOM     17  C   UNL     1       1.603  12.720  18.573  0.00  0.00    +0.000 A 
ATOM     18  C   UNL     1       0.229  12.763  18.788  0.00  0.00    +0.000 A 
ATOM     19  C   UNL     1      -0.529  11.595  18.686  0.00  0.00    +0.000 A 
ATOM     20  C   UNL     1       0.100  10.375  18.393  0.00  0.00    +0.000 A 
BRANCH  19  21
ATOM     21  C   UNL     1      -1.945  11.676  18.888  0.00  0.00    +0.000 C 
ATOM     22  C   UNL     1      -3.144  11.768  18.961  0.00  0.00    +0.000 C 
BRANCH  22  23
ATOM     23  C   UNL     1      -4.568  11.906  18.967  0.00  0.00    +0.000 A 
ATOM     24  C   UNL     1      -5.319  11.511  17.857  0.00  0.00    +0.000 A 
ATOM     25  C   UNL     1      -6.713  11.618  17.881  0.00  0.00    +0.000 A 
ATOM     26  C   UNL     1      -7.358  12.118  19.011  0.00  0.00    +0.000 A 
ATOM     27  C   UNL     1      -6.611  12.518  20.119  0.00  0.00    +0.000 A 
ATOM     28  C   UNL     1      -5.217  12.413  20.096  0.00  0.00    +0.000 A 
ENDBRANCH  22  23
ENDBRANCH  19  21
ENDBRANCH   3  15
TORSDOF 5
ENDMDL
MODEL 8
REMARK VINA RESULT:      -7.9      3.476      4.506
REMARK  Name = 
REMARK  6 active torsions:
REMARK  status: ('A' for Active; 'I' for Inactive)
REMARK    1  A    between atoms: C_1  and  S_2
REMARK    2  A    between atoms: S_2  and  C_5
REMARK    3  A    between atoms: C_9  and  C_10
REMARK    4  A    between atoms: N_12  and  C_13
REMARK    5  A    between atoms: C_17  and  C_18
REMARK    6  A    between atoms: C_19  and  C_20
REMARK                            x       y       z     vdW  Elec       q    Type
REMARK                         _______ _______ _______ _____ _____    ______ ____
ROOT
ATOM      1  C   UNL     1       2.420   7.366  18.373  0.00  0.00    +0.000 C 
ATOM      2  O   UNL     1       2.091   8.143  17.482  0.00  0.00    +0.000 OA
ATOM      3  N   UNL     1       2.132   7.480  19.726  0.00  0.00    +0.000 N 
ATOM      4  H   UNL     1       2.608   6.850  20.360  0.00  0.00    +0.000 HD
ENDROOT
BRANCH   1   9
ATOM      5  C   UNL     1       5.490   5.390  17.430  0.00  0.00    +0.000 A 
ATOM      6  C   UNL     1       4.968   4.110  17.226  0.00  0.00    +0.000 A 
ATOM      7  C   UNL     1       3.597   3.889  17.379  0.00  0.00    +0.000 A 
ATOM      8  C   UNL     1       2.749   4.937  17.753  0.00  0.00    +0.000 A 
ATOM      9  C   UNL     1       3.277   6.215  17.977  0.00  0.00    +0.000 A 
ATOM     10  C   UNL     1       4.651   6.445  17.800  0.00  0.00    +0.000 A 
BRANCH   5  12
ATOM     11  C   UNL     1       7.751   6.035  19.006  0.00  0.00    +0.000 C 
ATOM     12  S   UNL     1       7.248   5.652  17.351  0.00  0.00    +0.000 S 
ATOM     13  O   UNL     1       7.475   6.838  16.545  0.00  0.00    +0.000 OA
ATOM     14  O   UNL     1       7.836   4.379  16.977  0.00  0.00    +0.000 OA
ENDBRANCH   5  12
ENDBRANCH   1   9
BRANCH   3  15
ATOM     15  C   UNL     1       1.388   8.524  20.334  0.00  0.00    +0.000 A 
ATOM     16  C   UNL     1       0.617   8.336  21.486  0.00  0.00    +0.000 A 
ATOM     17  C   UNL     1      -0.140   9.380  22.022  0.00  0.00    +0.000 A 
ATOM     18  C   UNL     1      -0.124  10.633  21.419  0.00  0.00    +0.000 A 
ATOM     19  C   UNL     1       0.666  10.853  20.288  0.00  0.00    +0.000 A 
ATOM     20  C   UNL     1       1.422   9.801  19.748  0.00  0.00    +0.000 A 
BRANCH  19  21
ATOM     21  C   UNL     1       0.681  12.161  19.704  0.00  0.00    +0.000 C 
ATOM     22  C   UNL     1       0.743  13.291  19.294  0.00  0.00    +0.000 C 
BRANCH  22  23
ATOM     23  C   UNL     1       0.852  14.658  18.882  0.00  0.00    +0.000 A 
ATOM     24  C   UNL     1      -0.292  15.448  18.753  0.00  0.00    +0.000 A 
ATOM     25  C   UNL     1      -0.177  16.791  18.382  0.00  0.00    +0.000 A 
ATOM     26  C   UNL     1       1.079  17.345  18.140  0.00  0.00    +0.000 A 
ATOM     27  C   UNL     1       2.223  16.558  18.262  0.00  0.00    +0.000 A 
ATOM     28  C   UNL     1       2.110  15.215  18.632  0.00  0.00    +0.000 A 
ENDBRANCH  22  23
ENDBRANCH  19  21
ENDBRANCH   3  15
TORSDOF 5
ENDMDL
MODEL 9
REMARK VINA RESULT:      -7.9      4.010     10.662
REMARK  Name = 
REMARK  6 active torsions:
REMARK  status: ('A' for Active; 'I' for Inactive)
REMARK    1  A    between atoms: C_1  and  S_2
REMARK    2  A    between atoms: S_2  and  C_5
REMARK    3  A    between atoms: C_9  and  C_10
REMARK    4  A    between atoms: N_12  and  C_13
REMARK    5  A    between atoms: C_17  and  C_18
REMARK    6  A    between atoms: C_19  and  C_20
REMARK                            x       y       z     vdW  Elec       q    Type
REMARK                         _______ _______ _______ _____ _____    ______ ____
ROOT
ATOM      1  C   UNL     1       1.435   8.317  20.319  0.00  0.00    +0.000 C 
ATOM      2  O   UNL     1       1.489   7.845  21.450  0.00  0.00    +0.000 OA
ATOM      3  N   UNL     1       1.922   7.743  19.153  0.00  0.00    +0.000 N 
ATOM      4  H   UNL     1       1.949   8.323  18.323  0.00  0.00    +0.000 HD
ENDROOT
BRANCH   1   9
ATOM      5  C   UNL     1      -0.479  11.451  21.175  0.00  0.00    +0.000 A 
ATOM      6  C   UNL     1      -0.301  12.230  20.029  0.00  0.00    +0.000 A 
ATOM      7  C   UNL     1       0.435  11.724  18.955  0.00  0.00    +0.000 A 
ATOM      8  C   UNL     1       1.010  10.451  19.029  0.00  0.00    +0.000 A 
ATOM      9  C   UNL     1       0.847   9.679  20.187  0.00  0.00    +0.000 A 
ATOM     10  C   UNL     1       0.086  10.176  21.258  0.00  0.00    +0.000 A 
BRANCH   5  12
ATOM     11  C   UNL     1      -2.751  12.952  21.946  0.00  0.00    +0.000 C 
ATOM     12  S   UNL     1      -1.317  12.134  22.588  0.00  0.00    +0.000 S 
ATOM     13  O   UNL     1      -0.453  13.155  23.153  0.00  0.00    +0.000 OA
ATOM     14  O   UNL     1      -1.755  11.007  23.390  0.00  0.00    +0.000 OA
ENDBRANCH   5  12
ENDBRANCH   1   9
BRANCH   3  15
ATOM     15  C   UNL     1       2.573   6.486  19.052  0.00  0.00    +0.000 A 
ATOM     16  C   UNL     1       2.546   5.533  20.075  0.00  0.00    +0.000 A 
ATOM     17  C   UNL     1       3.243   4.329  19.952  0.00  0.00    +0.000 A 
ATOM     18  C   UNL     1       3.966   4.056  18.795  0.00  0.00    +0.000 A 
ATOM     19  C   UNL     1       3.977   4.980  17.747  0.00  0.00    +0.000 A 
ATOM     20  C   UNL     1       3.280   6.191  17.874  0.00  0.00    +0.000 A 
BRANCH  19  21
ATOM     21  C   UNL     1       4.710   4.660  16.559  0.00  0.00    +0.000 C 
ATOM     22  C   UNL     1       5.317   4.487  15.532  0.00  0.00    +0.000 C 
BRANCH  22  23
ATOM     23  C   UNL     1       6.017   4.362  14.291  0.00  0.00    +0.000 A 
ATOM     24  C   UNL     1       5.537   3.511  13.293  0.00  0.00    +0.000 A 
ATOM     25  C   UNL     1       6.208   3.417  12.070  0.00  0.00    +0.000 A 
ATOM     26  C   UNL     1       7.357   4.174  11.842  0.00  0.00    +0.000 A 
ATOM     27  C   UNL     1       7.842   5.021  12.837  0.00  0.00    +0.000 A 
ATOM     28  C   UNL     1       7.173   5.114  14.061  0.00  0.00    +0.000 A 
ENDBRANCH  22  23
ENDBRANCH  19  21
ENDBRANCH   3  15
TORSDOF 5
ENDMDL
