MODEL 1
REMARK VINA RESULT:      -8.6      0.000      0.000
REMARK  Name = 
REMARK  5 active torsions:
REMARK  status: ('A' for Active; 'I' for Inactive)
REMARK    1  A    between atoms: C_2  and  C_3
REMARK    2  A    between atoms: N_5  and  C_6
REMARK    3  A    between atoms: C_6  and  C_7
REMARK    4  A    between atoms: C_19  and  C_20
REMARK    5  A    between atoms: C_23  and  C_24
REMARK                            x       y       z     vdW  Elec       q    Type
REMARK                         _______ _______ _______ _____ _____    ______ ____
ROOT
ATOM      1  O   UNL     1      -0.540  10.595  23.458  0.00  0.00    +0.000 OA
ATOM      2  C   UNL     1      -0.632  11.385  22.517  0.00  0.00    +0.000 C 
ATOM      3  N   UNL     1       0.140  11.235  21.361  0.00  0.00    +0.000 N 
ATOM      4  C   UNL     1       0.284  12.211  20.280  0.00  0.00    +0.000 C 
ATOM      5  C   UNL     1      -0.063  11.561  18.945  0.00  0.00    +0.000 C 
ATOM      6  C   UNL     1       0.800  10.321  18.707  0.00  0.00    +0.000 C 
ATOM      7  C   UNL     1       0.721   9.335  19.891  0.00  0.00    +0.000 C 
ATOM      8  C   UNL     1       0.999  10.055  21.219  0.00  0.00    +0.000 C 
ENDROOT
BRANCH   7   9
ATOM      9  C   UNL     1       1.652   8.187  19.699  0.00  0.00    +0.000 A 
ATOM     10  N   UNL     1       1.872   7.266  20.643  0.00  0.00    +0.000 NA
ATOM     11  N   UNL     1       2.703   6.428  20.006  0.00  0.00    +0.000 N 
ATOM     12  C   UNL     1       2.938   6.818  18.715  0.00  0.00    +0.000 A 
ATOM     13  N   UNL     1       2.313   7.964  18.518  0.00  0.00    +0.000 NA
ATOM     14  H   UNL     1       3.065   5.617  20.497  0.00  0.00    +0.000 HD
BRANCH  12  15
ATOM     15  C   UNL     1       3.738   6.069  17.752  0.00  0.00    +0.000 A 
ATOM     16  C   UNL     1       3.641   4.674  17.644  0.00  0.00    +0.000 A 
ATOM     17  C   UNL     1       4.386   3.980  16.689  0.00  0.00    +0.000 A 
ATOM     18  C   UNL     1       5.241   4.673  15.830  0.00  0.00    +0.000 A 
ATOM     19  C   UNL     1       5.347   6.059  15.928  0.00  0.00    +0.000 A 
ATOM     20  C   UNL     1       4.597   6.753  16.880  0.00  0.00    +0.000 A 
ENDBRANCH  12  15
ENDBRANCH   7   9
BRANCH   2  21
ATOM     21  C   UNL     1      -1.554  12.514  22.613  0.00  0.00    +0.000 A 
ATOM     22  C   UNL     1      -2.745  12.660  21.924  0.00  0.00    +0.000 A 
ATOM     23  N   UNL     1      -3.244  13.847  22.365  0.00  0.00    +0.000 N 
ATOM     24  N   UNL     1      -2.385  14.455  23.205  0.00  0.00    +0.000 NA
ATOM     25  N   UNL     1      -1.342  13.652  23.355  0.00  0.00    +0.000 NA
BRANCH  23  26
ATOM     26  C   UNL     1      -4.489  14.495  21.992  0.00  0.00    +0.000 C 
BRANCH  26  27
ATOM     27  C   UNL     1      -5.696  13.668  22.367  0.00  0.00    +0.000 A 
ATOM     28  C   UNL     1      -6.399  12.933  21.398  0.00  0.00    +0.000 A 
ATOM     29  C   UNL     1      -7.504  12.159  21.754  0.00  0.00    +0.000 A 
ATOM     30  C   UNL     1      -7.915  12.098  23.083  0.00  0.00    +0.000 A 
ATOM     31  C   UNL     1      -7.218  12.809  24.058  0.00  0.00    +0.000 A 
ATOM     32  C   UNL     1      -6.114  13.587  23.704  0.00  0.00    +0.000 A 
ENDBRANCH  26  27
ENDBRANCH  23  26
ENDBRANCH   2  21
TORSDOF 5
ENDMDL
MODEL 2
REMARK VINA RESULT:      -8.0      2.842      5.245
REMARK  Name = 
REMARK  5 active torsions:
REMARK  status: ('A' for Active; 'I' for Inactive)
REMARK    1  A    between atoms: C_2  and  C_3
REMARK    2  A    between atoms: N_5  and  C_6
REMARK    3  A    between atoms: C_6  and  C_7
REMARK    4  A    between atoms: C_19  and  C_20
REMARK    5  A    between atoms: C_23  and  C_24
REMARK                            x       y       z     vdW  Elec       q    Type
REMARK                         _______ _______ _______ _____ _____    ______ ____
ROOT
ATOM      1  O   UNL     1       2.290   9.474  17.635  0.00  0.00    +0.000 OA
ATOM      2  C   UNL     1       1.835   8.792  18.554  0.00  0.00    +0.000 C 
ATOM      3  N   UNL     1       2.161   7.439  18.689  0.00  0.00    +0.000 N 
ATOM      4  C   UNL     1       1.527   6.478  19.593  0.00  0.00    +0.000 C 
ATOM      5  C   UNL     1       2.587   5.805  20.459  0.00  0.00    +0.000 C 
ATOM      6  C   UNL     1       3.656   5.143  19.588  0.00  0.00    +0.000 C 
ATOM      7  C   UNL     1       4.257   6.134  18.570  0.00  0.00    +0.000 C 
ATOM      8  C   UNL     1       3.148   6.845  17.781  0.00  0.00    +0.000 C 
ENDROOT
BRANCH   7   9
ATOM      9  C   UNL     1       5.214   5.452  17.654  0.00  0.00    +0.000 A 
ATOM     10  N   UNL     1       6.119   4.564  18.082  0.00  0.00    +0.000 NA
ATOM     11  N   UNL     1       6.686   4.188  16.926  0.00  0.00    +0.000 N 
ATOM     12  C   UNL     1       6.112   4.804  15.846  0.00  0.00    +0.000 A 
ATOM     13  N   UNL     1       5.204   5.649  16.297  0.00  0.00    +0.000 NA
ATOM     14  H   UNL     1       7.445   3.514  16.939  0.00  0.00    +0.000 HD
BRANCH  12  15
ATOM     15  C   UNL     1       6.463   4.541  14.454  0.00  0.00    +0.000 A 
ATOM     16  C   UNL     1       5.746   3.618  13.679  0.00  0.00    +0.000 A 
ATOM     17  C   UNL     1       6.073   3.410  12.338  0.00  0.00    +0.000 A 
ATOM     18  C   UNL     1       7.122   4.121  11.755  0.00  0.00    +0.000 A 
ATOM     19  C   UNL     1       7.843   5.039  12.515  0.00  0.00    +0.000 A 
ATOM     20  C   UNL     1       7.511   5.252  13.856  0.00  0.00    +0.000 A 
ENDBRANCH  12  15
ENDBRANCH   7   9
BRANCH   2  21
ATOM     21  C   UNL     1       0.922   9.400  19.519  0.00  0.00    +0.000 A 
ATOM     22  C   UNL     1       1.068   9.407  20.894  0.00  0.00    +0.000 A 
ATOM     23  N   UNL     1      -0.010  10.107  21.343  0.00  0.00    +0.000 N 
ATOM     24  N   UNL     1      -0.830  10.441  20.329  0.00  0.00    +0.000 NA
ATOM     25  N   UNL     1      -0.275  10.004  19.209  0.00  0.00    +0.000 NA
BRANCH  23  26
ATOM     26  C   UNL     1      -0.359  10.443  22.712  0.00  0.00    +0.000 C 
BRANCH  26  27
ATOM     27  C   UNL     1      -1.121  11.745  22.802  0.00  0.00    +0.000 A 
ATOM     28  C   UNL     1      -0.536  12.955  22.393  0.00  0.00    +0.000 A 
ATOM     29  C   UNL     1      -1.251  14.152  22.465  0.00  0.00    +0.000 A 
ATOM     30  C   UNL     1      -2.562  14.154  22.933  0.00  0.00    +0.000 A 
ATOM     31  C   UNL     1      -3.161  12.959  23.328  0.00  0.00    +0.000 A 
ATOM     32  C   UNL     1      -2.447  11.761  23.261  0.00  0.00    +0.000 A 
ENDBRANCH  26  27
ENDBRANCH  23  26
ENDBRANCH   2  21
TORSDOF 5
ENDMDL
MODEL 3
REMARK VINA RESULT:      -7.9      2.831      5.299
REMARK  Name = 
REMARK  5 active torsions:
REMARK  status: ('A' for Active; 'I' for Inactive)
REMARK    1  A    between atoms: C_2  and  C_3
REMARK    2  A    between atoms: N_5  and  C_6
REMARK    3  A    between atoms: C_6  and  C_7
REMARK    4  A    between atoms: C_19  and  C_20
REMARK    5  A    between atoms: C_23  and  C_24
REMARK                            x       y       z     vdW  Elec       q    Type
REMARK                         _______ _______ _______ _____ _____    ______ ____
ROOT
ATOM      1  O   UNL     1       2.259   9.495  17.633  0.00  0.00    +0.000 OA
ATOM      2  C   UNL     1       1.814   8.812  18.555  0.00  0.00    +0.000 C 
ATOM      3  N   UNL     1       2.144   7.459  18.686  0.00  0.00    +0.000 N 
ATOM      4  C   UNL     1       1.520   6.496  19.594  0.00  0.00    +0.000 C 
ATOM      5  C   UNL     1       2.588   5.825  20.451  0.00  0.00    +0.000 C 
ATOM      6  C   UNL     1       3.652   5.167  19.572  0.00  0.00    +0.000 C 
ATOM      7  C   UNL     1       4.242   6.160  18.550  0.00  0.00    +0.000 C 
ATOM      8  C   UNL     1       3.125   6.869  17.770  0.00  0.00    +0.000 C 
ENDROOT
BRANCH   7   9
ATOM      9  C   UNL     1       5.194   5.481  17.626  0.00  0.00    +0.000 A 
ATOM     10  N   UNL     1       6.094   4.584  18.043  0.00  0.00    +0.000 NA
ATOM     11  N   UNL     1       6.657   4.216  16.882  0.00  0.00    +0.000 N 
ATOM     12  C   UNL     1       6.085   4.846  15.810  0.00  0.00    +0.000 A 
ATOM     13  N   UNL     1       5.183   5.692  16.270  0.00  0.00    +0.000 NA
ATOM     14  H   UNL     1       7.412   3.537  16.888  0.00  0.00    +0.000 HD
BRANCH  12  15
ATOM     15  C   UNL     1       6.432   4.595  14.415  0.00  0.00    +0.000 A 
ATOM     16  C   UNL     1       7.496   5.263  13.792  0.00  0.00    +0.000 A 
ATOM     17  C   UNL     1       7.837   4.980  12.468  0.00  0.00    +0.000 A 
ATOM     18  C   UNL     1       7.116   4.026  11.749  0.00  0.00    +0.000 A 
ATOM     19  C   UNL     1       6.056   3.356  12.356  0.00  0.00    +0.000 A 
ATOM     20  C   UNL     1       5.719   3.635  13.683  0.00  0.00    +0.000 A 
ENDBRANCH  12  15
ENDBRANCH   7   9
BRANCH   2  21
ATOM     21  C   UNL     1       0.906   9.417  19.528  0.00  0.00    +0.000 A 
ATOM     22  C   UNL     1       1.081   9.453  20.899  0.00  0.00    +0.000 A 
ATOM     23  N   UNL     1      -0.004  10.136  21.358  0.00  0.00    +0.000 N 
ATOM     24  N   UNL     1      -0.853  10.432  20.356  0.00  0.00    +0.000 NA
ATOM     25  N   UNL     1      -0.310   9.987  19.232  0.00  0.00    +0.000 NA
BRANCH  23  26
ATOM     26  C   UNL     1      -0.332  10.490  22.727  0.00  0.00    +0.000 C 
BRANCH  26  27
ATOM     27  C   UNL     1      -1.135  11.768  22.809  0.00  0.00    +0.000 A 
ATOM     28  C   UNL     1      -2.461  11.760  23.273  0.00  0.00    +0.000 A 
ATOM     29  C   UNL     1      -3.191  12.946  23.360  0.00  0.00    +0.000 A 
ATOM     30  C   UNL     1      -2.604  14.156  22.999  0.00  0.00    +0.000 A 
ATOM     31  C   UNL     1      -1.284  14.181  22.553  0.00  0.00    +0.000 A 
ATOM     32  C   UNL     1      -0.552  12.995  22.460  0.00  0.00    +0.000 A 
ENDBRANCH  26  27
ENDBRANCH  23  26
ENDBRANCH   2  21
TORSDOF 5
ENDMDL
MODEL 4
REMARK VINA RESULT:      -7.9      1.470      1.987
REMARK  Name = 
REMARK  5 active torsions:
REMARK  status: ('A' for Active; 'I' for Inactive)
REMARK    1  A    between atoms: C_2  and  C_3
REMARK    2  A    between atoms: N_5  and  C_6
REMARK    3  A    between atoms: C_6  and  C_7
REMARK    4  A    between atoms: C_19  and  C_20
REMARK    5  A    between atoms: C_23  and  C_24
REMARK                            x       y       z     vdW  Elec       q    Type
REMARK                         _______ _______ _______ _____ _____    ______ ____
ROOT
ATOM      1  O   UNL     1      -0.577   9.197  22.320  0.00  0.00    +0.000 OA
ATOM      2  C   UNL     1      -0.319  10.273  21.780  0.00  0.00    +0.000 C 
ATOM      3  N   UNL     1       0.703  10.386  20.831  0.00  0.00    +0.000 N 
ATOM      4  C   UNL     1       1.247  11.630  20.285  0.00  0.00    +0.000 C 
ATOM      5  C   UNL     1       1.180  11.600  18.761  0.00  0.00    +0.000 C 
ATOM      6  C   UNL     1       1.909  10.372  18.212  0.00  0.00    +0.000 C 
ATOM      7  C   UNL     1       1.399   9.069  18.859  0.00  0.00    +0.000 C 
ATOM      8  C   UNL     1       1.409   9.179  20.391  0.00  0.00    +0.000 C 
ENDROOT
BRANCH   7   9
ATOM      9  C   UNL     1       2.192   7.893  18.400  0.00  0.00    +0.000 A 
ATOM     10  N   UNL     1       3.298   8.010  17.658  0.00  0.00    +0.000 NA
ATOM     11  N   UNL     1       3.682   6.729  17.554  0.00  0.00    +0.000 N 
ATOM     12  C   UNL     1       2.853   5.885  18.242  0.00  0.00    +0.000 A 
ATOM     13  N   UNL     1       1.869   6.606  18.748  0.00  0.00    +0.000 NA
ATOM     14  H   UNL     1       4.510   6.500  17.012  0.00  0.00    +0.000 HD
BRANCH  12  15
ATOM     15  C   UNL     1       3.056   4.446  18.378  0.00  0.00    +0.000 A 
ATOM     16  C   UNL     1       2.395   3.530  17.548  0.00  0.00    +0.000 A 
ATOM     17  C   UNL     1       2.633   2.160  17.668  0.00  0.00    +0.000 A 
ATOM     18  C   UNL     1       3.534   1.688  18.623  0.00  0.00    +0.000 A 
ATOM     19  C   UNL     1       4.196   2.588  19.455  0.00  0.00    +0.000 A 
ATOM     20  C   UNL     1       3.963   3.959  19.330  0.00  0.00    +0.000 A 
ENDBRANCH  12  15
ENDBRANCH   7   9
BRANCH   2  21
ATOM     21  C   UNL     1      -1.081  11.464  22.145  0.00  0.00    +0.000 A 
ATOM     22  C   UNL     1      -2.164  11.987  21.462  0.00  0.00    +0.000 A 
ATOM     23  N   UNL     1      -2.537  13.068  22.199  0.00  0.00    +0.000 N 
ATOM     24  N   UNL     1      -1.693  13.271  23.228  0.00  0.00    +0.000 NA
ATOM     25  N   UNL     1      -0.791  12.300  23.198  0.00  0.00    +0.000 NA
BRANCH  23  26
ATOM     26  C   UNL     1      -3.636  13.987  21.959  0.00  0.00    +0.000 C 
BRANCH  26  27
ATOM     27  C   UNL     1      -4.970  13.394  22.349  0.00  0.00    +0.000 A 
ATOM     28  C   UNL     1      -5.842  12.875  21.379  0.00  0.00    +0.000 A 
ATOM     29  C   UNL     1      -7.066  12.315  21.747  0.00  0.00    +0.000 A 
ATOM     30  C   UNL     1      -7.429  12.253  23.090  0.00  0.00    +0.000 A 
ATOM     31  C   UNL     1      -6.566  12.749  24.066  0.00  0.00    +0.000 A 
ATOM     32  C   UNL     1      -5.343  13.314  23.699  0.00  0.00    +0.000 A 
ENDBRANCH  26  27
ENDBRANCH  23  26
ENDBRANCH   2  21
TORSDOF 5
ENDMDL
MODEL 5
REMARK VINA RESULT:      -7.8      3.015      5.411
REMARK  Name = 
REMARK  5 active torsions:
REMARK  status: ('A' for Active; 'I' for Inactive)
REMARK    1  A    between atoms: C_2  and  C_3
REMARK    2  A    between atoms: N_5  and  C_6
REMARK    3  A    between atoms: C_6  and  C_7
REMARK    4  A    between atoms: C_19  and  C_20
REMARK    5  A    between atoms: C_23  and  C_24
REMARK                            x       y       z     vdW  Elec       q    Type
REMARK                         _______ _______ _______ _____ _____    ______ ____
ROOT
ATOM      1  O   UNL     1       2.206   8.881  18.641  0.00  0.00    +0.000 OA
ATOM      2  C   UNL     1       1.826   8.196  19.592  0.00  0.00    +0.000 C 
ATOM      3  N   UNL     1       1.941   6.802  19.579  0.00  0.00    +0.000 N 
ATOM      4  C   UNL     1       1.339   5.872  20.535  0.00  0.00    +0.000 C 
ATOM      5  C   UNL     1       2.416   4.970  21.129  0.00  0.00    +0.000 C 
ATOM      6  C   UNL     1       3.175   4.234  20.024  0.00  0.00    +0.000 C 
ATOM      7  C   UNL     1       3.729   5.210  18.965  0.00  0.00    +0.000 C 
ATOM      8  C   UNL     1       2.624   6.149  18.458  0.00  0.00    +0.000 C 
ENDROOT
BRANCH   7   9
ATOM      9  C   UNL     1       4.368   4.475  17.837  0.00  0.00    +0.000 A 
ATOM     10  N   UNL     1       4.324   3.144  17.722  0.00  0.00    +0.000 NA
ATOM     11  N   UNL     1       4.959   2.958  16.555  0.00  0.00    +0.000 N 
ATOM     12  C   UNL     1       5.333   4.143  15.979  0.00  0.00    +0.000 A 
ATOM     13  N   UNL     1       5.006   5.118  16.807  0.00  0.00    +0.000 NA
ATOM     14  H   UNL     1       5.098   2.015  16.208  0.00  0.00    +0.000 HD
BRANCH  12  15
ATOM     15  C   UNL     1       5.973   4.267  14.673  0.00  0.00    +0.000 A 
ATOM     16  C   UNL     1       7.103   5.077  14.484  0.00  0.00    +0.000 A 
ATOM     17  C   UNL     1       7.723   5.152  13.235  0.00  0.00    +0.000 A 
ATOM     18  C   UNL     1       7.220   4.420  12.160  0.00  0.00    +0.000 A 
ATOM     19  C   UNL     1       6.097   3.614  12.334  0.00  0.00    +0.000 A 
ATOM     20  C   UNL     1       5.480   3.534  13.585  0.00  0.00    +0.000 A 
ENDBRANCH  12  15
ENDBRANCH   7   9
BRANCH   2  21
ATOM     21  C   UNL     1       1.227   8.847  20.755  0.00  0.00    +0.000 A 
ATOM     22  C   UNL     1       0.065   9.597  20.766  0.00  0.00    +0.000 A 
ATOM     23  N   UNL     1      -0.087   9.962  22.068  0.00  0.00    +0.000 N 
ATOM     24  N   UNL     1       0.954   9.549  22.815  0.00  0.00    +0.000 NA
ATOM     25  N   UNL     1       1.770   8.874  22.018  0.00  0.00    +0.000 NA
BRANCH  23  26
ATOM     26  C   UNL     1      -1.153  10.747  22.665  0.00  0.00    +0.000 C 
BRANCH  26  27
ATOM     27  C   UNL     1      -1.298  12.102  22.012  0.00  0.00    +0.000 A 
ATOM     28  C   UNL     1      -0.211  12.987  21.935  0.00  0.00    +0.000 A 
ATOM     29  C   UNL     1      -0.348  14.231  21.316  0.00  0.00    +0.000 A 
ATOM     30  C   UNL     1      -1.567  14.601  20.755  0.00  0.00    +0.000 A 
ATOM     31  C   UNL     1      -2.650  13.726  20.810  0.00  0.00    +0.000 A 
ATOM     32  C   UNL     1      -2.518  12.483  21.432  0.00  0.00    +0.000 A 
ENDBRANCH  26  27
ENDBRANCH  23  26
ENDBRANCH   2  21
TORSDOF 5
ENDMDL
MODEL 6
REMARK VINA RESULT:      -7.7      2.630     10.482
REMARK  Name = 
REMARK  5 active torsions:
REMARK  status: ('A' for Active; 'I' for Inactive)
REMARK    1  A    between atoms: C_2  and  C_3
REMARK    2  A    between atoms: N_5  and  C_6
REMARK    3  A    between atoms: C_6  and  C_7
REMARK    4  A    between atoms: C_19  and  C_20
REMARK    5  A    between atoms: C_23  and  C_24
REMARK                            x       y       z     vdW  Elec       q    Type
REMARK                         _______ _______ _______ _____ _____    ______ ____
ROOT
ATOM      1  O   UNL     1      -0.044  11.376  18.580  0.00  0.00    +0.000 OA
ATOM      2  C   UNL     1       0.520  10.590  19.342  0.00  0.00    +0.000 C 
ATOM      3  N   UNL     1       0.411  10.716  20.731  0.00  0.00    +0.000 N 
ATOM      4  C   UNL     1       1.196   9.993  21.733  0.00  0.00    +0.000 C 
ATOM      5  C   UNL     1       0.263   9.288  22.712  0.00  0.00    +0.000 C 
ATOM      6  C   UNL     1      -0.698  10.288  23.358  0.00  0.00    +0.000 C 
ATOM      7  C   UNL     1      -1.456  11.115  22.300  0.00  0.00    +0.000 C 
ATOM      8  C   UNL     1      -0.479  11.737  21.291  0.00  0.00    +0.000 C 
ENDROOT
BRANCH   7   9
ATOM      9  C   UNL     1      -2.304  12.161  22.940  0.00  0.00    +0.000 A 
ATOM     10  N   UNL     1      -3.406  11.872  23.640  0.00  0.00    +0.000 NA
ATOM     11  N   UNL     1      -3.780  13.090  24.059  0.00  0.00    +0.000 N 
ATOM     12  C   UNL     1      -2.907  14.064  23.653  0.00  0.00    +0.000 A 
ATOM     13  N   UNL     1      -1.986  13.495  22.897  0.00  0.00    +0.000 NA
ATOM     14  H   UNL     1      -4.622  13.189  24.616  0.00  0.00    +0.000 HD
BRANCH  12  15
ATOM     15  C   UNL     1      -3.006  15.474  24.017  0.00  0.00    +0.000 A 
ATOM     16  C   UNL     1      -2.037  16.405  23.615  0.00  0.00    +0.000 A 
ATOM     17  C   UNL     1      -2.170  17.756  23.940  0.00  0.00    +0.000 A 
ATOM     18  C   UNL     1      -3.272  18.193  24.675  0.00  0.00    +0.000 A 
ATOM     19  C   UNL     1      -4.240  17.278  25.082  0.00  0.00    +0.000 A 
ATOM     20  C   UNL     1      -4.110  15.927  24.751  0.00  0.00    +0.000 A 
ENDBRANCH  12  15
ENDBRANCH   7   9
BRANCH   2  21
ATOM     21  C   UNL     1       1.337   9.512  18.790  0.00  0.00    +0.000 A 
ATOM     22  C   UNL     1       1.895   8.462  19.498  0.00  0.00    +0.000 A 
ATOM     23  N   UNL     1       2.533   7.721  18.551  0.00  0.00    +0.000 N 
ATOM     24  N   UNL     1       2.462   8.309  17.342  0.00  0.00    +0.000 NA
ATOM     25  N   UNL     1       1.741   9.412  17.479  0.00  0.00    +0.000 NA
BRANCH  23  26
ATOM     26  C   UNL     1       3.278   6.487  18.725  0.00  0.00    +0.000 C 
BRANCH  26  27
ATOM     27  C   UNL     1       2.376   5.315  19.034  0.00  0.00    +0.000 A 
ATOM     28  C   UNL     1       1.934   4.453  18.017  0.00  0.00    +0.000 A 
ATOM     29  C   UNL     1       1.114   3.364  18.312  0.00  0.00    +0.000 A 
ATOM     30  C   UNL     1       0.734   3.113  19.628  0.00  0.00    +0.000 A 
ATOM     31  C   UNL     1       1.176   3.950  20.650  0.00  0.00    +0.000 A 
ATOM     32  C   UNL     1       1.995   5.043  20.357  0.00  0.00    +0.000 A 
ENDBRANCH  26  27
ENDBRANCH  23  26
ENDBRANCH   2  21
TORSDOF 5
ENDMDL
MODEL 7
REMARK VINA RESULT:      -7.7      1.918     10.767
REMARK  Name = 
REMARK  5 active torsions:
REMARK  status: ('A' for Active; 'I' for Inactive)
REMARK    1  A    between atoms: C_2  and  C_3
REMARK    2  A    between atoms: N_5  and  C_6
REMARK    3  A    between atoms: C_6  and  C_7
REMARK    4  A    between atoms: C_19  and  C_20
REMARK    5  A    between atoms: C_23  and  C_24
REMARK                            x       y       z     vdW  Elec       q    Type
REMARK                         _______ _______ _______ _____ _____    ______ ____
ROOT
ATOM      1  O   UNL     1       0.271  10.868  18.570  0.00  0.00    +0.000 OA
ATOM      2  C   UNL     1       0.723  10.139  19.453  0.00  0.00    +0.000 C 
ATOM      3  N   UNL     1       0.525  10.426  20.808  0.00  0.00    +0.000 N 
ATOM      4  C   UNL     1       1.185   9.772  21.939  0.00  0.00    +0.000 C 
ATOM      5  C   UNL     1       0.137   9.242  22.913  0.00  0.00    +0.000 C 
ATOM      6  C   UNL     1      -0.793  10.367  23.371  0.00  0.00    +0.000 C 
ATOM      7  C   UNL     1      -1.413  11.117  22.175  0.00  0.00    +0.000 C 
ATOM      8  C   UNL     1      -0.326  11.558  21.184  0.00  0.00    +0.000 C 
ENDROOT
BRANCH   7   9
ATOM      9  C   UNL     1      -2.227  12.279  22.631  0.00  0.00    +0.000 A 
ATOM     10  N   UNL     1      -1.708  13.495  22.830  0.00  0.00    +0.000 NA
ATOM     11  N   UNL     1      -2.801  14.199  23.161  0.00  0.00    +0.000 N 
ATOM     12  C   UNL     1      -3.936  13.435  23.123  0.00  0.00    +0.000 A 
ATOM     13  N   UNL     1      -3.582  12.196  22.834  0.00  0.00    +0.000 NA
ATOM     14  H   UNL     1      -2.708  15.183  23.393  0.00  0.00    +0.000 HD
BRANCH  12  15
ATOM     15  C   UNL     1      -5.285  13.937  23.359  0.00  0.00    +0.000 A 
ATOM     16  C   UNL     1      -5.661  15.236  22.987  0.00  0.00    +0.000 A 
ATOM     17  C   UNL     1      -6.968  15.684  23.185  0.00  0.00    +0.000 A 
ATOM     18  C   UNL     1      -7.916  14.839  23.761  0.00  0.00    +0.000 A 
ATOM     19  C   UNL     1      -7.556  13.547  24.137  0.00  0.00    +0.000 A 
ATOM     20  C   UNL     1      -6.249  13.096  23.933  0.00  0.00    +0.000 A 
ENDBRANCH  12  15
ENDBRANCH   7   9
BRANCH   2  21
ATOM     21  C   UNL     1       1.497   8.955  19.085  0.00  0.00    +0.000 A 
ATOM     22  C   UNL     1       2.034   8.024  19.956  0.00  0.00    +0.000 A 
ATOM     23  N   UNL     1       2.634   7.112  19.143  0.00  0.00    +0.000 N 
ATOM     24  N   UNL     1       2.561   7.487  17.852  0.00  0.00    +0.000 NA
ATOM     25  N   UNL     1       1.876   8.620  17.806  0.00  0.00    +0.000 NA
BRANCH  23  26
ATOM     26  C   UNL     1       3.343   5.901  19.517  0.00  0.00    +0.000 C 
BRANCH  26  27
ATOM     27  C   UNL     1       2.534   4.656  19.235  0.00  0.00    +0.000 A 
ATOM     28  C   UNL     1       1.435   4.311  20.039  0.00  0.00    +0.000 A 
ATOM     29  C   UNL     1       0.682   3.169  19.764  0.00  0.00    +0.000 A 
ATOM     30  C   UNL     1       1.009   2.363  18.676  0.00  0.00    +0.000 A 
ATOM     31  C   UNL     1       2.087   2.701  17.861  0.00  0.00    +0.000 A 
ATOM     32  C   UNL     1       2.844   3.842  18.136  0.00  0.00    +0.000 A 
ENDBRANCH  26  27
ENDBRANCH  23  26
ENDBRANCH   2  21
TORSDOF 5
ENDMDL
MODEL 8
REMARK VINA RESULT:      -7.7      3.742     10.905
REMARK  Name = 
REMARK  5 active torsions:
REMARK  status: ('A' for Active; 'I' for Inactive)
REMARK    1  A    between atoms: C_2  and  C_3
REMARK    2  A    between atoms: N_5  and  C_6
REMARK    3  A    between atoms: C_6  and  C_7
REMARK    4  A    between atoms: C_19  and  C_20
REMARK    5  A    between atoms: C_23  and  C_24
REMARK                            x       y       z     vdW  Elec       q    Type
REMARK                         _______ _______ _______ _____ _____    ______ ____
ROOT
ATOM      1  O   UNL     1       2.201   9.081  17.477  0.00  0.00    +0.000 OA
ATOM      2  C   UNL     1       1.991   8.604  18.593  0.00  0.00    +0.000 C 
ATOM      3  N   UNL     1       1.473   9.383  19.633  0.00  0.00    +0.000 N 
ATOM      4  C   UNL     1       1.385   9.002  21.043  0.00  0.00    +0.000 C 
ATOM      5  C   UNL     1      -0.052   9.158  21.532  0.00  0.00    +0.000 C 
ATOM      6  C   UNL     1      -0.551  10.584  21.299  0.00  0.00    +0.000 C 
ATOM      7  C   UNL     1      -0.368  11.019  19.830  0.00  0.00    +0.000 C 
ATOM      8  C   UNL     1       1.072  10.767  19.361  0.00  0.00    +0.000 C 
ENDROOT
BRANCH   7   9
ATOM      9  C   UNL     1      -0.753  12.446  19.639  0.00  0.00    +0.000 A 
ATOM     10  N   UNL     1      -1.933  12.938  20.032  0.00  0.00    +0.000 NA
ATOM     11  N   UNL     1      -1.796  14.235  19.717  0.00  0.00    +0.000 N 
ATOM     12  C   UNL     1      -0.563  14.510  19.191  0.00  0.00    +0.000 A 
ATOM     13  N   UNL     1       0.098  13.371  19.089  0.00  0.00    +0.000 NA
ATOM     14  H   UNL     1      -2.567  14.873  19.890  0.00  0.00    +0.000 HD
BRANCH  12  15
ATOM     15  C   UNL     1      -0.092  15.842  18.825  0.00  0.00    +0.000 A 
ATOM     16  C   UNL     1       1.262  16.095  18.563  0.00  0.00    +0.000 A 
ATOM     17  C   UNL     1       1.686  17.368  18.175  0.00  0.00    +0.000 A 
ATOM     18  C   UNL     1       0.761  18.404  18.048  0.00  0.00    +0.000 A 
ATOM     19  C   UNL     1      -0.587  18.165  18.306  0.00  0.00    +0.000 A 
ATOM     20  C   UNL     1      -1.012  16.891  18.688  0.00  0.00    +0.000 A 
ENDBRANCH  12  15
ENDBRANCH   7   9
BRANCH   2  21
ATOM     21  C   UNL     1       2.303   7.200  18.848  0.00  0.00    +0.000 A 
ATOM     22  C   UNL     1       2.964   6.338  17.991  0.00  0.00    +0.000 A 
ATOM     23  N   UNL     1       3.032   5.166  18.679  0.00  0.00    +0.000 N 
ATOM     24  N   UNL     1       2.379   5.252  19.853  0.00  0.00    +0.000 NA
ATOM     25  N   UNL     1       1.919   6.490  19.962  0.00  0.00    +0.000 NA
BRANCH  23  26
ATOM     26  C   UNL     1       3.641   3.914  18.267  0.00  0.00    +0.000 C 
BRANCH  26  27
ATOM     27  C   UNL     1       4.886   4.130  17.439  0.00  0.00    +0.000 A 
ATOM     28  C   UNL     1       4.855   4.001  16.040  0.00  0.00    +0.000 A 
ATOM     29  C   UNL     1       6.005   4.218  15.279  0.00  0.00    +0.000 A 
ATOM     30  C   UNL     1       7.196   4.579  15.903  0.00  0.00    +0.000 A 
ATOM     31  C   UNL     1       7.238   4.727  17.288  0.00  0.00    +0.000 A 
ATOM     32  C   UNL     1       6.090   4.507  18.052  0.00  0.00    +0.000 A 
ENDBRANCH  26  27
ENDBRANCH  23  26
ENDBRANCH   2  21
TORSDOF 5
ENDMDL
MODEL 9
REMARK VINA RESULT:      -7.7      1.609      2.261
REMARK  Name = 
REMARK  5 active torsions:
REMARK  status: ('A' for Active; 'I' for Inactive)
REMARK    1  A    between atoms: C_2  and  C_3
REMARK    2  A    between atoms: N_5  and  C_6
REMARK    3  A    between atoms: C_6  and  C_7
REMARK    4  A    between atoms: C_19  and  C_20
REMARK    5  A    between atoms: C_23  and  C_24
REMARK                            x       y       z     vdW  Elec       q    Type
REMARK                         _______ _______ _______ _____ _____    ______ ____
ROOT
ATOM      1  O   UNL     1      -0.359  13.244  19.940  0.00  0.00    +0.000 OA
ATOM      2  C   UNL     1      -0.632  12.664  20.992  0.00  0.00    +0.000 C 
ATOM      3  N   UNL     1      -0.515  11.275  21.110  0.00  0.00    +0.000 N 
ATOM      4  C   UNL     1      -1.008  10.453  22.216  0.00  0.00    +0.000 C 
ATOM      5  C   UNL     1       0.129   9.609  22.781  0.00  0.00    +0.000 C 
ATOM      6  C   UNL     1       0.768   8.757  21.683  0.00  0.00    +0.000 C 
ATOM      7  C   UNL     1       1.202   9.615  20.476  0.00  0.00    +0.000 C 
ATOM      8  C   UNL     1       0.046  10.505  19.996  0.00  0.00    +0.000 C 
ENDROOT
BRANCH   7   9
ATOM      9  C   UNL     1       1.719   8.762  19.368  0.00  0.00    +0.000 A 
ATOM     10  N   UNL     1       2.019   9.249  18.159  0.00  0.00    +0.000 NA
ATOM     11  N   UNL     1       2.490   8.154  17.544  0.00  0.00    +0.000 N 
ATOM     12  C   UNL     1       2.504   7.063  18.372  0.00  0.00    +0.000 A 
ATOM     13  N   UNL     1       1.970   7.423  19.524  0.00  0.00    +0.000 NA
ATOM     14  H   UNL     1       2.788   8.216  16.575  0.00  0.00    +0.000 HD
BRANCH  12  15
ATOM     15  C   UNL     1       3.031   5.751  18.011  0.00  0.00    +0.000 A 
ATOM     16  C   UNL     1       2.192   4.635  17.876  0.00  0.00    +0.000 A 
ATOM     17  C   UNL     1       2.710   3.397  17.492  0.00  0.00    +0.000 A 
ATOM     18  C   UNL     1       4.076   3.259  17.241  0.00  0.00    +0.000 A 
ATOM     19  C   UNL     1       4.920   4.359  17.373  0.00  0.00    +0.000 A 
ATOM     20  C   UNL     1       4.399   5.600  17.751  0.00  0.00    +0.000 A 
ENDBRANCH  12  15
ENDBRANCH   7   9
BRANCH   2  21
ATOM     21  C   UNL     1      -1.106  13.436  22.139  0.00  0.00    +0.000 A 
ATOM     22  C   UNL     1      -2.329  14.070  22.250  0.00  0.00    +0.000 A 
ATOM     23  N   UNL     1      -2.309  14.623  23.494  0.00  0.00    +0.000 N 
ATOM     24  N   UNL     1      -1.119  14.430  24.094  0.00  0.00    +0.000 NA
ATOM     25  N   UNL     1      -0.371  13.713  23.268  0.00  0.00    +0.000 NA
BRANCH  23  26
ATOM     26  C   UNL     1      -3.347  15.394  24.155  0.00  0.00    +0.000 C 
BRANCH  26  27
ATOM     27  C   UNL     1      -4.690  14.703  24.105  0.00  0.00    +0.000 A 
ATOM     28  C   UNL     1      -5.871  15.432  23.888  0.00  0.00    +0.000 A 
ATOM     29  C   UNL     1      -7.106  14.786  23.828  0.00  0.00    +0.000 A 
ATOM     30  C   UNL     1      -7.177  13.402  23.970  0.00  0.00    +0.000 A 
ATOM     31  C   UNL     1      -6.013  12.664  24.169  0.00  0.00    +0.000 A 
ATOM     32  C   UNL     1      -4.776  13.309  24.234  0.00  0.00    +0.000 A 
ENDBRANCH  26  27
ENDBRANCH  23  26
ENDBRANCH   2  21
TORSDOF 5
ENDMDL
