MODEL 1
REMARK VINA RESULT:     -10.1      0.000      0.000
REMARK  Name = 
REMARK  4 active torsions:
REMARK  status: ('A' for Active; 'I' for Inactive)
REMARK    1  A    between atoms: C_1  and  C_2
REMARK    2  A    between atoms: C_5  and  C_6
REMARK    3  A    between atoms: C_9  and  N_10
REMARK    4  A    between atoms: C_16  and  C_17
REMARK                            x       y       z     vdW  Elec       q    Type
REMARK                         _______ _______ _______ _____ _____    ______ ____
ROOT
ATOM      1  N   UNL     1       4.803   4.518  16.957  0.00  0.00    +0.000 N 
ATOM      2  C   UNL     1       4.724   3.857  18.152  0.00  0.00    +0.000 C 
ATOM      3  O   UNL     1       5.668   3.693  18.909  0.00  0.00    +0.000 OA
ATOM      4  N   UNL     1       3.476   3.421  18.544  0.00  0.00    +0.000 N 
ATOM      5  C   UNL     1       2.167   3.496  17.897  0.00  0.00    +0.000 C 
ATOM      6  C   UNL     1       1.721   4.916  18.117  0.00  0.00    +0.000 C 
ATOM      7  C   UNL     1       1.972   5.496  19.315  0.00  0.00    +0.000 C 
ATOM      8  C   UNL     1       2.663   4.726  20.439  0.00  0.00    +0.000 C 
ATOM      9  C   UNL     1       3.192   3.328  19.973  0.00  0.00    +0.000 C 
ATOM     10  C   UNL     1       2.113   2.253  19.991  0.00  0.00    +0.000 C 
ATOM     11  C   UNL     1       1.264   2.564  18.747  0.00  0.00    +0.000 C 
ATOM     12  H   UNL     1       3.919   4.732  16.525  0.00  0.00    +0.000 HD
ENDROOT
BRANCH   1  18
ATOM     13  C   UNL     1       5.754   3.752  14.035  0.00  0.00    +0.000 C 
ATOM     14  C   UNL     1       6.379   4.669  15.019  0.00  0.00    +0.000 A 
ATOM     15  N   UNL     1       7.522   5.260  14.668  0.00  0.00    +0.000 NA
ATOM     16  O   UNL     1       7.819   6.110  15.692  0.00  0.00    +0.000 OA
ATOM     17  C   UNL     1       6.850   6.070  16.660  0.00  0.00    +0.000 A 
ATOM     18  C   UNL     1       5.931   5.076  16.326  0.00  0.00    +0.000 A 
BRANCH  17  19
ATOM     19  C   UNL     1       6.945   7.070  17.808  0.00  0.00    +0.000 C 
ATOM     20  C   UNL     1       7.894   8.245  17.600  0.00  0.00    +0.000 C 
ATOM     21  C   UNL     1       8.252   7.178  18.574  0.00  0.00    +0.000 C 
ENDBRANCH  17  19
ENDBRANCH   1  18
BRANCH   7  22
ATOM     22  C   UNL     1       1.792   6.938  19.447  0.00  0.00    +0.000 A 
ATOM     23  C   UNL     1       1.339   7.512  20.637  0.00  0.00    +0.000 A 
ATOM     24  C   UNL     1       1.106   8.888  20.697  0.00  0.00    +0.000 A 
ATOM     25  C   UNL     1       1.313   9.685  19.569  0.00  0.00    +0.000 A 
ATOM     26  C   UNL     1       1.758   9.113  18.378  0.00  0.00    +0.000 A 
ATOM     27  C   UNL     1       1.999   7.742  18.319  0.00  0.00    +0.000 A 
ENDBRANCH   7  22
TORSDOF 3
ENDMDL
MODEL 2
REMARK VINA RESULT:      -9.5      0.715      2.575
REMARK  Name = 
REMARK  4 active torsions:
REMARK  status: ('A' for Active; 'I' for Inactive)
REMARK    1  A    between atoms: C_1  and  C_2
REMARK    2  A    between atoms: C_5  and  C_6
REMARK    3  A    between atoms: C_9  and  N_10
REMARK    4  A    between atoms: C_16  and  C_17
REMARK                            x       y       z     vdW  Elec       q    Type
REMARK                         _______ _______ _______ _____ _____    ______ ____
ROOT
ATOM      1  N   UNL     1       4.732   4.373  16.807  0.00  0.00    +0.000 N 
ATOM      2  C   UNL     1       4.669   3.798  18.046  0.00  0.00    +0.000 C 
ATOM      3  O   UNL     1       5.632   3.648  18.783  0.00  0.00    +0.000 OA
ATOM      4  N   UNL     1       3.420   3.439  18.506  0.00  0.00    +0.000 N 
ATOM      5  C   UNL     1       2.094   3.521  17.898  0.00  0.00    +0.000 C 
ATOM      6  C   UNL     1       1.709   4.970  18.035  0.00  0.00    +0.000 C 
ATOM      7  C   UNL     1       2.023   5.618  19.181  0.00  0.00    +0.000 C 
ATOM      8  C   UNL     1       2.722   4.899  20.333  0.00  0.00    +0.000 C 
ATOM      9  C   UNL     1       3.183   3.453  19.947  0.00  0.00    +0.000 C 
ATOM     10  C   UNL     1       2.066   2.425  20.072  0.00  0.00    +0.000 C 
ATOM     11  C   UNL     1       1.187   2.686  18.838  0.00  0.00    +0.000 C 
ATOM     12  H   UNL     1       3.842   4.593  16.390  0.00  0.00    +0.000 HD
ENDROOT
BRANCH   1  18
ATOM     13  C   UNL     1       6.748   6.536  17.941  0.00  0.00    +0.000 C 
ATOM     14  C   UNL     1       6.727   5.872  16.616  0.00  0.00    +0.000 A 
ATOM     15  N   UNL     1       7.665   6.226  15.736  0.00  0.00    +0.000 NA
ATOM     16  O   UNL     1       7.482   5.407  14.662  0.00  0.00    +0.000 OA
ATOM     17  C   UNL     1       6.455   4.527  14.885  0.00  0.00    +0.000 A 
ATOM     18  C   UNL     1       5.858   4.844  16.104  0.00  0.00    +0.000 A 
BRANCH  17  19
ATOM     19  C   UNL     1       6.210   3.437  13.847  0.00  0.00    +0.000 C 
ATOM     20  C   UNL     1       6.564   3.788  12.406  0.00  0.00    +0.000 C 
ATOM     21  C   UNL     1       5.134   3.657  12.798  0.00  0.00    +0.000 C 
ENDBRANCH  17  19
ENDBRANCH   1  18
BRANCH   7  22
ATOM     22  C   UNL     1       1.901   7.072  19.221  0.00  0.00    +0.000 A 
ATOM     23  C   UNL     1       1.454   7.738  20.364  0.00  0.00    +0.000 A 
ATOM     24  C   UNL     1       1.278   9.123  20.334  0.00  0.00    +0.000 A 
ATOM     25  C   UNL     1       1.535   9.839  19.163  0.00  0.00    +0.000 A 
ATOM     26  C   UNL     1       1.974   9.176  18.018  0.00  0.00    +0.000 A 
ATOM     27  C   UNL     1       2.158   7.795  18.049  0.00  0.00    +0.000 A 
ENDBRANCH   7  22
TORSDOF 3
ENDMDL
MODEL 3
REMARK VINA RESULT:      -8.5      2.025      6.679
REMARK  Name = 
REMARK  4 active torsions:
REMARK  status: ('A' for Active; 'I' for Inactive)
REMARK    1  A    between atoms: C_1  and  C_2
REMARK    2  A    between atoms: C_5  and  C_6
REMARK    3  A    between atoms: C_9  and  N_10
REMARK    4  A    between atoms: C_16  and  C_17
REMARK                            x       y       z     vdW  Elec       q    Type
REMARK                         _______ _______ _______ _____ _____    ______ ____
ROOT
ATOM      1  N   UNL     1       3.790   4.786  18.222  0.00  0.00    +0.000 N 
ATOM      2  C   UNL     1       5.074   4.712  18.688  0.00  0.00    +0.000 C 
ATOM      3  O   UNL     1       5.502   3.799  19.378  0.00  0.00    +0.000 OA
ATOM      4  N   UNL     1       5.945   5.701  18.283  0.00  0.00    +0.000 N 
ATOM      5  C   UNL     1       5.758   6.884  17.444  0.00  0.00    +0.000 C 
ATOM      6  C   UNL     1       5.739   6.347  16.039  0.00  0.00    +0.000 C 
ATOM      7  C   UNL     1       6.601   5.355  15.712  0.00  0.00    +0.000 C 
ATOM      8  C   UNL     1       7.601   4.806  16.729  0.00  0.00    +0.000 C 
ATOM      9  C   UNL     1       7.363   5.371  18.169  0.00  0.00    +0.000 C 
ATOM     10  C   UNL     1       8.002   6.737  18.380  0.00  0.00    +0.000 C 
ATOM     11  C   UNL     1       7.062   7.701  17.636  0.00  0.00    +0.000 C 
ATOM     12  H   UNL     1       3.627   5.494  17.525  0.00  0.00    +0.000 HD
ENDROOT
BRANCH   1  18
ATOM     13  C   UNL     1       3.477   1.942  16.866  0.00  0.00    +0.000 C 
ATOM     14  C   UNL     1       2.557   2.653  17.786  0.00  0.00    +0.000 A 
ATOM     15  N   UNL     1       1.409   2.049  18.096  0.00  0.00    +0.000 NA
ATOM     16  O   UNL     1       0.812   2.856  19.019  0.00  0.00    +0.000 OA
ATOM     17  C   UNL     1       1.600   3.940  19.304  0.00  0.00    +0.000 A 
ATOM     18  C   UNL     1       2.709   3.917  18.461  0.00  0.00    +0.000 A 
BRANCH  17  19
ATOM     19  C   UNL     1       1.154   4.869  20.429  0.00  0.00    +0.000 C 
ATOM     20  C   UNL     1       1.677   6.300  20.366  0.00  0.00    +0.000 C 
ATOM     21  C   UNL     1       2.195   5.376  21.411  0.00  0.00    +0.000 C 
ENDBRANCH  17  19
ENDBRANCH   1  18
BRANCH   7  22
ATOM     22  C   UNL     1       6.411   4.649  14.449  0.00  0.00    +0.000 A 
ATOM     23  C   UNL     1       7.380   4.672  13.444  0.00  0.00    +0.000 A 
ATOM     24  C   UNL     1       7.126   4.048  12.221  0.00  0.00    +0.000 A 
ATOM     25  C   UNL     1       5.902   3.412  11.999  0.00  0.00    +0.000 A 
ATOM     26  C   UNL     1       4.930   3.394  12.997  0.00  0.00    +0.000 A 
ATOM     27  C   UNL     1       5.186   4.010  14.221  0.00  0.00    +0.000 A 
ENDBRANCH   7  22
TORSDOF 3
ENDMDL
MODEL 4
REMARK VINA RESULT:      -8.2      2.061      6.816
REMARK  Name = 
REMARK  4 active torsions:
REMARK  status: ('A' for Active; 'I' for Inactive)
REMARK    1  A    between atoms: C_1  and  C_2
REMARK    2  A    between atoms: C_5  and  C_6
REMARK    3  A    between atoms: C_9  and  N_10
REMARK    4  A    between atoms: C_16  and  C_17
REMARK                            x       y       z     vdW  Elec       q    Type
REMARK                         _______ _______ _______ _____ _____    ______ ____
ROOT
ATOM      1  N   UNL     1       3.920   5.294  18.708  0.00  0.00    +0.000 N 
ATOM      2  C   UNL     1       5.218   5.085  19.081  0.00  0.00    +0.000 C 
ATOM      3  O   UNL     1       5.595   4.138  19.754  0.00  0.00    +0.000 OA
ATOM      4  N   UNL     1       6.159   5.970  18.598  0.00  0.00    +0.000 N 
ATOM      5  C   UNL     1       6.039   7.158  17.755  0.00  0.00    +0.000 C 
ATOM      6  C   UNL     1       5.861   6.614  16.363  0.00  0.00    +0.000 C 
ATOM      7  C   UNL     1       6.584   5.531  15.993  0.00  0.00    +0.000 C 
ATOM      8  C   UNL     1       7.590   4.887  16.945  0.00  0.00    +0.000 C 
ATOM      9  C   UNL     1       7.521   5.487  18.389  0.00  0.00    +0.000 C 
ATOM     10  C   UNL     1       8.317   6.777  18.530  0.00  0.00    +0.000 C 
ATOM     11  C   UNL     1       7.435   7.830  17.839  0.00  0.00    +0.000 C 
ATOM     12  H   UNL     1       3.783   6.010  18.012  0.00  0.00    +0.000 HD
ENDROOT
BRANCH   1  18
ATOM     13  C   UNL     1       1.559   6.393  20.510  0.00  0.00    +0.000 C 
ATOM     14  C   UNL     1       1.738   5.050  19.909  0.00  0.00    +0.000 A 
ATOM     15  N   UNL     1       0.800   4.135  20.158  0.00  0.00    +0.000 NA
ATOM     16  O   UNL     1       1.150   3.046  19.417  0.00  0.00    +0.000 OA
ATOM     17  C   UNL     1       2.283   3.293  18.687  0.00  0.00    +0.000 A 
ATOM     18  C   UNL     1       2.771   4.550  19.038  0.00  0.00    +0.000 A 
BRANCH  17  19
ATOM     19  C   UNL     1       2.732   2.233  17.685  0.00  0.00    +0.000 C 
ATOM     20  C   UNL     1       3.732   1.203  18.198  0.00  0.00    +0.000 C 
ATOM     21  C   UNL     1       4.178   2.234  17.223  0.00  0.00    +0.000 C 
ENDBRANCH  17  19
ENDBRANCH   1  18
BRANCH   7  22
ATOM     22  C   UNL     1       6.227   4.838  14.759  0.00  0.00    +0.000 A 
ATOM     23  C   UNL     1       4.984   4.223  14.599  0.00  0.00    +0.000 A 
ATOM     24  C   UNL     1       4.711   3.503  13.434  0.00  0.00    +0.000 A 
ATOM     25  C   UNL     1       5.682   3.388  12.436  0.00  0.00    +0.000 A 
ATOM     26  C   UNL     1       6.927   3.995  12.597  0.00  0.00    +0.000 A 
ATOM     27  C   UNL     1       7.197   4.719  13.756  0.00  0.00    +0.000 A 
ENDBRANCH   7  22
TORSDOF 3
ENDMDL
MODEL 5
REMARK VINA RESULT:      -7.9      2.702      6.789
REMARK  Name = 
REMARK  4 active torsions:
REMARK  status: ('A' for Active; 'I' for Inactive)
REMARK    1  A    between atoms: C_1  and  C_2
REMARK    2  A    between atoms: C_5  and  C_6
REMARK    3  A    between atoms: C_9  and  N_10
REMARK    4  A    between atoms: C_16  and  C_17
REMARK                            x       y       z     vdW  Elec       q    Type
REMARK                         _______ _______ _______ _____ _____    ______ ____
ROOT
ATOM      1  N   UNL     1       3.878   4.751  18.311  0.00  0.00    +0.000 N 
ATOM      2  C   UNL     1       5.155   4.608  18.778  0.00  0.00    +0.000 C 
ATOM      3  O   UNL     1       5.554   3.635  19.400  0.00  0.00    +0.000 OA
ATOM      4  N   UNL     1       6.055   5.602  18.454  0.00  0.00    +0.000 N 
ATOM      5  C   UNL     1       5.905   6.849  17.706  0.00  0.00    +0.000 C 
ATOM      6  C   UNL     1       5.885   6.420  16.264  0.00  0.00    +0.000 C 
ATOM      7  C   UNL     1       6.724   5.434  15.869  0.00  0.00    +0.000 C 
ATOM      8  C   UNL     1       7.700   4.784  16.848  0.00  0.00    +0.000 C 
ATOM      9  C   UNL     1       7.465   5.245  18.326  0.00  0.00    +0.000 C 
ATOM     10  C   UNL     1       8.136   6.574  18.644  0.00  0.00    +0.000 C 
ATOM     11  C   UNL     1       7.228   7.615  17.968  0.00  0.00    +0.000 C 
ATOM     12  H   UNL     1       3.739   5.513  17.668  0.00  0.00    +0.000 HD
ENDROOT
BRANCH   1  18
ATOM     13  C   UNL     1       2.666   2.963  15.995  0.00  0.00    +0.000 C 
ATOM     14  C   UNL     1       2.201   3.136  17.392  0.00  0.00    +0.000 A 
ATOM     15  N   UNL     1       1.103   2.475  17.761  0.00  0.00    +0.000 NA
ATOM     16  O   UNL     1       0.961   2.725  19.094  0.00  0.00    +0.000 OA
ATOM     17  C   UNL     1       1.982   3.512  19.558  0.00  0.00    +0.000 A 
ATOM     18  C   UNL     1       2.773   3.894  18.476  0.00  0.00    +0.000 A 
BRANCH  17  19
ATOM     19  C   UNL     1       2.063   3.765  21.060  0.00  0.00    +0.000 C 
ATOM     20  C   UNL     1       2.766   2.695  21.886  0.00  0.00    +0.000 C 
ATOM     21  C   UNL     1       1.291   2.852  21.995  0.00  0.00    +0.000 C 
ENDBRANCH  17  19
ENDBRANCH   1  18
BRANCH   7  22
ATOM     22  C   UNL     1       6.527   4.829  14.555  0.00  0.00    +0.000 A 
ATOM     23  C   UNL     1       5.430   4.008  14.285  0.00  0.00    +0.000 A 
ATOM     24  C   UNL     1       5.319   3.387  13.040  0.00  0.00    +0.000 A 
ATOM     25  C   UNL     1       6.309   3.575  12.071  0.00  0.00    +0.000 A 
ATOM     26  C   UNL     1       7.409   4.387  12.341  0.00  0.00    +0.000 A 
ATOM     27  C   UNL     1       7.516   5.014  13.581  0.00  0.00    +0.000 A 
ENDBRANCH   7  22
TORSDOF 3
ENDMDL
MODEL 6
REMARK VINA RESULT:      -7.7      8.307     11.598
REMARK  Name = 
REMARK  4 active torsions:
REMARK  status: ('A' for Active; 'I' for Inactive)
REMARK    1  A    between atoms: C_1  and  C_2
REMARK    2  A    between atoms: C_5  and  C_6
REMARK    3  A    between atoms: C_9  and  N_10
REMARK    4  A    between atoms: C_16  and  C_17
REMARK                            x       y       z     vdW  Elec       q    Type
REMARK                         _______ _______ _______ _____ _____    ______ ____
ROOT
ATOM      1  N   UNL     1      -4.368  13.014  20.010  0.00  0.00    +0.000 N 
ATOM      2  C   UNL     1      -4.753  12.880  21.315  0.00  0.00    +0.000 C 
ATOM      3  O   UNL     1      -5.692  12.191  21.686  0.00  0.00    +0.000 OA
ATOM      4  N   UNL     1      -3.977  13.509  22.265  0.00  0.00    +0.000 N 
ATOM      5  C   UNL     1      -2.791  14.356  22.152  0.00  0.00    +0.000 C 
ATOM      6  C   UNL     1      -1.665  13.392  21.896  0.00  0.00    +0.000 C 
ATOM      7  C   UNL     1      -1.654  12.214  22.564  0.00  0.00    +0.000 C 
ATOM      8  C   UNL     1      -2.738  11.874  23.587  0.00  0.00    +0.000 C 
ATOM      9  C   UNL     1      -3.902  12.920  23.599  0.00  0.00    +0.000 C 
ATOM     10  C   UNL     1      -3.584  14.146  24.446  0.00  0.00    +0.000 C 
ATOM     11  C   UNL     1      -2.608  14.951  23.573  0.00  0.00    +0.000 C 
ATOM     12  H   UNL     1      -3.478  13.465  19.869  0.00  0.00    +0.000 HD
ENDROOT
BRANCH   1  18
ATOM     13  C   UNL     1      -6.886  14.275  18.562  0.00  0.00    +0.000 C 
ATOM     14  C   UNL     1      -6.141  13.033  18.244  0.00  0.00    +0.000 A 
ATOM     15  N   UNL     1      -6.576  12.301  17.218  0.00  0.00    +0.000 NA
ATOM     16  O   UNL     1      -5.670  11.292  17.083  0.00  0.00    +0.000 OA
ATOM     17  C   UNL     1      -4.659  11.414  18.000  0.00  0.00    +0.000 A 
ATOM     18  C   UNL     1      -4.959  12.476  18.851  0.00  0.00    +0.000 A 
BRANCH  17  19
ATOM     19  C   UNL     1      -3.478  10.455  17.894  0.00  0.00    +0.000 C 
ATOM     20  C   UNL     1      -2.215  11.012  17.247  0.00  0.00    +0.000 C 
ATOM     21  C   UNL     1      -3.028  10.003  16.516  0.00  0.00    +0.000 C 
ENDBRANCH  17  19
ENDBRANCH   1  18
BRANCH   7  22
ATOM     22  C   UNL     1      -0.732  11.170  22.131  0.00  0.00    +0.000 A 
ATOM     23  C   UNL     1      -0.209  11.147  20.837  0.00  0.00    +0.000 A 
ATOM     24  C   UNL     1       0.609  10.087  20.439  0.00  0.00    +0.000 A 
ATOM     25  C   UNL     1       0.893   9.047  21.327  0.00  0.00    +0.000 A 
ATOM     26  C   UNL     1       0.366   9.064  22.618  0.00  0.00    +0.000 A 
ATOM     27  C   UNL     1      -0.444  10.125  23.018  0.00  0.00    +0.000 A 
ENDBRANCH   7  22
TORSDOF 3
ENDMDL
MODEL 7
REMARK VINA RESULT:      -7.6      7.639     11.107
REMARK  Name = 
REMARK  4 active torsions:
REMARK  status: ('A' for Active; 'I' for Inactive)
REMARK    1  A    between atoms: C_1  and  C_2
REMARK    2  A    between atoms: C_5  and  C_6
REMARK    3  A    between atoms: C_9  and  N_10
REMARK    4  A    between atoms: C_16  and  C_17
REMARK                            x       y       z     vdW  Elec       q    Type
REMARK                         _______ _______ _______ _____ _____    ______ ____
ROOT
ATOM      1  N   UNL     1      -3.746  12.772  19.889  0.00  0.00    +0.000 N 
ATOM      2  C   UNL     1      -3.843  12.812  21.252  0.00  0.00    +0.000 C 
ATOM      3  O   UNL     1      -4.755  12.307  21.890  0.00  0.00    +0.000 OA
ATOM      4  N   UNL     1      -2.801  13.399  21.937  0.00  0.00    +0.000 N 
ATOM      5  C   UNL     1      -1.572  14.046  21.479  0.00  0.00    +0.000 C 
ATOM      6  C   UNL     1      -0.664  12.905  21.108  0.00  0.00    +0.000 C 
ATOM      7  C   UNL     1      -0.654  11.802  21.894  0.00  0.00    +0.000 C 
ATOM      8  C   UNL     1      -1.515  11.718  23.154  0.00  0.00    +0.000 C 
ATOM      9  C   UNL     1      -2.504  12.924  23.286  0.00  0.00    +0.000 C 
ATOM     10  C   UNL     1      -1.852  14.158  23.896  0.00  0.00    +0.000 C 
ATOM     11  C   UNL     1      -1.001  14.729  22.749  0.00  0.00    +0.000 C 
ATOM     12  H   UNL     1      -2.861  13.071  19.512  0.00  0.00    +0.000 HD
ENDROOT
BRANCH   1  18
ATOM     13  C   UNL     1      -6.494  14.125  19.086  0.00  0.00    +0.000 C 
ATOM     14  C   UNL     1      -5.917  12.832  18.646  0.00  0.00    +0.000 A 
ATOM     15  N   UNL     1      -6.640  12.091  17.806  0.00  0.00    +0.000 NA
ATOM     16  O   UNL     1      -5.849  11.027  17.488  0.00  0.00    +0.000 OA
ATOM     17  C   UNL     1      -4.628  11.123  18.104  0.00  0.00    +0.000 A 
ATOM     18  C   UNL     1      -4.645  12.229  18.951  0.00  0.00    +0.000 A 
BRANCH  17  19
ATOM     19  C   UNL     1      -3.562  10.094  17.740  0.00  0.00    +0.000 C 
ATOM     20  C   UNL     1      -2.204  10.650  17.327  0.00  0.00    +0.000 C 
ATOM     21  C   UNL     1      -3.080  10.021  16.302  0.00  0.00    +0.000 C 
ENDBRANCH  17  19
ENDBRANCH   1  18
BRANCH   7  22
ATOM     22  C   UNL     1       0.008  10.597  21.404  0.00  0.00    +0.000 A 
ATOM     23  C   UNL     1       0.405   9.577  22.271  0.00  0.00    +0.000 A 
ATOM     24  C   UNL     1       1.105   8.476  21.771  0.00  0.00    +0.000 A 
ATOM     25  C   UNL     1       1.418   8.402  20.412  0.00  0.00    +0.000 A 
ATOM     26  C   UNL     1       1.030   9.423  19.546  0.00  0.00    +0.000 A 
ATOM     27  C   UNL     1       0.325  10.517  20.042  0.00  0.00    +0.000 A 
ENDBRANCH   7  22
TORSDOF 3
ENDMDL
MODEL 8
REMARK VINA RESULT:      -7.3      8.203     11.688
REMARK  Name = 
REMARK  4 active torsions:
REMARK  status: ('A' for Active; 'I' for Inactive)
REMARK    1  A    between atoms: C_1  and  C_2
REMARK    2  A    between atoms: C_5  and  C_6
REMARK    3  A    between atoms: C_9  and  N_10
REMARK    4  A    between atoms: C_16  and  C_17
REMARK                            x       y       z     vdW  Elec       q    Type
REMARK                         _______ _______ _______ _____ _____    ______ ____
ROOT
ATOM      1  N   UNL     1      -4.071  12.803  19.554  0.00  0.00    +0.000 N 
ATOM      2  C   UNL     1      -4.687  12.767  20.774  0.00  0.00    +0.000 C 
ATOM      3  O   UNL     1      -5.672  12.089  21.026  0.00  0.00    +0.000 OA
ATOM      4  N   UNL     1      -4.102  13.489  21.792  0.00  0.00    +0.000 N 
ATOM      5  C   UNL     1      -2.921  14.351  21.825  0.00  0.00    +0.000 C 
ATOM      6  C   UNL     1      -1.760  13.395  21.859  0.00  0.00    +0.000 C 
ATOM      7  C   UNL     1      -1.863  12.276  22.615  0.00  0.00    +0.000 C 
ATOM      8  C   UNL     1      -3.112  11.996  23.450  0.00  0.00    +0.000 C 
ATOM      9  C   UNL     1      -4.267  13.013  23.163  0.00  0.00    +0.000 C 
ATOM     10  C   UNL     1      -4.118  14.310  23.946  0.00  0.00    +0.000 C 
ATOM     11  C   UNL     1      -3.004  15.064  23.200  0.00  0.00    +0.000 C 
ATOM     12  H   UNL     1      -3.174  13.261  19.539  0.00  0.00    +0.000 HD
ENDROOT
BRANCH   1  18
ATOM     13  C   UNL     1      -2.376  10.498  18.198  0.00  0.00    +0.000 C 
ATOM     14  C   UNL     1      -3.619  11.154  17.727  0.00  0.00    +0.000 A 
ATOM     15  N   UNL     1      -4.116  10.759  16.554  0.00  0.00    +0.000 NA
ATOM     16  O   UNL     1      -5.291  11.435  16.412  0.00  0.00    +0.000 OA
ATOM     17  C   UNL     1      -5.538  12.223  17.505  0.00  0.00    +0.000 A 
ATOM     18  C   UNL     1      -4.437  12.159  18.357  0.00  0.00    +0.000 A 
BRANCH  17  19
ATOM     19  C   UNL     1      -6.885  12.935  17.582  0.00  0.00    +0.000 C 
ATOM     20  C   UNL     1      -7.041  14.177  16.711  0.00  0.00    +0.000 C 
ATOM     21  C   UNL     1      -6.941  14.326  18.188  0.00  0.00    +0.000 C 
ENDBRANCH  17  19
ENDBRANCH   1  18
BRANCH   7  22
ATOM     22  C   UNL     1      -0.869  11.221  22.446  0.00  0.00    +0.000 A 
ATOM     23  C   UNL     1      -0.716  10.202  23.389  0.00  0.00    +0.000 A 
ATOM     24  C   UNL     1       0.298   9.256  23.228  0.00  0.00    +0.000 A 
ATOM     25  C   UNL     1       1.166   9.335  22.136  0.00  0.00    +0.000 A 
ATOM     26  C   UNL     1       1.020  10.356  21.198  0.00  0.00    +0.000 A 
ATOM     27  C   UNL     1       0.003  11.295  21.353  0.00  0.00    +0.000 A 
ENDBRANCH   7  22
TORSDOF 3
ENDMDL
MODEL 9
REMARK VINA RESULT:      -7.3      8.518     11.646
REMARK  Name = 
REMARK  4 active torsions:
REMARK  status: ('A' for Active; 'I' for Inactive)
REMARK    1  A    between atoms: C_1  and  C_2
REMARK    2  A    between atoms: C_5  and  C_6
REMARK    3  A    between atoms: C_9  and  N_10
REMARK    4  A    between atoms: C_16  and  C_17
REMARK                            x       y       z     vdW  Elec       q    Type
REMARK                         _______ _______ _______ _____ _____    ______ ____
ROOT
ATOM      1  N   UNL     1      -4.398  13.054  20.001  0.00  0.00    +0.000 N 
ATOM      2  C   UNL     1      -4.867  12.964  21.283  0.00  0.00    +0.000 C 
ATOM      3  O   UNL     1      -5.822  12.280  21.618  0.00  0.00    +0.000 OA
ATOM      4  N   UNL     1      -4.159  13.636  22.256  0.00  0.00    +0.000 N 
ATOM      5  C   UNL     1      -2.974  14.490  22.189  0.00  0.00    +0.000 C 
ATOM      6  C   UNL     1      -1.826  13.528  22.042  0.00  0.00    +0.000 C 
ATOM      7  C   UNL     1      -1.851  12.376  22.754  0.00  0.00    +0.000 C 
ATOM      8  C   UNL     1      -2.996  12.063  23.716  0.00  0.00    +0.000 C 
ATOM      9  C   UNL     1      -4.166  13.098  23.614  0.00  0.00    +0.000 C 
ATOM     10  C   UNL     1      -3.913  14.357  24.432  0.00  0.00    +0.000 C 
ATOM     11  C   UNL     1      -2.888  15.139  23.595  0.00  0.00    +0.000 C 
ATOM     12  H   UNL     1      -3.505  13.508  19.901  0.00  0.00    +0.000 HD
ENDROOT
BRANCH   1  18
ATOM     13  C   UNL     1      -7.117  13.922  18.629  0.00  0.00    +0.000 C 
ATOM     14  C   UNL     1      -6.178  12.837  18.255  0.00  0.00    +0.000 A 
ATOM     15  N   UNL     1      -6.499  12.081  17.205  0.00  0.00    +0.000 NA
ATOM     16  O   UNL     1      -5.437  11.247  17.021  0.00  0.00    +0.000 OA
ATOM     17  C   UNL     1      -4.447  11.504  17.932  0.00  0.00    +0.000 A 
ATOM     18  C   UNL     1      -4.909  12.467  18.828  0.00  0.00    +0.000 A 
BRANCH  17  19
ATOM     19  C   UNL     1      -3.122  10.765  17.775  0.00  0.00    +0.000 C 
ATOM     20  C   UNL     1      -2.376  10.991  16.465  0.00  0.00    +0.000 C 
ATOM     21  C   UNL     1      -3.016   9.673  16.725  0.00  0.00    +0.000 C 
ENDBRANCH  17  19
ENDBRANCH   1  18
BRANCH   7  22
ATOM     22  C   UNL     1      -0.894  11.325  22.422  0.00  0.00    +0.000 A 
ATOM     23  C   UNL     1      -0.725  10.205  23.239  0.00  0.00    +0.000 A 
ATOM     24  C   UNL     1       0.256   9.262  22.926  0.00  0.00    +0.000 A 
ATOM     25  C   UNL     1       1.072   9.442  21.807  0.00  0.00    +0.000 A 
ATOM     26  C   UNL     1       0.910  10.563  20.994  0.00  0.00    +0.000 A 
ATOM     27  C   UNL     1      -0.073  11.501  21.301  0.00  0.00    +0.000 A 
ENDBRANCH   7  22
TORSDOF 3
ENDMDL
