MODEL 1
REMARK VINA RESULT:      -9.0      0.000      0.000
REMARK  Name = 
REMARK  7 active torsions:
REMARK  status: ('A' for Active; 'I' for Inactive)
REMARK    1  A    between atoms: C_1  and  C_2
REMARK    2  A    between atoms: N_4  and  C_5
REMARK    3  A    between atoms: C_5  and  C_6
REMARK    4  A    between atoms: C_10  and  C_11
REMARK    5  A    between atoms: C_11  and  N_12
REMARK    6  A    between atoms: C_13  and  C_15
REMARK    7  A    between atoms: C_15  and  C_16
REMARK                            x       y       z     vdW  Elec       q    Type
REMARK                         _______ _______ _______ _____ _____    ______ ____
ROOT
ATOM      1  C   UNL     1       8.671   9.953  18.207  0.00  0.00    +0.000 C 
ENDROOT
BRANCH   1   6
ATOM      2  C   UNL     1      11.255  12.700  18.810  0.00  0.00    +0.000 A 
ATOM      3  C   UNL     1      11.127  12.850  20.200  0.00  0.00    +0.000 A 
ATOM      4  C   UNL     1      10.390  11.932  20.948  0.00  0.00    +0.000 A 
ATOM      5  C   UNL     1       9.685  10.915  20.306  0.00  0.00    +0.000 A 
ATOM      6  C   UNL     1       9.677  10.834  18.908  0.00  0.00    +0.000 A 
ATOM      7  C   UNL     1      10.521  11.685  18.173  0.00  0.00    +0.000 A 
BRANCH   2   8
ATOM      8  C   UNL     1      12.156  13.638  18.026  0.00  0.00    +0.000 C 
BRANCH   8  12
ATOM      9  C   UNL     1      11.896  18.106  17.569  0.00  0.00    +0.000 C 
ATOM     10  C   UNL     1      11.295  17.316  18.731  0.00  0.00    +0.000 C 
ATOM     11  C   UNL     1      11.950  15.929  18.901  0.00  0.00    +0.000 C 
ATOM     12  N   UNL     1      11.604  14.990  17.815  0.00  0.00    +0.000 NA
ATOM     13  C   UNL     1      10.123  14.919  17.734  0.00  0.00    +0.000 C 
ATOM     14  C   UNL     1       9.473  16.305  17.580  0.00  0.00    +0.000 C 
ATOM     15  O   UNL     1       9.868  17.206  18.621  0.00  0.00    +0.000 OA
ENDBRANCH   8  12
ENDBRANCH   2   8
ENDBRANCH   1   6
BRANCH   1  16
ATOM     16  N   UNL     1       8.567   8.609  18.719  0.00  0.00    +0.000 N 
ATOM     17  C   UNL     1       7.894   7.658  17.973  0.00  0.00    +0.000 C 
ATOM     18  O   UNL     1       7.476   7.875  16.833  0.00  0.00    +0.000 OA
ATOM     19  H   UNL     1       8.552   8.465  19.726  0.00  0.00    +0.000 HD
BRANCH  17  20
ATOM     20  C   UNL     1       7.779   6.292  18.625  0.00  0.00    +0.000 C 
BRANCH  20  21
ATOM     21  C   UNL     1       6.894   5.364  17.864  0.00  0.00    +0.000 A 
ATOM     22  N   UNL     1       7.434   4.492  16.985  0.00  0.00    +0.000 NA
ATOM     23  N   UNL     1       6.385   3.791  16.522  0.00  0.00    +0.000 N 
ATOM     24  C   UNL     1       5.205   4.173  17.078  0.00  0.00    +0.000 A 
ATOM     25  C   UNL     1       5.483   5.242  17.900  0.00  0.00    +0.000 A 
ATOM     26  C   UNL     1       4.415   5.969  18.644  0.00  0.00    +0.000 C 
ATOM     27  C   UNL     1       3.027   5.640  18.043  0.00  0.00    +0.000 C 
ATOM     28  C   UNL     1       2.858   4.122  17.840  0.00  0.00    +0.000 C 
ATOM     29  C   UNL     1       3.875   3.567  16.821  0.00  0.00    +0.000 C 
ATOM     30  H   UNL     1       6.556   3.065  15.835  0.00  0.00    +0.000 HD
ENDBRANCH  20  21
ENDBRANCH  17  20
ENDBRANCH   1  16
TORSDOF 6
ENDMDL
MODEL 2
REMARK VINA RESULT:      -8.8      8.318     12.756
REMARK  Name = 
REMARK  7 active torsions:
REMARK  status: ('A' for Active; 'I' for Inactive)
REMARK    1  A    between atoms: C_1  and  C_2
REMARK    2  A    between atoms: N_4  and  C_5
REMARK    3  A    between atoms: C_5  and  C_6
REMARK    4  A    between atoms: C_10  and  C_11
REMARK    5  A    between atoms: C_11  and  N_12
REMARK    6  A    between atoms: C_13  and  C_15
REMARK    7  A    between atoms: C_15  and  C_16
REMARK                            x       y       z     vdW  Elec       q    Type
REMARK                         _______ _______ _______ _____ _____    ______ ____
ROOT
ATOM      1  C   UNL     1       0.037   9.114  21.198  0.00  0.00    +0.000 C 
ENDROOT
BRANCH   1   6
ATOM      2  C   UNL     1       2.488   7.406  18.818  0.00  0.00    +0.000 A 
ATOM      3  C   UNL     1       2.440   8.303  17.739  0.00  0.00    +0.000 A 
ATOM      4  C   UNL     1       1.808   9.540  17.872  0.00  0.00    +0.000 A 
ATOM      5  C   UNL     1       1.124   9.852  19.046  0.00  0.00    +0.000 A 
ATOM      6  C   UNL     1       1.032   8.912  20.081  0.00  0.00    +0.000 A 
ATOM      7  C   UNL     1       1.775   7.723  19.987  0.00  0.00    +0.000 A 
BRANCH   2   8
ATOM      8  C   UNL     1       3.279   6.116  18.696  0.00  0.00    +0.000 C 
BRANCH   8  12
ATOM      9  C   UNL     1       1.938   2.860  21.495  0.00  0.00    +0.000 C 
ATOM     10  C   UNL     1       2.818   2.639  20.265  0.00  0.00    +0.000 C 
ATOM     11  C   UNL     1       3.522   3.933  19.805  0.00  0.00    +0.000 C 
ATOM     12  N   UNL     1       2.593   4.919  19.218  0.00  0.00    +0.000 NA
ATOM     13  C   UNL     1       1.856   4.246  18.118  0.00  0.00    +0.000 C 
ATOM     14  C   UNL     1       1.167   2.948  18.577  0.00  0.00    +0.000 C 
ATOM     15  O   UNL     1       2.088   2.035  19.186  0.00  0.00    +0.000 OA
ENDBRANCH   8  12
ENDBRANCH   2   8
ENDBRANCH   1   6
BRANCH   1  16
ATOM     16  N   UNL     1      -0.414  10.471  21.384  0.00  0.00    +0.000 N 
ATOM     17  C   UNL     1      -0.607  10.943  22.670  0.00  0.00    +0.000 C 
ATOM     18  O   UNL     1      -0.301  10.294  23.674  0.00  0.00    +0.000 OA
ATOM     19  H   UNL     1      -1.000  10.898  20.670  0.00  0.00    +0.000 HD
BRANCH  17  20
ATOM     20  C   UNL     1      -1.147  12.358  22.762  0.00  0.00    +0.000 C 
BRANCH  20  21
ATOM     21  C   UNL     1      -2.427  12.536  22.019  0.00  0.00    +0.000 A 
ATOM     22  N   UNL     1      -2.423  12.545  20.668  0.00  0.00    +0.000 NA
ATOM     23  N   UNL     1      -3.718  12.674  20.330  0.00  0.00    +0.000 N 
ATOM     24  C   UNL     1      -4.543  12.734  21.409  0.00  0.00    +0.000 A 
ATOM     25  C   UNL     1      -3.738  12.723  22.525  0.00  0.00    +0.000 A 
ATOM     26  C   UNL     1      -4.291  12.833  23.904  0.00  0.00    +0.000 C 
ATOM     27  C   UNL     1      -5.743  13.366  23.856  0.00  0.00    +0.000 C 
ATOM     28  C   UNL     1      -6.576  12.609  22.803  0.00  0.00    +0.000 C 
ATOM     29  C   UNL     1      -6.025  12.824  21.378  0.00  0.00    +0.000 C 
ATOM     30  H   UNL     1      -3.958  12.705  19.347  0.00  0.00    +0.000 HD
ENDBRANCH  20  21
ENDBRANCH  17  20
ENDBRANCH   1  16
TORSDOF 6
ENDMDL
MODEL 3
REMARK VINA RESULT:      -8.8      8.354     12.324
REMARK  Name = 
REMARK  7 active torsions:
REMARK  status: ('A' for Active; 'I' for Inactive)
REMARK    1  A    between atoms: C_1  and  C_2
REMARK    2  A    between atoms: N_4  and  C_5
REMARK    3  A    between atoms: C_5  and  C_6
REMARK    4  A    between atoms: C_10  and  C_11
REMARK    5  A    between atoms: C_11  and  N_12
REMARK    6  A    between atoms: C_13  and  C_15
REMARK    7  A    between atoms: C_15  and  C_16
REMARK                            x       y       z     vdW  Elec       q    Type
REMARK                         _______ _______ _______ _____ _____    ______ ____
ROOT
ATOM      1  C   UNL     1       0.147   9.512  21.196  0.00  0.00    +0.000 C 
ENDROOT
BRANCH   1   6
ATOM      2  C   UNL     1       2.469   7.368  19.052  0.00  0.00    +0.000 A 
ATOM      3  C   UNL     1       2.371   8.054  17.831  0.00  0.00    +0.000 A 
ATOM      4  C   UNL     1       1.752   9.303  17.767  0.00  0.00    +0.000 A 
ATOM      5  C   UNL     1       1.129   9.832  18.896  0.00  0.00    +0.000 A 
ATOM      6  C   UNL     1       1.084   9.097  20.088  0.00  0.00    +0.000 A 
ATOM      7  C   UNL     1       1.817   7.901  20.177  0.00  0.00    +0.000 A 
BRANCH   2   8
ATOM      8  C   UNL     1       3.249   6.067  19.129  0.00  0.00    +0.000 C 
BRANCH   8  12
ATOM      9  C   UNL     1       1.405   2.734  21.522  0.00  0.00    +0.000 C 
ATOM     10  C   UNL     1       2.416   2.536  20.394  0.00  0.00    +0.000 C 
ATOM     11  C   UNL     1       3.238   3.810  20.109  0.00  0.00    +0.000 C 
ATOM     12  N   UNL     1       2.441   4.884  19.484  0.00  0.00    +0.000 NA
ATOM     13  C   UNL     1       1.810   4.325  18.261  0.00  0.00    +0.000 C 
ATOM     14  C   UNL     1       1.004   3.046  18.546  0.00  0.00    +0.000 C 
ATOM     15  O   UNL     1       1.793   2.043  19.198  0.00  0.00    +0.000 OA
ENDBRANCH   8  12
ENDBRANCH   2   8
ENDBRANCH   1   6
BRANCH   1  16
ATOM     16  N   UNL     1      -0.846  10.490  20.830  0.00  0.00    +0.000 N 
ATOM     17  C   UNL     1      -0.722  11.783  21.306  0.00  0.00    +0.000 C 
ATOM     18  O   UNL     1       0.265  12.172  21.937  0.00  0.00    +0.000 OA
ATOM     19  H   UNL     1      -1.799  10.182  20.649  0.00  0.00    +0.000 HD
BRANCH  17  20
ATOM     20  C   UNL     1      -1.850  12.722  20.922  0.00  0.00    +0.000 C 
BRANCH  20  21
ATOM     21  C   UNL     1      -2.477  12.367  19.616  0.00  0.00    +0.000 A 
ATOM     22  N   UNL     1      -1.702  12.204  18.523  0.00  0.00    +0.000 NA
ATOM     23  N   UNL     1      -2.562  11.850  17.552  0.00  0.00    +0.000 N 
ATOM     24  C   UNL     1      -3.847  11.771  17.988  0.00  0.00    +0.000 A 
ATOM     25  C   UNL     1      -3.845  12.171  19.304  0.00  0.00    +0.000 A 
ATOM     26  C   UNL     1      -5.098  12.266  20.107  0.00  0.00    +0.000 C 
ATOM     27  C   UNL     1      -6.331  12.275  19.173  0.00  0.00    +0.000 C 
ATOM     28  C   UNL     1      -6.234  11.156  18.118  0.00  0.00    +0.000 C 
ATOM     29  C   UNL     1      -5.024  11.357  17.182  0.00  0.00    +0.000 C 
ATOM     30  H   UNL     1      -2.196  11.673  16.624  0.00  0.00    +0.000 HD
ENDBRANCH  20  21
ENDBRANCH  17  20
ENDBRANCH   1  16
TORSDOF 6
ENDMDL
MODEL 4
REMARK VINA RESULT:      -8.8      7.642      9.674
REMARK  Name = 
REMARK  7 active torsions:
REMARK  status: ('A' for Active; 'I' for Inactive)
REMARK    1  A    between atoms: C_1  and  C_2
REMARK    2  A    between atoms: N_4  and  C_5
REMARK    3  A    between atoms: C_5  and  C_6
REMARK    4  A    between atoms: C_10  and  C_11
REMARK    5  A    between atoms: C_11  and  N_12
REMARK    6  A    between atoms: C_13  and  C_15
REMARK    7  A    between atoms: C_15  and  C_16
REMARK                            x       y       z     vdW  Elec       q    Type
REMARK                         _______ _______ _______ _____ _____    ______ ____
ROOT
ATOM      1  C   UNL     1       2.915   8.263  17.832  0.00  0.00    +0.000 C 
ENDROOT
BRANCH   1   6
ATOM      2  C   UNL     1       0.032   9.977  19.658  0.00  0.00    +0.000 A 
ATOM      3  C   UNL     1      -0.116   9.104  20.748  0.00  0.00    +0.000 A 
ATOM      4  C   UNL     1       0.838   8.119  21.002  0.00  0.00    +0.000 A 
ATOM      5  C   UNL     1       1.893   7.923  20.112  0.00  0.00    +0.000 A 
ATOM      6  C   UNL     1       1.979   8.684  18.939  0.00  0.00    +0.000 A 
ATOM      7  C   UNL     1       1.087   9.754  18.757  0.00  0.00    +0.000 A 
BRANCH   2   8
ATOM      8  C   UNL     1      -0.951  11.118  19.464  0.00  0.00    +0.000 C 
BRANCH   8  12
ATOM      9  C   UNL     1      -3.130   9.705  15.791  0.00  0.00    +0.000 C 
ATOM     10  C   UNL     1      -2.947  11.171  16.181  0.00  0.00    +0.000 C 
ATOM     11  C   UNL     1      -1.770  11.378  17.158  0.00  0.00    +0.000 C 
ATOM     12  N   UNL     1      -2.039  10.839  18.506  0.00  0.00    +0.000 NA
ATOM     13  C   UNL     1      -3.302  11.450  18.993  0.00  0.00    +0.000 C 
ATOM     14  C   UNL     1      -4.469  11.255  18.010  0.00  0.00    +0.000 C 
ATOM     15  O   UNL     1      -4.157  11.743  16.699  0.00  0.00    +0.000 OA
ENDBRANCH   8  12
ENDBRANCH   2   8
ENDBRANCH   1   6
BRANCH   1  16
ATOM     16  N   UNL     1       3.090   6.840  17.681  0.00  0.00    +0.000 N 
ATOM     17  C   UNL     1       4.292   6.360  17.192  0.00  0.00    +0.000 C 
ATOM     18  O   UNL     1       5.269   7.086  16.988  0.00  0.00    +0.000 OA
ATOM     19  H   UNL     1       2.276   6.261  17.482  0.00  0.00    +0.000 HD
BRANCH  17  20
ATOM     20  C   UNL     1       4.357   4.856  17.004  0.00  0.00    +0.000 C 
BRANCH  20  21
ATOM     21  C   UNL     1       4.247   4.109  18.291  0.00  0.00    +0.000 A 
ATOM     22  N   UNL     1       5.367   3.705  18.929  0.00  0.00    +0.000 NA
ATOM     23  N   UNL     1       4.918   3.118  20.052  0.00  0.00    +0.000 N 
ATOM     24  C   UNL     1       3.563   3.145  20.158  0.00  0.00    +0.000 A 
ATOM     25  C   UNL     1       3.086   3.713  18.999  0.00  0.00    +0.000 A 
ATOM     26  C   UNL     1       1.627   3.860  18.729  0.00  0.00    +0.000 C 
ATOM     27  C   UNL     1       0.814   2.944  19.676  0.00  0.00    +0.000 C 
ATOM     28  C   UNL     1       1.296   3.088  21.133  0.00  0.00    +0.000 C 
ATOM     29  C   UNL     1       2.760   2.631  21.297  0.00  0.00    +0.000 C 
ATOM     30  H   UNL     1       5.596   2.732  20.698  0.00  0.00    +0.000 HD
ENDBRANCH  20  21
ENDBRANCH  17  20
ENDBRANCH   1  16
TORSDOF 6
ENDMDL
MODEL 5
REMARK VINA RESULT:      -8.7      6.940     10.648
REMARK  Name = 
REMARK  7 active torsions:
REMARK  status: ('A' for Active; 'I' for Inactive)
REMARK    1  A    between atoms: C_1  and  C_2
REMARK    2  A    between atoms: N_4  and  C_5
REMARK    3  A    between atoms: C_5  and  C_6
REMARK    4  A    between atoms: C_10  and  C_11
REMARK    5  A    between atoms: C_11  and  N_12
REMARK    6  A    between atoms: C_13  and  C_15
REMARK    7  A    between atoms: C_15  and  C_16
REMARK                            x       y       z     vdW  Elec       q    Type
REMARK                         _______ _______ _______ _____ _____    ______ ____
ROOT
ATOM      1  C   UNL     1       1.735   6.086  21.003  0.00  0.00    +0.000 C 
ENDROOT
BRANCH   1   6
ATOM      2  C   UNL     1       2.652   4.027  17.920  0.00  0.00    +0.000 A 
ATOM      3  C   UNL     1       2.051   2.805  18.260  0.00  0.00    +0.000 A 
ATOM      4  C   UNL     1       1.184   2.718  19.349  0.00  0.00    +0.000 A 
ATOM      5  C   UNL     1       0.989   3.824  20.175  0.00  0.00    +0.000 A 
ATOM      6  C   UNL     1       1.693   5.013  19.943  0.00  0.00    +0.000 A 
ATOM      7  C   UNL     1       2.465   5.127  18.774  0.00  0.00    +0.000 A 
BRANCH   2   8
ATOM      8  C   UNL     1       3.499   4.131  16.664  0.00  0.00    +0.000 C 
BRANCH   8  12
ATOM      9  C   UNL     1       7.094   6.218  18.384  0.00  0.00    +0.000 C 
ATOM     10  C   UNL     1       6.565   6.428  16.966  0.00  0.00    +0.000 C 
ATOM     11  C   UNL     1       5.088   6.004  16.819  0.00  0.00    +0.000 C 
ATOM     12  N   UNL     1       4.897   4.541  16.895  0.00  0.00    +0.000 NA
ATOM     13  C   UNL     1       5.777   3.918  15.874  0.00  0.00    +0.000 C 
ATOM     14  C   UNL     1       7.245   4.355  16.013  0.00  0.00    +0.000 C 
ATOM     15  O   UNL     1       7.390   5.780  15.986  0.00  0.00    +0.000 OA
ENDBRANCH   8  12
ENDBRANCH   2   8
ENDBRANCH   1   6
BRANCH   1  16
ATOM     16  N   UNL     1       1.897   7.432  20.512  0.00  0.00    +0.000 N 
ATOM     17  C   UNL     1       0.929   8.374  20.808  0.00  0.00    +0.000 C 
ATOM     18  O   UNL     1      -0.013   8.149  21.572  0.00  0.00    +0.000 OA
ATOM     19  H   UNL     1       2.400   7.581  19.640  0.00  0.00    +0.000 HD
BRANCH  17  20
ATOM     20  C   UNL     1       1.152   9.743  20.191  0.00  0.00    +0.000 C 
BRANCH  20  21
ATOM     21  C   UNL     1       0.081  10.121  19.225  0.00  0.00    +0.000 A 
ATOM     22  N   UNL     1       0.110   9.635  17.966  0.00  0.00    +0.000 NA
ATOM     23  N   UNL     1      -1.002  10.126  17.391  0.00  0.00    +0.000 N 
ATOM     24  C   UNL     1      -1.740  10.892  18.237  0.00  0.00    +0.000 A 
ATOM     25  C   UNL     1      -1.034  10.975  19.415  0.00  0.00    +0.000 A 
ATOM     26  C   UNL     1      -1.511  11.787  20.571  0.00  0.00    +0.000 C 
ATOM     27  C   UNL     1      -2.598  12.786  20.109  0.00  0.00    +0.000 C 
ATOM     28  C   UNL     1      -3.656  12.087  19.234  0.00  0.00    +0.000 C 
ATOM     29  C   UNL     1      -3.043  11.534  17.930  0.00  0.00    +0.000 C 
ATOM     30  H   UNL     1      -1.190   9.888  16.425  0.00  0.00    +0.000 HD
ENDBRANCH  20  21
ENDBRANCH  17  20
ENDBRANCH   1  16
TORSDOF 6
ENDMDL
MODEL 6
REMARK VINA RESULT:      -8.7      1.211      1.777
REMARK  Name = 
REMARK  7 active torsions:
REMARK  status: ('A' for Active; 'I' for Inactive)
REMARK    1  A    between atoms: C_1  and  C_2
REMARK    2  A    between atoms: N_4  and  C_5
REMARK    3  A    between atoms: C_5  and  C_6
REMARK    4  A    between atoms: C_10  and  C_11
REMARK    5  A    between atoms: C_11  and  N_12
REMARK    6  A    between atoms: C_13  and  C_15
REMARK    7  A    between atoms: C_15  and  C_16
REMARK                            x       y       z     vdW  Elec       q    Type
REMARK                         _______ _______ _______ _____ _____    ______ ____
ROOT
ATOM      1  C   UNL     1       8.614   9.789  17.874  0.00  0.00    +0.000 C 
ENDROOT
BRANCH   1   6
ATOM      2  C   UNL     1      10.049  13.160  18.953  0.00  0.00    +0.000 A 
ATOM      3  C   UNL     1      10.025  12.997  20.347  0.00  0.00    +0.000 A 
ATOM      4  C   UNL     1       9.766  11.747  20.911  0.00  0.00    +0.000 A 
ATOM      5  C   UNL     1       9.421  10.672  20.095  0.00  0.00    +0.000 A 
ATOM      6  C   UNL     1       9.292  10.847  18.711  0.00  0.00    +0.000 A 
ATOM      7  C   UNL     1       9.678  12.074  18.143  0.00  0.00    +0.000 A 
BRANCH   2   8
ATOM      8  C   UNL     1      10.450  14.497  18.354  0.00  0.00    +0.000 C 
BRANCH   8  12
ATOM      9  C   UNL     1       7.059  16.900  20.075  0.00  0.00    +0.000 C 
ATOM     10  C   UNL     1       7.488  16.931  18.608  0.00  0.00    +0.000 C 
ATOM     11  C   UNL     1       8.298  15.681  18.205  0.00  0.00    +0.000 C 
ATOM     12  N   UNL     1       9.644  15.644  18.812  0.00  0.00    +0.000 NA
ATOM     13  C   UNL     1      10.333  16.912  18.459  0.00  0.00    +0.000 C 
ATOM     14  C   UNL     1       9.516  18.156  18.848  0.00  0.00    +0.000 C 
ATOM     15  O   UNL     1       8.199  18.136  18.284  0.00  0.00    +0.000 OA
ENDBRANCH   8  12
ENDBRANCH   2   8
ENDBRANCH   1   6
BRANCH   1  16
ATOM     16  N   UNL     1       8.430   8.515  18.523  0.00  0.00    +0.000 N 
ATOM     17  C   UNL     1       7.711   7.528  17.872  0.00  0.00    +0.000 C 
ATOM     18  O   UNL     1       7.316   7.646  16.710  0.00  0.00    +0.000 OA
ATOM     19  H   UNL     1       8.398   8.479  19.540  0.00  0.00    +0.000 HD
BRANCH  17  20
ATOM     20  C   UNL     1       7.513   6.248  18.663  0.00  0.00    +0.000 C 
BRANCH  20  21
ATOM     21  C   UNL     1       6.606   5.283  17.978  0.00  0.00    +0.000 A 
ATOM     22  N   UNL     1       7.118   4.372  17.122  0.00  0.00    +0.000 NA
ATOM     23  N   UNL     1       6.056   3.647  16.729  0.00  0.00    +0.000 N 
ATOM     24  C   UNL     1       4.895   4.053  17.309  0.00  0.00    +0.000 A 
ATOM     25  C   UNL     1       5.197   5.160  18.069  0.00  0.00    +0.000 A 
ATOM     26  C   UNL     1       4.154   5.919  18.815  0.00  0.00    +0.000 C 
ATOM     27  C   UNL     1       2.747   5.559  18.280  0.00  0.00    +0.000 C 
ATOM     28  C   UNL     1       2.577   4.032  18.154  0.00  0.00    +0.000 C 
ATOM     29  C   UNL     1       3.559   3.432  17.127  0.00  0.00    +0.000 C 
ATOM     30  H   UNL     1       6.205   2.891  16.072  0.00  0.00    +0.000 HD
ENDBRANCH  20  21
ENDBRANCH  17  20
ENDBRANCH   1  16
TORSDOF 6
ENDMDL
MODEL 7
REMARK VINA RESULT:      -8.7      6.602     10.696
REMARK  Name = 
REMARK  7 active torsions:
REMARK  status: ('A' for Active; 'I' for Inactive)
REMARK    1  A    between atoms: C_1  and  C_2
REMARK    2  A    between atoms: N_4  and  C_5
REMARK    3  A    between atoms: C_5  and  C_6
REMARK    4  A    between atoms: C_10  and  C_11
REMARK    5  A    between atoms: C_11  and  N_12
REMARK    6  A    between atoms: C_13  and  C_15
REMARK    7  A    between atoms: C_15  and  C_16
REMARK                            x       y       z     vdW  Elec       q    Type
REMARK                         _______ _______ _______ _____ _____    ______ ____
ROOT
ATOM      1  C   UNL     1       0.615   8.079  21.488  0.00  0.00    +0.000 C 
ENDROOT
BRANCH   1   6
ATOM      2  C   UNL     1       2.728   7.182  18.436  0.00  0.00    +0.000 A 
ATOM      3  C   UNL     1       2.407   8.259  17.596  0.00  0.00    +0.000 A 
ATOM      4  C   UNL     1       1.705   9.359  18.089  0.00  0.00    +0.000 A 
ATOM      5  C   UNL     1       1.222   9.350  19.397  0.00  0.00    +0.000 A 
ATOM      6  C   UNL     1       1.402   8.222  20.208  0.00  0.00    +0.000 A 
ATOM      7  C   UNL     1       2.217   7.175  19.745  0.00  0.00    +0.000 A 
BRANCH   2   8
ATOM      8  C   UNL     1       3.594   6.047  17.916  0.00  0.00    +0.000 C 
BRANCH   8  12
ATOM      9  C   UNL     1       7.712   7.820  17.554  0.00  0.00    +0.000 C 
ATOM     10  C   UNL     1       7.293   6.472  16.970  0.00  0.00    +0.000 C 
ATOM     11  C   UNL     1       5.764   6.354  16.798  0.00  0.00    +0.000 C 
ATOM     12  N   UNL     1       5.045   6.252  18.084  0.00  0.00    +0.000 NA
ATOM     13  C   UNL     1       5.627   5.112  18.837  0.00  0.00    +0.000 C 
ATOM     14  C   UNL     1       7.154   5.225  18.993  0.00  0.00    +0.000 C 
ATOM     15  O   UNL     1       7.816   5.373  17.731  0.00  0.00    +0.000 OA
ENDBRANCH   8  12
ENDBRANCH   2   8
ENDBRANCH   1   6
BRANCH   1  16
ATOM     16  N   UNL     1      -0.327   9.138  21.754  0.00  0.00    +0.000 N 
ATOM     17  C   UNL     1      -0.221   9.848  22.937  0.00  0.00    +0.000 C 
ATOM     18  O   UNL     1       0.715   9.697  23.727  0.00  0.00    +0.000 OA
ATOM     19  H   UNL     1      -1.266   9.071  21.368  0.00  0.00    +0.000 HD
BRANCH  17  20
ATOM     20  C   UNL     1      -1.296  10.896  23.158  0.00  0.00    +0.000 C 
BRANCH  20  21
ATOM     21  C   UNL     1      -0.965  12.204  22.524  0.00  0.00    +0.000 A 
ATOM     22  N   UNL     1      -0.636  13.261  23.298  0.00  0.00    +0.000 NA
ATOM     23  N   UNL     1      -0.357  14.243  22.423  0.00  0.00    +0.000 N 
ATOM     24  C   UNL     1      -0.483  13.849  21.128  0.00  0.00    +0.000 A 
ATOM     25  C   UNL     1      -0.948  12.554  21.151  0.00  0.00    +0.000 A 
ATOM     26  C   UNL     1      -1.262  11.802  19.903  0.00  0.00    +0.000 C 
ATOM     27  C   UNL     1      -1.396  12.779  18.710  0.00  0.00    +0.000 C 
ATOM     28  C   UNL     1      -0.220  13.774  18.675  0.00  0.00    +0.000 C 
ATOM     29  C   UNL     1      -0.198  14.675  19.927  0.00  0.00    +0.000 C 
ATOM     30  H   UNL     1      -0.082  15.148  22.786  0.00  0.00    +0.000 HD
ENDBRANCH  20  21
ENDBRANCH  17  20
ENDBRANCH   1  16
TORSDOF 6
ENDMDL
MODEL 8
REMARK VINA RESULT:      -8.7      8.228     12.560
REMARK  Name = 
REMARK  7 active torsions:
REMARK  status: ('A' for Active; 'I' for Inactive)
REMARK    1  A    between atoms: C_1  and  C_2
REMARK    2  A    between atoms: N_4  and  C_5
REMARK    3  A    between atoms: C_5  and  C_6
REMARK    4  A    between atoms: C_10  and  C_11
REMARK    5  A    between atoms: C_11  and  N_12
REMARK    6  A    between atoms: C_13  and  C_15
REMARK    7  A    between atoms: C_15  and  C_16
REMARK                            x       y       z     vdW  Elec       q    Type
REMARK                         _______ _______ _______ _____ _____    ______ ____
ROOT
ATOM      1  C   UNL     1       0.621   8.440  21.504  0.00  0.00    +0.000 C 
ENDROOT
BRANCH   1   6
ATOM      2  C   UNL     1       2.633   7.189  18.509  0.00  0.00    +0.000 A 
ATOM      3  C   UNL     1       2.371   8.222  17.595  0.00  0.00    +0.000 A 
ATOM      4  C   UNL     1       1.747   9.398  18.013  0.00  0.00    +0.000 A 
ATOM      5  C   UNL     1       1.282   9.514  19.321  0.00  0.00    +0.000 A 
ATOM      6  C   UNL     1       1.399   8.439  20.212  0.00  0.00    +0.000 A 
ATOM      7  C   UNL     1       2.139   7.310  19.819  0.00  0.00    +0.000 A 
BRANCH   2   8
ATOM      8  C   UNL     1       3.417   5.967  18.066  0.00  0.00    +0.000 C 
BRANCH   8  12
ATOM      9  C   UNL     1       1.583   2.770  20.645  0.00  0.00    +0.000 C 
ATOM     10  C   UNL     1       2.992   2.709  20.058  0.00  0.00    +0.000 C 
ATOM     11  C   UNL     1       3.529   4.102  19.668  0.00  0.00    +0.000 C 
ATOM     12  N   UNL     1       2.842   4.677  18.493  0.00  0.00    +0.000 NA
ATOM     13  C   UNL     1       2.943   3.693  17.385  0.00  0.00    +0.000 C 
ATOM     14  C   UNL     1       2.421   2.301  17.783  0.00  0.00    +0.000 C 
ATOM     15  O   UNL     1       3.072   1.795  18.954  0.00  0.00    +0.000 OA
ENDBRANCH   8  12
ENDBRANCH   2   8
ENDBRANCH   1   6
BRANCH   1  16
ATOM     16  N   UNL     1      -0.274   9.556  21.685  0.00  0.00    +0.000 N 
ATOM     17  C   UNL     1      -0.440  10.085  22.952  0.00  0.00    +0.000 C 
ATOM     18  O   UNL     1       0.232   9.722  23.921  0.00  0.00    +0.000 OA
ATOM     19  H   UNL     1      -1.075   9.650  21.064  0.00  0.00    +0.000 HD
BRANCH  17  20
ATOM     20  C   UNL     1      -1.452  11.211  23.052  0.00  0.00    +0.000 C 
BRANCH  20  21
ATOM     21  C   UNL     1      -0.858  12.547  22.756  0.00  0.00    +0.000 A 
ATOM     22  N   UNL     1       0.194  12.642  21.916  0.00  0.00    +0.000 NA
ATOM     23  N   UNL     1       0.442  13.961  21.837  0.00  0.00    +0.000 N 
ATOM     24  C   UNL     1      -0.417  14.706  22.582  0.00  0.00    +0.000 A 
ATOM     25  C   UNL     1      -1.230  13.821  23.253  0.00  0.00    +0.000 A 
ATOM     26  C   UNL     1      -2.271  14.275  24.219  0.00  0.00    +0.000 C 
ATOM     27  C   UNL     1      -2.005  15.740  24.640  0.00  0.00    +0.000 C 
ATOM     28  C   UNL     1      -1.727  16.627  23.411  0.00  0.00    +0.000 C 
ATOM     29  C   UNL     1      -0.447  16.188  22.670  0.00  0.00    +0.000 C 
ATOM     30  H   UNL     1       1.206  14.274  21.250  0.00  0.00    +0.000 HD
ENDBRANCH  20  21
ENDBRANCH  17  20
ENDBRANCH   1  16
TORSDOF 6
ENDMDL
MODEL 9
REMARK VINA RESULT:      -8.6      8.249     11.282
REMARK  Name = 
REMARK  7 active torsions:
REMARK  status: ('A' for Active; 'I' for Inactive)
REMARK    1  A    between atoms: C_1  and  C_2
REMARK    2  A    between atoms: N_4  and  C_5
REMARK    3  A    between atoms: C_5  and  C_6
REMARK    4  A    between atoms: C_10  and  C_11
REMARK    5  A    between atoms: C_11  and  N_12
REMARK    6  A    between atoms: C_13  and  C_15
REMARK    7  A    between atoms: C_15  and  C_16
REMARK                            x       y       z     vdW  Elec       q    Type
REMARK                         _______ _______ _______ _____ _____    ______ ____
ROOT
ATOM      1  C   UNL     1       0.031  10.269  19.071  0.00  0.00    +0.000 C 
ENDROOT
BRANCH   1   6
ATOM      2  C   UNL     1      -1.462  11.812  22.229  0.00  0.00    +0.000 A 
ATOM      3  C   UNL     1      -1.181  10.792  23.151  0.00  0.00    +0.000 A 
ATOM      4  C   UNL     1      -0.333   9.739  22.808  0.00  0.00    +0.000 A 
ATOM      5  C   UNL     1       0.158   9.633  21.508  0.00  0.00    +0.000 A 
ATOM      6  C   UNL     1      -0.229  10.559  20.529  0.00  0.00    +0.000 A 
ATOM      7  C   UNL     1      -0.980  11.682  20.916  0.00  0.00    +0.000 A 
BRANCH   2   8
ATOM      8  C   UNL     1      -2.290  13.011  22.656  0.00  0.00    +0.000 C 
BRANCH   8  12
ATOM      9  C   UNL     1      -6.576  12.349  21.459  0.00  0.00    +0.000 C 
ATOM     10  C   UNL     1      -6.066  13.574  22.217  0.00  0.00    +0.000 C 
ATOM     11  C   UNL     1      -4.546  13.782  22.046  0.00  0.00    +0.000 C 
ATOM     12  N   UNL     1      -3.741  12.759  22.744  0.00  0.00    +0.000 NA
ATOM     13  C   UNL     1      -4.162  12.749  24.168  0.00  0.00    +0.000 C 
ATOM     14  C   UNL     1      -5.679  12.557  24.335  0.00  0.00    +0.000 C 
ATOM     15  O   UNL     1      -6.431  13.535  23.604  0.00  0.00    +0.000 OA
ENDBRANCH   8  12
ENDBRANCH   2   8
ENDBRANCH   1   6
BRANCH   1  16
ATOM     16  N   UNL     1       0.740   9.043  18.803  0.00  0.00    +0.000 N 
ATOM     17  C   UNL     1       1.894   9.088  18.040  0.00  0.00    +0.000 C 
ATOM     18  O   UNL     1       2.412  10.146  17.672  0.00  0.00    +0.000 OA
ATOM     19  H   UNL     1       0.217   8.172  18.751  0.00  0.00    +0.000 HD
BRANCH  17  20
ATOM     20  C   UNL     1       2.531   7.741  17.755  0.00  0.00    +0.000 C 
BRANCH  20  21
ATOM     21  C   UNL     1       2.329   6.763  18.863  0.00  0.00    +0.000 A 
ATOM     22  N   UNL     1       2.481   7.160  20.144  0.00  0.00    +0.000 NA
ATOM     23  N   UNL     1       2.186   6.068  20.871  0.00  0.00    +0.000 N 
ATOM     24  C   UNL     1       1.842   4.999  20.104  0.00  0.00    +0.000 A 
ATOM     25  C   UNL     1       1.994   5.387  18.792  0.00  0.00    +0.000 A 
ATOM     26  C   UNL     1       1.760   4.452  17.655  0.00  0.00    +0.000 C 
ATOM     27  C   UNL     1       1.757   2.989  18.159  0.00  0.00    +0.000 C 
ATOM     28  C   UNL     1       0.872   2.838  19.412  0.00  0.00    +0.000 C 
ATOM     29  C   UNL     1       1.413   3.666  20.596  0.00  0.00    +0.000 C 
ATOM     30  H   UNL     1       2.235   6.133  21.880  0.00  0.00    +0.000 HD
ENDBRANCH  20  21
ENDBRANCH  17  20
ENDBRANCH   1  16
TORSDOF 6
ENDMDL
