MODEL 1
REMARK VINA RESULT:      -8.6      0.000      0.000
REMARK  Name = 
REMARK  4 active torsions:
REMARK  status: ('A' for Active; 'I' for Inactive)
REMARK    1  A    between atoms: C_2  and  C_12
REMARK    2  A    between atoms: N_3  and  C_4
REMARK    3  A    between atoms: C_4  and  C_5
REMARK    4  A    between atoms: C_15  and  N_16
REMARK                            x       y       z     vdW  Elec       q    Type
REMARK                         _______ _______ _______ _____ _____    ______ ____
ROOT
ATOM      1  C   UNL     1       0.232   9.978  19.863  0.00  0.00    +0.000 A 
ATOM      2  C   UNL     1       0.441  10.115  18.487  0.00  0.00    +0.000 A 
ATOM      3  C   UNL     1       1.413   9.340  17.843  0.00  0.00    +0.000 A 
ATOM      4  C   UNL     1       2.189   8.422  18.567  0.00  0.00    +0.000 A 
ATOM      5  C   UNL     1       1.913   8.244  19.929  0.00  0.00    +0.000 A 
ATOM      6  C   UNL     1       0.945   9.011  20.576  0.00  0.00    +0.000 A 
ENDROOT
BRANCH   4   7
ATOM      7  N   UNL     1       3.218   7.697  17.929  0.00  0.00    +0.000 N 
ATOM      8  C   UNL     1       3.190   6.324  17.759  0.00  0.00    +0.000 C 
ATOM      9  N   UNL     1       2.353   5.503  18.327  0.00  0.00    +0.000 NA
ATOM     10  S   UNL     1       2.760   3.944  18.042  0.00  0.00    +0.000 S 
ATOM     11  O   UNL     1       1.807   3.335  17.134  0.00  0.00    +0.000 OA
ATOM     12  O   UNL     1       3.196   3.303  19.262  0.00  0.00    +0.000 OA
ATOM     13  C   UNL     1       4.186   4.309  17.121  0.00  0.00    +0.000 A 
ATOM     14  C   UNL     1       5.133   3.438  16.619  0.00  0.00    +0.000 A 
ATOM     15  C   UNL     1       6.128   3.993  15.815  0.00  0.00    +0.000 A 
ATOM     16  C   UNL     1       6.125   5.370  15.516  0.00  0.00    +0.000 A 
ATOM     17  C   UNL     1       5.178   6.231  16.089  0.00  0.00    +0.000 A 
ATOM     18  C   UNL     1       4.240   5.673  16.939  0.00  0.00    +0.000 A 
ATOM     19  H   UNL     1       4.140   8.080  18.113  0.00  0.00    +0.000 HD
ENDBRANCH   4   7
BRANCH   1  21
ATOM     20  O   UNL     1      -1.020  10.697  21.722  0.00  0.00    +0.000 OA
ATOM     21  C   UNL     1      -0.743  10.871  20.542  0.00  0.00    +0.000 C 
ATOM     22  N   UNL     1      -1.315  11.838  19.743  0.00  0.00    +0.000 N 
ATOM     23  H   UNL     1      -1.190  11.780  18.742  0.00  0.00    +0.000 HD
BRANCH  22  24
ATOM     24  C   UNL     1      -2.358  12.709  20.229  0.00  0.00    +0.000 C 
BRANCH  24  25
ATOM     25  C   UNL     1      -3.711  12.325  19.678  0.00  0.00    +0.000 A 
ATOM     26  C   UNL     1      -3.806  11.659  18.447  0.00  0.00    +0.000 A 
ATOM     27  C   UNL     1      -5.051  11.285  17.936  0.00  0.00    +0.000 A 
ATOM     28  C   UNL     1      -6.201  11.589  18.655  0.00  0.00    +0.000 A 
ATOM     29  F   UNL     1      -7.395  11.222  18.168  0.00  0.00    +0.000 F 
ATOM     30  C   UNL     1      -6.131  12.267  19.865  0.00  0.00    +0.000 A 
ATOM     31  C   UNL     1      -4.890  12.639  20.379  0.00  0.00    +0.000 A 
ENDBRANCH  24  25
ENDBRANCH  22  24
ENDBRANCH   1  21
TORSDOF 4
ENDMDL
MODEL 2
REMARK VINA RESULT:      -8.5      0.700      1.153
REMARK  Name = 
REMARK  4 active torsions:
REMARK  status: ('A' for Active; 'I' for Inactive)
REMARK    1  A    between atoms: C_2  and  C_12
REMARK    2  A    between atoms: N_3  and  C_4
REMARK    3  A    between atoms: C_4  and  C_5
REMARK    4  A    between atoms: C_15  and  N_16
REMARK                            x       y       z     vdW  Elec       q    Type
REMARK                         _______ _______ _______ _____ _____    ______ ____
ROOT
ATOM      1  C   UNL     1      -0.029  10.362  20.146  0.00  0.00    +0.000 A 
ATOM      2  C   UNL     1       0.160  10.443  18.763  0.00  0.00    +0.000 A 
ATOM      3  C   UNL     1       1.103   9.622  18.133  0.00  0.00    +0.000 A 
ATOM      4  C   UNL     1       1.871   8.714  18.879  0.00  0.00    +0.000 A 
ATOM      5  C   UNL     1       1.614   8.594  20.251  0.00  0.00    +0.000 A 
ATOM      6  C   UNL     1       0.675   9.407  20.884  0.00  0.00    +0.000 A 
ENDROOT
BRANCH   4   7
ATOM      7  N   UNL     1       2.873   7.942  18.252  0.00  0.00    +0.000 N 
ATOM      8  C   UNL     1       2.795   6.569  18.104  0.00  0.00    +0.000 C 
ATOM      9  N   UNL     1       1.929   5.787  18.685  0.00  0.00    +0.000 NA
ATOM     10  S   UNL     1       2.278   4.210  18.425  0.00  0.00    +0.000 S 
ATOM     11  O   UNL     1       1.304   3.622  17.527  0.00  0.00    +0.000 OA
ATOM     12  O   UNL     1       2.692   3.574  19.655  0.00  0.00    +0.000 OA
ATOM     13  C   UNL     1       3.716   4.508  17.498  0.00  0.00    +0.000 A 
ATOM     14  C   UNL     1       4.630   3.596  17.010  0.00  0.00    +0.000 A 
ATOM     15  C   UNL     1       5.644   4.102  16.198  0.00  0.00    +0.000 A 
ATOM     16  C   UNL     1       5.691   5.473  15.876  0.00  0.00    +0.000 A 
ATOM     17  C   UNL     1       4.776   6.377  16.436  0.00  0.00    +0.000 A 
ATOM     18  C   UNL     1       3.819   5.867  17.295  0.00  0.00    +0.000 A 
ATOM     19  H   UNL     1       3.808   8.294  18.430  0.00  0.00    +0.000 HD
ENDBRANCH   4   7
BRANCH   1  21
ATOM     20  O   UNL     1      -1.239  11.174  21.995  0.00  0.00    +0.000 OA
ATOM     21  C   UNL     1      -0.972  11.303  20.806  0.00  0.00    +0.000 C 
ATOM     22  N   UNL     1      -1.528  12.257  19.982  0.00  0.00    +0.000 N 
ATOM     23  H   UNL     1      -1.417  12.163  18.982  0.00  0.00    +0.000 HD
BRANCH  22  24
ATOM     24  C   UNL     1      -2.542  13.171  20.451  0.00  0.00    +0.000 C 
BRANCH  24  25
ATOM     25  C   UNL     1      -3.933  12.625  20.234  0.00  0.00    +0.000 A 
ATOM     26  C   UNL     1      -4.892  12.714  21.254  0.00  0.00    +0.000 A 
ATOM     27  C   UNL     1      -6.185  12.227  21.058  0.00  0.00    +0.000 A 
ATOM     28  C   UNL     1      -6.515  11.639  19.843  0.00  0.00    +0.000 A 
ATOM     29  F   UNL     1      -7.760  11.179  19.652  0.00  0.00    +0.000 F 
ATOM     30  C   UNL     1      -5.575  11.520  18.827  0.00  0.00    +0.000 A 
ATOM     31  C   UNL     1      -4.283  12.008  19.018  0.00  0.00    +0.000 A 
ENDBRANCH  24  25
ENDBRANCH  22  24
ENDBRANCH   1  21
TORSDOF 4
ENDMDL
MODEL 3
REMARK VINA RESULT:      -8.4      2.412      2.903
REMARK  Name = 
REMARK  4 active torsions:
REMARK  status: ('A' for Active; 'I' for Inactive)
REMARK    1  A    between atoms: C_2  and  C_12
REMARK    2  A    between atoms: N_3  and  C_4
REMARK    3  A    between atoms: C_4  and  C_5
REMARK    4  A    between atoms: C_15  and  N_16
REMARK                            x       y       z     vdW  Elec       q    Type
REMARK                         _______ _______ _______ _____ _____    ______ ____
ROOT
ATOM      1  C   UNL     1       0.493  10.368  21.197  0.00  0.00    +0.000 A 
ATOM      2  C   UNL     1       0.633  10.342  19.806  0.00  0.00    +0.000 A 
ATOM      3  C   UNL     1       1.244   9.249  19.182  0.00  0.00    +0.000 A 
ATOM      4  C   UNL     1       1.723   8.169  19.939  0.00  0.00    +0.000 A 
ATOM      5  C   UNL     1       1.505   8.178  21.324  0.00  0.00    +0.000 A 
ATOM      6  C   UNL     1       0.896   9.264  21.952  0.00  0.00    +0.000 A 
ENDROOT
BRANCH   4   7
ATOM      7  N   UNL     1       2.405   7.103  19.314  0.00  0.00    +0.000 N 
ATOM      8  C   UNL     1       2.183   5.773  19.621  0.00  0.00    +0.000 C 
ATOM      9  N   UNL     1       1.502   5.329  20.639  0.00  0.00    +0.000 NA
ATOM     10  S   UNL     1       1.632   3.704  20.782  0.00  0.00    +0.000 S 
ATOM     11  O   UNL     1       0.376   3.069  20.433  0.00  0.00    +0.000 OA
ATOM     12  O   UNL     1       2.379   3.359  21.971  0.00  0.00    +0.000 OA
ATOM     13  C   UNL     1       2.702   3.502  19.430  0.00  0.00    +0.000 A 
ATOM     14  C   UNL     1       3.337   2.355  18.999  0.00  0.00    +0.000 A 
ATOM     15  C   UNL     1       4.061   2.451  17.811  0.00  0.00    +0.000 A 
ATOM     16  C   UNL     1       4.099   3.660  17.088  0.00  0.00    +0.000 A 
ATOM     17  C   UNL     1       3.487   4.818  17.588  0.00  0.00    +0.000 A 
ATOM     18  C   UNL     1       2.831   4.721  18.802  0.00  0.00    +0.000 A 
ATOM     19  H   UNL     1       3.369   7.330  19.093  0.00  0.00    +0.000 HD
ENDBRANCH   4   7
BRANCH   1  21
ATOM     20  O   UNL     1       0.425  12.676  21.656  0.00  0.00    +0.000 OA
ATOM     21  C   UNL     1      -0.079  11.576  21.847  0.00  0.00    +0.000 C 
ATOM     22  N   UNL     1      -1.149  11.346  22.686  0.00  0.00    +0.000 N 
ATOM     23  H   UNL     1      -1.366  10.395  22.949  0.00  0.00    +0.000 HD
BRANCH  22  24
ATOM     24  C   UNL     1      -1.741  12.401  23.472  0.00  0.00    +0.000 C 
BRANCH  24  25
ATOM     25  C   UNL     1      -3.205  12.586  23.150  0.00  0.00    +0.000 A 
ATOM     26  C   UNL     1      -3.625  12.676  21.815  0.00  0.00    +0.000 A 
ATOM     27  C   UNL     1      -4.978  12.830  21.504  0.00  0.00    +0.000 A 
ATOM     28  C   UNL     1      -5.908  12.905  22.534  0.00  0.00    +0.000 A 
ATOM     29  F   UNL     1      -7.208  13.045  22.235  0.00  0.00    +0.000 F 
ATOM     30  C   UNL     1      -5.512  12.841  23.863  0.00  0.00    +0.000 A 
ATOM     31  C   UNL     1      -4.163  12.684  24.177  0.00  0.00    +0.000 A 
ENDBRANCH  24  25
ENDBRANCH  22  24
ENDBRANCH   1  21
TORSDOF 4
ENDMDL
MODEL 4
REMARK VINA RESULT:      -8.4      1.537      2.010
REMARK  Name = 
REMARK  4 active torsions:
REMARK  status: ('A' for Active; 'I' for Inactive)
REMARK    1  A    between atoms: C_2  and  C_12
REMARK    2  A    between atoms: N_3  and  C_4
REMARK    3  A    between atoms: C_4  and  C_5
REMARK    4  A    between atoms: C_15  and  N_16
REMARK                            x       y       z     vdW  Elec       q    Type
REMARK                         _______ _______ _______ _____ _____    ______ ____
ROOT
ATOM      1  C   UNL     1       0.791   9.352  20.027  0.00  0.00    +0.000 A 
ATOM      2  C   UNL     1       1.000   9.858  18.740  0.00  0.00    +0.000 A 
ATOM      3  C   UNL     1       1.878   9.210  17.863  0.00  0.00    +0.000 A 
ATOM      4  C   UNL     1       2.560   8.050  18.263  0.00  0.00    +0.000 A 
ATOM      5  C   UNL     1       2.280   7.516  19.528  0.00  0.00    +0.000 A 
ATOM      6  C   UNL     1       1.405   8.155  20.405  0.00  0.00    +0.000 A 
ENDROOT
BRANCH   4   7
ATOM      7  N   UNL     1       3.500   7.442  17.404  0.00  0.00    +0.000 N 
ATOM      8  C   UNL     1       4.335   6.412  17.796  0.00  0.00    +0.000 C 
ATOM      9  N   UNL     1       4.526   6.009  19.021  0.00  0.00    +0.000 NA
ATOM     10  S   UNL     1       5.732   4.907  19.107  0.00  0.00    +0.000 S 
ATOM     11  O   UNL     1       5.191   3.594  19.397  0.00  0.00    +0.000 OA
ATOM     12  O   UNL     1       6.871   5.457  19.807  0.00  0.00    +0.000 OA
ATOM     13  C   UNL     1       6.112   4.942  17.412  0.00  0.00    +0.000 A 
ATOM     14  C   UNL     1       7.142   4.307  16.748  0.00  0.00    +0.000 A 
ATOM     15  C   UNL     1       7.150   4.419  15.358  0.00  0.00    +0.000 A 
ATOM     16  C   UNL     1       6.128   5.120  14.687  0.00  0.00    +0.000 A 
ATOM     17  C   UNL     1       5.129   5.798  15.401  0.00  0.00    +0.000 A 
ATOM     18  C   UNL     1       5.176   5.733  16.782  0.00  0.00    +0.000 A 
ATOM     19  H   UNL     1       3.918   8.099  16.753  0.00  0.00    +0.000 HD
ENDBRANCH   4   7
BRANCH   1  21
ATOM     20  O   UNL     1      -0.510   9.557  21.978  0.00  0.00    +0.000 OA
ATOM     21  C   UNL     1      -0.077  10.103  20.971  0.00  0.00    +0.000 C 
ATOM     22  N   UNL     1      -0.375  11.397  20.598  0.00  0.00    +0.000 N 
ATOM     23  H   UNL     1      -0.152  11.697  19.659  0.00  0.00    +0.000 HD
BRANCH  22  24
ATOM     24  C   UNL     1      -1.292  12.215  21.354  0.00  0.00    +0.000 C 
BRANCH  24  25
ATOM     25  C   UNL     1      -2.646  12.299  20.691  0.00  0.00    +0.000 A 
ATOM     26  C   UNL     1      -3.758  12.752  21.415  0.00  0.00    +0.000 A 
ATOM     27  C   UNL     1      -5.011  12.849  20.807  0.00  0.00    +0.000 A 
ATOM     28  C   UNL     1      -5.151  12.482  19.474  0.00  0.00    +0.000 A 
ATOM     29  F   UNL     1      -6.353  12.583  18.888  0.00  0.00    +0.000 F 
ATOM     30  C   UNL     1      -4.068  12.010  18.744  0.00  0.00    +0.000 A 
ATOM     31  C   UNL     1      -2.815  11.914  19.347  0.00  0.00    +0.000 A 
ENDBRANCH  24  25
ENDBRANCH  22  24
ENDBRANCH   1  21
TORSDOF 4
ENDMDL
MODEL 5
REMARK VINA RESULT:      -8.3      1.795      2.542
REMARK  Name = 
REMARK  4 active torsions:
REMARK  status: ('A' for Active; 'I' for Inactive)
REMARK    1  A    between atoms: C_2  and  C_12
REMARK    2  A    between atoms: N_3  and  C_4
REMARK    3  A    between atoms: C_4  and  C_5
REMARK    4  A    between atoms: C_15  and  N_16
REMARK                            x       y       z     vdW  Elec       q    Type
REMARK                         _______ _______ _______ _____ _____    ______ ____
ROOT
ATOM      1  C   UNL     1      -0.088  10.358  21.461  0.00  0.00    +0.000 A 
ATOM      2  C   UNL     1       0.604   9.401  22.209  0.00  0.00    +0.000 A 
ATOM      3  C   UNL     1       1.421   8.463  21.568  0.00  0.00    +0.000 A 
ATOM      4  C   UNL     1       1.555   8.469  20.171  0.00  0.00    +0.000 A 
ATOM      5  C   UNL     1       0.915   9.483  19.445  0.00  0.00    +0.000 A 
ATOM      6  C   UNL     1       0.100  10.421  20.078  0.00  0.00    +0.000 A 
ENDROOT
BRANCH   4   7
ATOM      7  N   UNL     1       2.320   7.477  19.522  0.00  0.00    +0.000 N 
ATOM      8  C   UNL     1       2.151   6.122  19.740  0.00  0.00    +0.000 C 
ATOM      9  N   UNL     1       1.443   5.585  20.692  0.00  0.00    +0.000 NA
ATOM     10  S   UNL     1       1.647   3.962  20.748  0.00  0.00    +0.000 S 
ATOM     11  O   UNL     1       0.444   3.290  20.295  0.00  0.00    +0.000 OA
ATOM     12  O   UNL     1       2.350   3.582  21.952  0.00  0.00    +0.000 OA
ATOM     13  C   UNL     1       2.794   3.894  19.446  0.00  0.00    +0.000 A 
ATOM     14  C   UNL     1       3.506   2.806  18.983  0.00  0.00    +0.000 A 
ATOM     15  C   UNL     1       4.284   3.008  17.843  0.00  0.00    +0.000 A 
ATOM     16  C   UNL     1       4.297   4.259  17.195  0.00  0.00    +0.000 A 
ATOM     17  C   UNL     1       3.603   5.355  17.727  0.00  0.00    +0.000 A 
ATOM     18  C   UNL     1       2.892   5.153  18.896  0.00  0.00    +0.000 A 
ATOM     19  H   UNL     1       3.282   7.762  19.367  0.00  0.00    +0.000 HD
ENDBRANCH   4   7
BRANCH   1  21
ATOM     20  O   UNL     1      -1.336  11.089  23.319  0.00  0.00    +0.000 OA
ATOM     21  C   UNL     1      -1.018  11.289  22.153  0.00  0.00    +0.000 C 
ATOM     22  N   UNL     1      -1.506  12.321  21.380  0.00  0.00    +0.000 N 
ATOM     23  H   UNL     1      -1.360  12.292  20.381  0.00  0.00    +0.000 HD
BRANCH  22  24
ATOM     24  C   UNL     1      -2.500  13.241  21.877  0.00  0.00    +0.000 C 
BRANCH  24  25
ATOM     25  C   UNL     1      -3.881  12.900  21.372  0.00  0.00    +0.000 A 
ATOM     26  C   UNL     1      -4.974  12.904  22.251  0.00  0.00    +0.000 A 
ATOM     27  C   UNL     1      -6.258  12.606  21.791  0.00  0.00    +0.000 A 
ATOM     28  C   UNL     1      -6.445  12.293  20.450  0.00  0.00    +0.000 A 
ATOM     29  F   UNL     1      -7.680  12.015  20.007  0.00  0.00    +0.000 F 
ATOM     30  C   UNL     1      -5.374  12.261  19.566  0.00  0.00    +0.000 A 
ATOM     31  C   UNL     1      -4.092  12.561  20.021  0.00  0.00    +0.000 A 
ENDBRANCH  24  25
ENDBRANCH  22  24
ENDBRANCH   1  21
TORSDOF 4
ENDMDL
MODEL 6
REMARK VINA RESULT:      -8.3      1.868      2.302
REMARK  Name = 
REMARK  4 active torsions:
REMARK  status: ('A' for Active; 'I' for Inactive)
REMARK    1  A    between atoms: C_2  and  C_12
REMARK    2  A    between atoms: N_3  and  C_4
REMARK    3  A    between atoms: C_4  and  C_5
REMARK    4  A    between atoms: C_15  and  N_16
REMARK                            x       y       z     vdW  Elec       q    Type
REMARK                         _______ _______ _______ _____ _____    ______ ____
ROOT
ATOM      1  C   UNL     1      -0.125  10.365  21.515  0.00  0.00    +0.000 A 
ATOM      2  C   UNL     1       0.042  10.358  20.127  0.00  0.00    +0.000 A 
ATOM      3  C   UNL     1       0.839   9.380  19.520  0.00  0.00    +0.000 A 
ATOM      4  C   UNL     1       1.480   8.399  20.293  0.00  0.00    +0.000 A 
ATOM      5  C   UNL     1       1.239   8.377  21.673  0.00  0.00    +0.000 A 
ATOM      6  C   UNL     1       0.446   9.347  22.284  0.00  0.00    +0.000 A 
ENDROOT
BRANCH   4   7
ATOM      7  N   UNL     1       2.342   7.461  19.685  0.00  0.00    +0.000 N 
ATOM      8  C   UNL     1       2.209   6.093  19.840  0.00  0.00    +0.000 C 
ATOM      9  N   UNL     1       1.437   5.495  20.703  0.00  0.00    +0.000 NA
ATOM     10  S   UNL     1       1.701   3.881  20.722  0.00  0.00    +0.000 S 
ATOM     11  O   UNL     1       0.573   3.182  20.136  0.00  0.00    +0.000 OA
ATOM     12  O   UNL     1       2.303   3.481  21.974  0.00  0.00    +0.000 OA
ATOM     13  C   UNL     1       2.965   3.903  19.532  0.00  0.00    +0.000 A 
ATOM     14  C   UNL     1       3.761   2.861  19.103  0.00  0.00    +0.000 A 
ATOM     15  C   UNL     1       4.632   3.134  18.049  0.00  0.00    +0.000 A 
ATOM     16  C   UNL     1       4.655   4.408  17.447  0.00  0.00    +0.000 A 
ATOM     17  C   UNL     1       3.871   5.457  17.948  0.00  0.00    +0.000 A 
ATOM     18  C   UNL     1       3.063   5.185  19.038  0.00  0.00    +0.000 A 
ATOM     19  H   UNL     1       3.302   7.787  19.632  0.00  0.00    +0.000 HD
ENDBRANCH   4   7
BRANCH   1  21
ATOM     20  O   UNL     1      -1.032  11.504  23.365  0.00  0.00    +0.000 OA
ATOM     21  C   UNL     1      -0.903  11.462  22.148  0.00  0.00    +0.000 C 
ATOM     22  N   UNL     1      -1.480  12.357  21.273  0.00  0.00    +0.000 N 
ATOM     23  H   UNL     1      -1.500  12.133  20.288  0.00  0.00    +0.000 HD
BRANCH  22  24
ATOM     24  C   UNL     1      -2.354  13.412  21.728  0.00  0.00    +0.000 C 
BRANCH  24  25
ATOM     25  C   UNL     1      -3.804  13.095  21.454  0.00  0.00    +0.000 A 
ATOM     26  C   UNL     1      -4.211  12.718  20.165  0.00  0.00    +0.000 A 
ATOM     27  C   UNL     1      -5.547  12.407  19.904  0.00  0.00    +0.000 A 
ATOM     28  C   UNL     1      -6.478  12.486  20.933  0.00  0.00    +0.000 A 
ATOM     29  F   UNL     1      -7.759  12.179  20.683  0.00  0.00    +0.000 F 
ATOM     30  C   UNL     1      -6.101  12.878  22.211  0.00  0.00    +0.000 A 
ATOM     31  C   UNL     1      -4.768  13.186  22.476  0.00  0.00    +0.000 A 
ENDBRANCH  24  25
ENDBRANCH  22  24
ENDBRANCH   1  21
TORSDOF 4
ENDMDL
MODEL 7
REMARK VINA RESULT:      -8.3      4.696     10.492
REMARK  Name = 
REMARK  4 active torsions:
REMARK  status: ('A' for Active; 'I' for Inactive)
REMARK    1  A    between atoms: C_2  and  C_12
REMARK    2  A    between atoms: N_3  and  C_4
REMARK    3  A    between atoms: C_4  and  C_5
REMARK    4  A    between atoms: C_15  and  N_16
REMARK                            x       y       z     vdW  Elec       q    Type
REMARK                         _______ _______ _______ _____ _____    ______ ____
ROOT
ATOM      1  C   UNL     1       1.053   9.015  20.247  0.00  0.00    +0.000 A 
ATOM      2  C   UNL     1       1.111   8.892  21.639  0.00  0.00    +0.000 A 
ATOM      3  C   UNL     1       0.395   9.776  22.453  0.00  0.00    +0.000 A 
ATOM      4  C   UNL     1      -0.387  10.795  21.887  0.00  0.00    +0.000 A 
ATOM      5  C   UNL     1      -0.495  10.855  20.491  0.00  0.00    +0.000 A 
ATOM      6  C   UNL     1       0.215   9.976  19.674  0.00  0.00    +0.000 A 
ENDROOT
BRANCH   4   7
ATOM      7  N   UNL     1      -1.049  11.730  22.712  0.00  0.00    +0.000 N 
ATOM      8  C   UNL     1      -0.812  13.092  22.661  0.00  0.00    +0.000 C 
ATOM      9  N   UNL     1       0.167  13.672  22.027  0.00  0.00    +0.000 NA
ATOM     10  S   UNL     1       0.233  15.272  22.364  0.00  0.00    +0.000 S 
ATOM     11  O   UNL     1      -0.176  16.045  21.208  0.00  0.00    +0.000 OA
ATOM     12  O   UNL     1       1.420  15.579  23.130  0.00  0.00    +0.000 OA
ATOM     13  C   UNL     1      -1.102  15.264  23.474  0.00  0.00    +0.000 A 
ATOM     14  C   UNL     1      -1.574  16.296  24.260  0.00  0.00    +0.000 A 
ATOM     15  C   UNL     1      -2.739  16.046  24.985  0.00  0.00    +0.000 A 
ATOM     16  C   UNL     1      -3.400  14.806  24.877  0.00  0.00    +0.000 A 
ATOM     17  C   UNL     1      -2.859  13.764  24.111  0.00  0.00    +0.000 A 
ATOM     18  C   UNL     1      -1.667  14.008  23.453  0.00  0.00    +0.000 A 
ATOM     19  H   UNL     1      -1.235  11.370  23.642  0.00  0.00    +0.000 HD
ENDBRANCH   4   7
BRANCH   1  21
ATOM     20  O   UNL     1       1.913   8.268  18.187  0.00  0.00    +0.000 OA
ATOM     21  C   UNL     1       1.889   8.122  19.403  0.00  0.00    +0.000 C 
ATOM     22  N   UNL     1       2.565   7.130  20.081  0.00  0.00    +0.000 N 
ATOM     23  H   UNL     1       2.328   6.951  21.047  0.00  0.00    +0.000 HD
BRANCH  22  24
ATOM     24  C   UNL     1       3.330   6.120  19.390  0.00  0.00    +0.000 C 
BRANCH  24  25
ATOM     25  C   UNL     1       2.527   4.861  19.172  0.00  0.00    +0.000 A 
ATOM     26  C   UNL     1       1.576   4.459  20.121  0.00  0.00    +0.000 A 
ATOM     27  C   UNL     1       0.816   3.305  19.922  0.00  0.00    +0.000 A 
ATOM     28  C   UNL     1       1.018   2.546  18.775  0.00  0.00    +0.000 A 
ATOM     29  F   UNL     1       0.282   1.443  18.579  0.00  0.00    +0.000 F 
ATOM     30  C   UNL     1       1.970   2.914  17.832  0.00  0.00    +0.000 A 
ATOM     31  C   UNL     1       2.728   4.067  18.027  0.00  0.00    +0.000 A 
ENDBRANCH  24  25
ENDBRANCH  22  24
ENDBRANCH   1  21
TORSDOF 4
ENDMDL
MODEL 8
REMARK VINA RESULT:      -8.2      4.123     10.115
REMARK  Name = 
REMARK  4 active torsions:
REMARK  status: ('A' for Active; 'I' for Inactive)
REMARK    1  A    between atoms: C_2  and  C_12
REMARK    2  A    between atoms: N_3  and  C_4
REMARK    3  A    between atoms: C_4  and  C_5
REMARK    4  A    between atoms: C_15  and  N_16
REMARK                            x       y       z     vdW  Elec       q    Type
REMARK                         _______ _______ _______ _____ _____    ______ ____
ROOT
ATOM      1  C   UNL     1       0.757   9.766  19.064  0.00  0.00    +0.000 A 
ATOM      2  C   UNL     1       0.206  10.648  18.129  0.00  0.00    +0.000 A 
ATOM      3  C   UNL     1      -0.821  11.520  18.507  0.00  0.00    +0.000 A 
ATOM      4  C   UNL     1      -1.313  11.519  19.821  0.00  0.00    +0.000 A 
ATOM      5  C   UNL     1      -0.697  10.683  20.761  0.00  0.00    +0.000 A 
ATOM      6  C   UNL     1       0.329   9.813  20.393  0.00  0.00    +0.000 A 
ENDROOT
BRANCH   4   7
ATOM      7  N   UNL     1      -2.399  12.347  20.179  0.00  0.00    +0.000 N 
ATOM      8  C   UNL     1      -3.664  12.219  19.635  0.00  0.00    +0.000 C 
ATOM      9  N   UNL     1      -3.980  11.493  18.601  0.00  0.00    +0.000 NA
ATOM     10  S   UNL     1      -5.527  11.755  18.137  0.00  0.00    +0.000 S 
ATOM     11  O   UNL     1      -6.345  10.597  18.443  0.00  0.00    +0.000 OA
ATOM     12  O   UNL     1      -5.565  12.422  16.855  0.00  0.00    +0.000 OA
ATOM     13  C   UNL     1      -5.863  12.955  19.345  0.00  0.00    +0.000 A 
ATOM     14  C   UNL     1      -6.998  13.726  19.500  0.00  0.00    +0.000 A 
ATOM     15  C   UNL     1      -7.049  14.541  20.630  0.00  0.00    +0.000 A 
ATOM     16  C   UNL     1      -5.999  14.534  21.570  0.00  0.00    +0.000 A 
ATOM     17  C   UNL     1      -4.838  13.779  21.349  0.00  0.00    +0.000 A 
ATOM     18  C   UNL     1      -4.776  13.029  20.188  0.00  0.00    +0.000 A 
ATOM     19  H   UNL     1      -2.117  13.303  20.371  0.00  0.00    +0.000 HD
ENDBRANCH   4   7
BRANCH   1  21
ATOM     20  O   UNL     1       2.238   8.841  17.484  0.00  0.00    +0.000 OA
ATOM     21  C   UNL     1       1.786   8.789  18.621  0.00  0.00    +0.000 C 
ATOM     22  N   UNL     1       2.131   7.832  19.552  0.00  0.00    +0.000 N 
ATOM     23  H   UNL     1       1.565   7.733  20.383  0.00  0.00    +0.000 HD
BRANCH  22  24
ATOM     24  C   UNL     1       3.034   6.751  19.236  0.00  0.00    +0.000 C 
BRANCH  24  25
ATOM     25  C   UNL     1       2.306   5.436  19.095  0.00  0.00    +0.000 A 
ATOM     26  C   UNL     1       1.660   4.867  20.203  0.00  0.00    +0.000 A 
ATOM     27  C   UNL     1       0.970   3.660  20.080  0.00  0.00    +0.000 A 
ATOM     28  C   UNL     1       0.937   3.016  18.849  0.00  0.00    +0.000 A 
ATOM     29  F   UNL     1       0.267   1.861  18.730  0.00  0.00    +0.000 F 
ATOM     30  C   UNL     1       1.588   3.551  17.744  0.00  0.00    +0.000 A 
ATOM     31  C   UNL     1       2.275   4.758  17.862  0.00  0.00    +0.000 A 
ENDBRANCH  24  25
ENDBRANCH  22  24
ENDBRANCH   1  21
TORSDOF 4
ENDMDL
MODEL 9
REMARK VINA RESULT:      -8.2      1.235      1.443
REMARK  Name = 
REMARK  4 active torsions:
REMARK  status: ('A' for Active; 'I' for Inactive)
REMARK    1  A    between atoms: C_2  and  C_12
REMARK    2  A    between atoms: N_3  and  C_4
REMARK    3  A    between atoms: C_4  and  C_5
REMARK    4  A    between atoms: C_15  and  N_16
REMARK                            x       y       z     vdW  Elec       q    Type
REMARK                         _______ _______ _______ _____ _____    ______ ____
ROOT
ATOM      1  C   UNL     1       0.123   9.867  21.362  0.00  0.00    +0.000 A 
ATOM      2  C   UNL     1       0.253  10.219  20.015  0.00  0.00    +0.000 A 
ATOM      3  C   UNL     1       1.117   9.499  19.182  0.00  0.00    +0.000 A 
ATOM      4  C   UNL     1       1.863   8.423  19.685  0.00  0.00    +0.000 A 
ATOM      5  C   UNL     1       1.662   8.038  21.017  0.00  0.00    +0.000 A 
ATOM      6  C   UNL     1       0.802   8.749  21.852  0.00  0.00    +0.000 A 
ENDROOT
BRANCH   4   7
ATOM      7  N   UNL     1       2.789   7.747  18.860  0.00  0.00    +0.000 N 
ATOM      8  C   UNL     1       2.685   6.406  18.538  0.00  0.00    +0.000 C 
ATOM      9  N   UNL     1       1.876   5.549  19.094  0.00  0.00    +0.000 NA
ATOM     10  S   UNL     1       2.184   4.023  18.590  0.00  0.00    +0.000 S 
ATOM     11  O   UNL     1       1.117   3.557  17.726  0.00  0.00    +0.000 OA
ATOM     12  O   UNL     1       2.715   3.229  19.675  0.00  0.00    +0.000 OA
ATOM     13  C   UNL     1       3.521   4.451  17.569  0.00  0.00    +0.000 A 
ATOM     14  C   UNL     1       4.372   3.618  16.872  0.00  0.00    +0.000 A 
ATOM     15  C   UNL     1       5.302   4.234  16.035  0.00  0.00    +0.000 A 
ATOM     16  C   UNL     1       5.328   5.636  15.897  0.00  0.00    +0.000 A 
ATOM     17  C   UNL     1       4.483   6.451  16.664  0.00  0.00    +0.000 A 
ATOM     18  C   UNL     1       3.614   5.825  17.541  0.00  0.00    +0.000 A 
ATOM     19  H   UNL     1       3.740   8.077  18.987  0.00  0.00    +0.000 HD
ENDBRANCH   4   7
BRANCH   1  21
ATOM     20  O   UNL     1      -0.746  10.496  23.458  0.00  0.00    +0.000 OA
ATOM     21  C   UNL     1      -0.733  10.697  22.250  0.00  0.00    +0.000 C 
ATOM     22  N   UNL     1      -1.512  11.638  21.610  0.00  0.00    +0.000 N 
ATOM     23  H   UNL     1      -1.597  11.597  20.604  0.00  0.00    +0.000 HD
BRANCH  22  24
ATOM     24  C   UNL     1      -2.473  12.444  22.323  0.00  0.00    +0.000 C 
BRANCH  24  25
ATOM     25  C   UNL     1      -3.753  12.612  21.540  0.00  0.00    +0.000 A 
ATOM     26  C   UNL     1      -3.747  12.481  20.144  0.00  0.00    +0.000 A 
ATOM     27  C   UNL     1      -4.928  12.618  19.412  0.00  0.00    +0.000 A 
ATOM     28  C   UNL     1      -6.114  12.898  20.079  0.00  0.00    +0.000 A 
ATOM     29  F   UNL     1      -7.250  13.021  19.377  0.00  0.00    +0.000 F 
ATOM     30  C   UNL     1      -6.140  13.054  21.459  0.00  0.00    +0.000 A 
ATOM     31  C   UNL     1      -4.963  12.915  22.194  0.00  0.00    +0.000 A 
ENDBRANCH  24  25
ENDBRANCH  22  24
ENDBRANCH   1  21
TORSDOF 4
ENDMDL
