MODEL 1
REMARK VINA RESULT:      -7.7      0.000      0.000
REMARK  Name = 
REMARK  9 active torsions:
REMARK  status: ('A' for Active; 'I' for Inactive)
REMARK    1  A    between atoms: C_1  and  N_2
REMARK    2  A    between atoms: C_6  and  C_7
REMARK    3  A    between atoms: C_7  and  C_8
REMARK    4  A    between atoms: C_8  and  C_9
REMARK    5  A    between atoms: C_13  and  N_14
REMARK    6  A    between atoms: C_15  and  C_17
REMARK    7  A    between atoms: C_19  and  C_20
REMARK    8  A    between atoms: C_20  and  O_21
REMARK    9  A    between atoms: N_23  and  C_24
REMARK                            x       y       z     vdW  Elec       q    Type
REMARK                         _______ _______ _______ _____ _____    ______ ____
ROOT
ATOM      1  C   UNL     1       1.674   7.094  20.221  0.00  0.00    +0.000 A 
ATOM      2  C   UNL     1       1.184   6.024  20.992  0.00  0.00    +0.000 A 
ATOM      3  C   UNL     1       1.605   4.713  20.788  0.00  0.00    +0.000 A 
ATOM      4  C   UNL     1       2.533   4.430  19.790  0.00  0.00    +0.000 A 
ATOM      5  C   UNL     1       3.047   5.453  19.000  0.00  0.00    +0.000 A 
ATOM      6  C   UNL     1       2.632   6.770  19.233  0.00  0.00    +0.000 A 
ENDROOT
BRANCH   1   7
ATOM      7  C   UNL     1       1.172   8.605  20.461  0.00  0.00    +0.000 C 
ATOM      8  C   UNL     1      -0.200   8.805  21.202  0.00  0.00    +0.000 C 
ATOM      9  C   UNL     1       0.553   9.059  22.512  0.00  0.00    +0.000 C 
ATOM     10  C   UNL     1       1.824   9.328  21.703  0.00  0.00    +0.000 C 
BRANCH   7  11
ATOM     11  C   UNL     1       1.355   9.431  19.167  0.00  0.00    +0.000 C 
BRANCH  11  17
ATOM     12  C   UNL     1      -1.438  10.023  17.729  0.00  0.00    +0.000 C 
ATOM     13  N   UNL     1      -0.589  10.946  18.433  0.00  0.00    +0.000 N 
ATOM     14  C   UNL     1      -0.822  12.286  18.530  0.00  0.00    +0.000 A 
ATOM     15  N   UNL     1       0.127  12.848  19.237  0.00  0.00    +0.000 NA
ATOM     16  N   UNL     1       1.012  11.864  19.597  0.00  0.00    +0.000 NA
ATOM     17  C   UNL     1       0.590  10.714  19.101  0.00  0.00    +0.000 A 
ENDBRANCH  11  17
ENDBRANCH   7  11
ENDBRANCH   1   7
BRANCH   5  18
ATOM     18  N   UNL     1       3.982   5.255  17.962  0.00  0.00    +0.000 N 
ATOM     19  C   UNL     1       5.179   4.567  18.046  0.00  0.00    +0.000 C 
ATOM     20  O   UNL     1       5.558   3.966  19.047  0.00  0.00    +0.000 OA
ATOM     21  H   UNL     1       3.718   5.611  17.050  0.00  0.00    +0.000 HD
BRANCH  19  22
ATOM     22  C   UNL     1       5.983   4.632  16.852  0.00  0.00    +0.000 A 
ATOM     23  C   UNL     1       5.915   3.885  15.687  0.00  0.00    +0.000 A 
ATOM     24  C   UNL     1       6.738   4.552  14.754  0.00  0.00    +0.000 A 
ATOM     25  N   UNL     1       7.374   5.591  15.312  0.00  0.00    +0.000 NA
ATOM     26  N   UNL     1       6.936   5.596  16.593  0.00  0.00    +0.000 N 
BRANCH  26  27
ATOM     27  C   UNL     1       7.446   6.548  17.569  0.00  0.00    +0.000 C 
ATOM     28  C   UNL     1       6.683   7.825  17.868  0.00  0.00    +0.000 C 
ATOM     29  C   UNL     1       8.012   7.905  17.196  0.00  0.00    +0.000 C 
ENDBRANCH  26  27
BRANCH  24  30
ATOM     30  C   UNL     1       6.893   4.245  13.303  0.00  0.00    +0.000 C 
BRANCH  30  31
ATOM     31  O   UNL     1       6.283   3.008  12.946  0.00  0.00    +0.000 OA
ATOM     32  H   UNL     1       5.373   3.248  12.689  0.00  0.00    +0.000 HD
ENDBRANCH  30  31
ENDBRANCH  24  30
ENDBRANCH  19  22
ENDBRANCH   5  18
TORSDOF 8
ENDMDL
MODEL 2
REMARK VINA RESULT:      -7.6      0.793      1.239
REMARK  Name = 
REMARK  9 active torsions:
REMARK  status: ('A' for Active; 'I' for Inactive)
REMARK    1  A    between atoms: C_1  and  N_2
REMARK    2  A    between atoms: C_6  and  C_7
REMARK    3  A    between atoms: C_7  and  C_8
REMARK    4  A    between atoms: C_8  and  C_9
REMARK    5  A    between atoms: C_13  and  N_14
REMARK    6  A    between atoms: C_15  and  C_17
REMARK    7  A    between atoms: C_19  and  C_20
REMARK    8  A    between atoms: C_20  and  O_21
REMARK    9  A    between atoms: N_23  and  C_24
REMARK                            x       y       z     vdW  Elec       q    Type
REMARK                         _______ _______ _______ _____ _____    ______ ____
ROOT
ATOM      1  C   UNL     1       1.660   7.156  20.266  0.00  0.00    +0.000 A 
ATOM      2  C   UNL     1       1.154   6.061  20.990  0.00  0.00    +0.000 A 
ATOM      3  C   UNL     1       1.594   4.760  20.764  0.00  0.00    +0.000 A 
ATOM      4  C   UNL     1       2.559   4.512  19.792  0.00  0.00    +0.000 A 
ATOM      5  C   UNL     1       3.089   5.562  19.048  0.00  0.00    +0.000 A 
ATOM      6  C   UNL     1       2.654   6.868  19.303  0.00  0.00    +0.000 A 
ENDROOT
BRANCH   1   7
ATOM      7  C   UNL     1       1.136   8.655  20.530  0.00  0.00    +0.000 C 
ATOM      8  C   UNL     1      -0.277   8.823  21.199  0.00  0.00    +0.000 C 
ATOM      9  C   UNL     1       0.401   9.035  22.558  0.00  0.00    +0.000 C 
ATOM     10  C   UNL     1       1.713   9.337  21.831  0.00  0.00    +0.000 C 
BRANCH   7  11
ATOM     11  C   UNL     1       1.386   9.528  19.278  0.00  0.00    +0.000 C 
BRANCH  11  17
ATOM     12  C   UNL     1       0.643  12.484  20.239  0.00  0.00    +0.000 C 
ATOM     13  N   UNL     1      -0.074  11.644  19.317  0.00  0.00    +0.000 N 
ATOM     14  C   UNL     1      -1.271  11.969  18.750  0.00  0.00    +0.000 A 
ATOM     15  N   UNL     1      -1.660  11.001  17.957  0.00  0.00    +0.000 NA
ATOM     16  N   UNL     1      -0.710  10.013  18.016  0.00  0.00    +0.000 NA
ATOM     17  C   UNL     1       0.243  10.391  18.848  0.00  0.00    +0.000 A 
ENDBRANCH  11  17
ENDBRANCH   7  11
ENDBRANCH   1   7
BRANCH   5  18
ATOM     18  N   UNL     1       4.060   5.400  18.038  0.00  0.00    +0.000 N 
ATOM     19  C   UNL     1       5.240   4.685  18.130  0.00  0.00    +0.000 C 
ATOM     20  O   UNL     1       5.568   4.022  19.110  0.00  0.00    +0.000 OA
ATOM     21  H   UNL     1       3.839   5.810  17.137  0.00  0.00    +0.000 HD
BRANCH  19  22
ATOM     22  C   UNL     1       6.092   4.797  16.973  0.00  0.00    +0.000 A 
ATOM     23  C   UNL     1       6.118   4.051  15.806  0.00  0.00    +0.000 A 
ATOM     24  C   UNL     1       6.943   4.765  14.911  0.00  0.00    +0.000 A 
ATOM     25  N   UNL     1       7.496   5.835  15.497  0.00  0.00    +0.000 NA
ATOM     26  N   UNL     1       7.002   5.812  16.757  0.00  0.00    +0.000 N 
BRANCH  26  27
ATOM     27  C   UNL     1       7.414   6.788  17.756  0.00  0.00    +0.000 C 
ATOM     28  C   UNL     1       6.747   8.149  17.823  0.00  0.00    +0.000 C 
ATOM     29  C   UNL     1       8.180   8.054  17.420  0.00  0.00    +0.000 C 
ENDBRANCH  26  27
BRANCH  24  30
ATOM     30  C   UNL     1       7.180   4.471  13.468  0.00  0.00    +0.000 C 
BRANCH  30  31
ATOM     31  O   UNL     1       7.942   5.491  12.829  0.00  0.00    +0.000 OA
ATOM     32  H   UNL     1       8.464   5.895  13.549  0.00  0.00    +0.000 HD
ENDBRANCH  30  31
ENDBRANCH  24  30
ENDBRANCH  19  22
ENDBRANCH   5  18
TORSDOF 8
ENDMDL
MODEL 3
REMARK VINA RESULT:      -7.6      2.966      5.565
REMARK  Name = 
REMARK  9 active torsions:
REMARK  status: ('A' for Active; 'I' for Inactive)
REMARK    1  A    between atoms: C_1  and  N_2
REMARK    2  A    between atoms: C_6  and  C_7
REMARK    3  A    between atoms: C_7  and  C_8
REMARK    4  A    between atoms: C_8  and  C_9
REMARK    5  A    between atoms: C_13  and  N_14
REMARK    6  A    between atoms: C_15  and  C_17
REMARK    7  A    between atoms: C_19  and  C_20
REMARK    8  A    between atoms: C_20  and  O_21
REMARK    9  A    between atoms: N_23  and  C_24
REMARK                            x       y       z     vdW  Elec       q    Type
REMARK                         _______ _______ _______ _____ _____    ______ ____
ROOT
ATOM      1  C   UNL     1      -1.354  10.471  17.790  0.00  0.00    +0.000 A 
ATOM      2  C   UNL     1      -0.976  11.502  18.671  0.00  0.00    +0.000 A 
ATOM      3  C   UNL     1       0.297  11.566  19.230  0.00  0.00    +0.000 A 
ATOM      4  C   UNL     1       1.237  10.586  18.926  0.00  0.00    +0.000 A 
ATOM      5  C   UNL     1       0.912   9.545  18.062  0.00  0.00    +0.000 A 
ATOM      6  C   UNL     1      -0.366   9.508  17.489  0.00  0.00    +0.000 A 
ENDROOT
BRANCH   1   7
ATOM      7  C   UNL     1      -2.833  10.404  17.157  0.00  0.00    +0.000 C 
ATOM      8  C   UNL     1      -3.210  11.484  16.078  0.00  0.00    +0.000 C 
ATOM      9  C   UNL     1      -2.907  10.470  14.969  0.00  0.00    +0.000 C 
ATOM     10  C   UNL     1      -3.010   9.344  16.002  0.00  0.00    +0.000 C 
BRANCH   7  11
ATOM     11  C   UNL     1      -3.876  10.195  18.279  0.00  0.00    +0.000 C 
BRANCH  11  17
ATOM     12  C   UNL     1      -4.037  12.767  20.170  0.00  0.00    +0.000 C 
ATOM     13  N   UNL     1      -5.015  12.298  19.224  0.00  0.00    +0.000 N 
ATOM     14  C   UNL     1      -6.243  12.862  19.042  0.00  0.00    +0.000 A 
ATOM     15  N   UNL     1      -6.893  12.210  18.111  0.00  0.00    +0.000 NA
ATOM     16  N   UNL     1      -6.086  11.185  17.684  0.00  0.00    +0.000 NA
ATOM     17  C   UNL     1      -4.955  11.226  18.365  0.00  0.00    +0.000 A 
ENDBRANCH  11  17
ENDBRANCH   7  11
ENDBRANCH   1   7
BRANCH   5  18
ATOM     18  N   UNL     1       1.798   8.506  17.709  0.00  0.00    +0.000 N 
ATOM     19  C   UNL     1       2.401   7.604  18.567  0.00  0.00    +0.000 C 
ATOM     20  O   UNL     1       2.179   7.549  19.773  0.00  0.00    +0.000 OA
ATOM     21  H   UNL     1       1.966   8.381  16.717  0.00  0.00    +0.000 HD
BRANCH  19  22
ATOM     22  C   UNL     1       3.352   6.729  17.932  0.00  0.00    +0.000 A 
ATOM     23  C   UNL     1       4.654   6.968  17.523  0.00  0.00    +0.000 A 
ATOM     24  C   UNL     1       5.205   5.701  17.232  0.00  0.00    +0.000 A 
ATOM     25  N   UNL     1       4.290   4.729  17.340  0.00  0.00    +0.000 NA
ATOM     26  N   UNL     1       3.165   5.376  17.723  0.00  0.00    +0.000 N 
BRANCH  26  27
ATOM     27  C   UNL     1       1.901   4.675  17.891  0.00  0.00    +0.000 C 
ATOM     28  C   UNL     1       1.543   4.044  19.224  0.00  0.00    +0.000 C 
ATOM     29  C   UNL     1       1.795   3.169  18.043  0.00  0.00    +0.000 C 
ENDBRANCH  26  27
BRANCH  24  30
ATOM     30  C   UNL     1       6.625   5.387  16.896  0.00  0.00    +0.000 C 
BRANCH  30  31
ATOM     31  O   UNL     1       6.960   5.771  15.565  0.00  0.00    +0.000 OA
ATOM     32  H   UNL     1       6.100   5.850  15.109  0.00  0.00    +0.000 HD
ENDBRANCH  30  31
ENDBRANCH  24  30
ENDBRANCH  19  22
ENDBRANCH   5  18
TORSDOF 8
ENDMDL
MODEL 4
REMARK VINA RESULT:      -7.5      2.580      4.831
REMARK  Name = 
REMARK  9 active torsions:
REMARK  status: ('A' for Active; 'I' for Inactive)
REMARK    1  A    between atoms: C_1  and  N_2
REMARK    2  A    between atoms: C_6  and  C_7
REMARK    3  A    between atoms: C_7  and  C_8
REMARK    4  A    between atoms: C_8  and  C_9
REMARK    5  A    between atoms: C_13  and  N_14
REMARK    6  A    between atoms: C_15  and  C_17
REMARK    7  A    between atoms: C_19  and  C_20
REMARK    8  A    between atoms: C_20  and  O_21
REMARK    9  A    between atoms: N_23  and  C_24
REMARK                            x       y       z     vdW  Elec       q    Type
REMARK                         _______ _______ _______ _____ _____    ______ ____
ROOT
ATOM      1  C   UNL     1      -0.503  10.270  20.333  0.00  0.00    +0.000 A 
ATOM      2  C   UNL     1      -0.510  10.494  21.722  0.00  0.00    +0.000 A 
ATOM      3  C   UNL     1       0.338   9.806  22.585  0.00  0.00    +0.000 A 
ATOM      4  C   UNL     1       1.225   8.860  22.079  0.00  0.00    +0.000 A 
ATOM      5  C   UNL     1       1.270   8.602  20.712  0.00  0.00    +0.000 A 
ATOM      6  C   UNL     1       0.426   9.319  19.854  0.00  0.00    +0.000 A 
ENDROOT
BRANCH   1   7
ATOM      7  C   UNL     1      -1.496  11.066  19.346  0.00  0.00    +0.000 C 
ATOM      8  C   UNL     1      -2.180  12.369  19.900  0.00  0.00    +0.000 C 
ATOM      9  C   UNL     1      -1.118  13.218  19.191  0.00  0.00    +0.000 C 
ATOM     10  C   UNL     1      -0.778  12.014  18.309  0.00  0.00    +0.000 C 
BRANCH   7  11
ATOM     11  C   UNL     1      -2.443  10.069  18.638  0.00  0.00    +0.000 C 
BRANCH  11  17
ATOM     12  C   UNL     1      -4.844  11.819  17.460  0.00  0.00    +0.000 C 
ATOM     13  N   UNL     1      -3.832  11.098  16.735  0.00  0.00    +0.000 N 
ATOM     14  C   UNL     1      -3.791  10.985  15.376  0.00  0.00    +0.000 A 
ATOM     15  N   UNL     1      -2.750  10.272  15.025  0.00  0.00    +0.000 NA
ATOM     16  N   UNL     1      -2.103   9.892  16.174  0.00  0.00    +0.000 NA
ATOM     17  C   UNL     1      -2.762  10.377  17.211  0.00  0.00    +0.000 A 
ENDBRANCH  11  17
ENDBRANCH   7  11
ENDBRANCH   1   7
BRANCH   5  18
ATOM     18  N   UNL     1       2.128   7.655  20.116  0.00  0.00    +0.000 N 
ATOM     19  C   UNL     1       2.354   7.478  18.763  0.00  0.00    +0.000 C 
ATOM     20  O   UNL     1       1.874   8.190  17.886  0.00  0.00    +0.000 OA
ATOM     21  H   UNL     1       2.672   7.083  20.753  0.00  0.00    +0.000 HD
BRANCH  19  22
ATOM     22  C   UNL     1       3.194   6.351  18.446  0.00  0.00    +0.000 A 
ATOM     23  C   UNL     1       4.499   6.310  17.985  0.00  0.00    +0.000 A 
ATOM     24  C   UNL     1       4.914   4.968  18.120  0.00  0.00    +0.000 A 
ATOM     25  N   UNL     1       3.911   4.181  18.536  0.00  0.00    +0.000 NA
ATOM     26  N   UNL     1       2.868   5.030  18.686  0.00  0.00    +0.000 N 
BRANCH  26  27
ATOM     27  C   UNL     1       1.547   4.554  19.070  0.00  0.00    +0.000 C 
ATOM     28  C   UNL     1       1.264   4.145  20.503  0.00  0.00    +0.000 C 
ATOM     29  C   UNL     1       1.251   3.110  19.429  0.00  0.00    +0.000 C 
ENDBRANCH  26  27
BRANCH  24  30
ATOM     30  C   UNL     1       6.284   4.418  17.906  0.00  0.00    +0.000 C 
BRANCH  30  31
ATOM     31  O   UNL     1       6.434   3.835  16.615  0.00  0.00    +0.000 OA
ATOM     32  H   UNL     1       6.643   4.587  16.029  0.00  0.00    +0.000 HD
ENDBRANCH  30  31
ENDBRANCH  24  30
ENDBRANCH  19  22
ENDBRANCH   5  18
TORSDOF 8
ENDMDL
MODEL 5
REMARK VINA RESULT:      -7.4      5.226      8.229
REMARK  Name = 
REMARK  9 active torsions:
REMARK  status: ('A' for Active; 'I' for Inactive)
REMARK    1  A    between atoms: C_1  and  N_2
REMARK    2  A    between atoms: C_6  and  C_7
REMARK    3  A    between atoms: C_7  and  C_8
REMARK    4  A    between atoms: C_8  and  C_9
REMARK    5  A    between atoms: C_13  and  N_14
REMARK    6  A    between atoms: C_15  and  C_17
REMARK    7  A    between atoms: C_19  and  C_20
REMARK    8  A    between atoms: C_20  and  O_21
REMARK    9  A    between atoms: N_23  and  C_24
REMARK                            x       y       z     vdW  Elec       q    Type
REMARK                         _______ _______ _______ _____ _____    ______ ____
ROOT
ATOM      1  C   UNL     1       6.436   6.094  17.430  0.00  0.00    +0.000 A 
ATOM      2  C   UNL     1       7.210   5.402  18.380  0.00  0.00    +0.000 A 
ATOM      3  C   UNL     1       8.209   6.031  19.117  0.00  0.00    +0.000 A 
ATOM      4  C   UNL     1       8.470   7.384  18.920  0.00  0.00    +0.000 A 
ATOM      5  C   UNL     1       7.733   8.112  17.992  0.00  0.00    +0.000 A 
ATOM      6  C   UNL     1       6.715   7.471  17.274  0.00  0.00    +0.000 A 
ENDROOT
BRANCH   1   7
ATOM      7  C   UNL     1       5.290   5.354  16.576  0.00  0.00    +0.000 C 
ATOM      8  C   UNL     1       5.207   5.675  15.039  0.00  0.00    +0.000 C 
ATOM      9  C   UNL     1       5.983   4.388  14.737  0.00  0.00    +0.000 C 
ATOM     10  C   UNL     1       5.640   3.878  16.139  0.00  0.00    +0.000 C 
BRANCH   7  11
ATOM     11  C   UNL     1       3.946   5.412  17.339  0.00  0.00    +0.000 C 
BRANCH  11  17
ATOM     12  C   UNL     1       4.629   3.410  19.735  0.00  0.00    +0.000 C 
ATOM     13  N   UNL     1       3.672   3.232  18.675  0.00  0.00    +0.000 N 
ATOM     14  C   UNL     1       2.937   2.100  18.483  0.00  0.00    +0.000 A 
ATOM     15  N   UNL     1       2.158   2.252  17.441  0.00  0.00    +0.000 NA
ATOM     16  N   UNL     1       2.397   3.501  16.926  0.00  0.00    +0.000 NA
ATOM     17  C   UNL     1       3.322   4.092  17.661  0.00  0.00    +0.000 A 
ENDBRANCH  11  17
ENDBRANCH   7  11
ENDBRANCH   1   7
BRANCH   5  18
ATOM     18  N   UNL     1       7.937   9.481  17.721  0.00  0.00    +0.000 N 
ATOM     19  C   UNL     1       8.803  10.336  18.381  0.00  0.00    +0.000 C 
ATOM     20  O   UNL     1       9.576   9.982  19.266  0.00  0.00    +0.000 OA
ATOM     21  H   UNL     1       7.433   9.859  16.927  0.00  0.00    +0.000 HD
BRANCH  19  22
ATOM     22  C   UNL     1       8.710  11.711  17.961  0.00  0.00    +0.000 A 
ATOM     23  C   UNL     1       7.598  12.508  17.748  0.00  0.00    +0.000 A 
ATOM     24  C   UNL     1       8.085  13.827  17.630  0.00  0.00    +0.000 A 
ATOM     25  N   UNL     1       9.425  13.861  17.655  0.00  0.00    +0.000 NA
ATOM     26  N   UNL     1       9.784  12.566  17.813  0.00  0.00    +0.000 N 
BRANCH  26  27
ATOM     27  C   UNL     1      11.182  12.158  17.824  0.00  0.00    +0.000 C 
ATOM     28  C   UNL     1      12.099  12.592  18.952  0.00  0.00    +0.000 C 
ATOM     29  C   UNL     1      12.333  13.114  17.575  0.00  0.00    +0.000 C 
ENDBRANCH  26  27
BRANCH  24  30
ATOM     30  C   UNL     1       7.286  15.083  17.542  0.00  0.00    +0.000 C 
BRANCH  30  31
ATOM     31  O   UNL     1       5.886  14.837  17.627  0.00  0.00    +0.000 OA
ATOM     32  H   UNL     1       5.813  14.000  18.124  0.00  0.00    +0.000 HD
ENDBRANCH  30  31
ENDBRANCH  24  30
ENDBRANCH  19  22
ENDBRANCH   5  18
TORSDOF 8
ENDMDL
MODEL 6
REMARK VINA RESULT:      -7.4      2.338      4.439
REMARK  Name = 
REMARK  9 active torsions:
REMARK  status: ('A' for Active; 'I' for Inactive)
REMARK    1  A    between atoms: C_1  and  N_2
REMARK    2  A    between atoms: C_6  and  C_7
REMARK    3  A    between atoms: C_7  and  C_8
REMARK    4  A    between atoms: C_8  and  C_9
REMARK    5  A    between atoms: C_13  and  N_14
REMARK    6  A    between atoms: C_15  and  C_17
REMARK    7  A    between atoms: C_19  and  C_20
REMARK    8  A    between atoms: C_20  and  O_21
REMARK    9  A    between atoms: N_23  and  C_24
REMARK                            x       y       z     vdW  Elec       q    Type
REMARK                         _______ _______ _______ _____ _____    ______ ____
ROOT
ATOM      1  C   UNL     1      -0.402  10.152  19.793  0.00  0.00    +0.000 A 
ATOM      2  C   UNL     1      -0.211  10.189  21.187  0.00  0.00    +0.000 A 
ATOM      3  C   UNL     1       0.780   9.442  21.816  0.00  0.00    +0.000 A 
ATOM      4  C   UNL     1       1.615   8.623  21.063  0.00  0.00    +0.000 A 
ATOM      5  C   UNL     1       1.467   8.551  19.681  0.00  0.00    +0.000 A 
ATOM      6  C   UNL     1       0.480   9.327  19.060  0.00  0.00    +0.000 A 
ENDROOT
BRANCH   1   7
ATOM      7  C   UNL     1      -1.558  11.014  19.078  0.00  0.00    +0.000 C 
ATOM      8  C   UNL     1      -2.177  12.212  19.887  0.00  0.00    +0.000 C 
ATOM      9  C   UNL     1      -1.263  13.184  19.131  0.00  0.00    +0.000 C 
ATOM     10  C   UNL     1      -1.038  12.108  18.066  0.00  0.00    +0.000 C 
BRANCH   7  11
ATOM     11  C   UNL     1      -2.581  10.067  18.408  0.00  0.00    +0.000 C 
BRANCH  11  17
ATOM     12  C   UNL     1      -4.927  11.798  17.097  0.00  0.00    +0.000 C 
ATOM     13  N   UNL     1      -3.904  11.039  16.428  0.00  0.00    +0.000 N 
ATOM     14  C   UNL     1      -3.826  10.875  15.077  0.00  0.00    +0.000 A 
ATOM     15  N   UNL     1      -2.784  10.138  14.782  0.00  0.00    +0.000 NA
ATOM     16  N   UNL     1      -2.174   9.795  15.963  0.00  0.00    +0.000 NA
ATOM     17  C   UNL     1      -2.856  10.325  16.961  0.00  0.00    +0.000 A 
ENDBRANCH  11  17
ENDBRANCH   7  11
ENDBRANCH   1   7
BRANCH   5  18
ATOM     18  N   UNL     1       2.261   7.741  18.843  0.00  0.00    +0.000 N 
ATOM     19  C   UNL     1       2.752   6.481  19.134  0.00  0.00    +0.000 C 
ATOM     20  O   UNL     1       2.494   5.862  20.161  0.00  0.00    +0.000 OA
ATOM     21  H   UNL     1       2.443   8.103  17.914  0.00  0.00    +0.000 HD
BRANCH  19  22
ATOM     22  C   UNL     1       3.634   5.944  18.128  0.00  0.00    +0.000 A 
ATOM     23  C   UNL     1       4.782   6.479  17.567  0.00  0.00    +0.000 A 
ATOM     24  C   UNL     1       5.394   5.423  16.859  0.00  0.00    +0.000 A 
ATOM     25  N   UNL     1       4.637   4.317  16.873  0.00  0.00    +0.000 NA
ATOM     26  N   UNL     1       3.557   4.667  17.610  0.00  0.00    +0.000 N 
BRANCH  26  27
ATOM     27  C   UNL     1       2.444   3.750  17.815  0.00  0.00    +0.000 C 
ATOM     28  C   UNL     1       2.477   2.744  18.949  0.00  0.00    +0.000 C 
ATOM     29  C   UNL     1       2.527   2.261  17.539  0.00  0.00    +0.000 C 
ENDBRANCH  26  27
BRANCH  24  30
ATOM     30  C   UNL     1       6.732   5.430  16.200  0.00  0.00    +0.000 C 
BRANCH  30  31
ATOM     31  O   UNL     1       6.633   5.544  14.783  0.00  0.00    +0.000 OA
ATOM     32  H   UNL     1       6.838   6.480  14.597  0.00  0.00    +0.000 HD
ENDBRANCH  30  31
ENDBRANCH  24  30
ENDBRANCH  19  22
ENDBRANCH   5  18
TORSDOF 8
ENDMDL
MODEL 7
REMARK VINA RESULT:      -7.4      2.548      5.042
REMARK  Name = 
REMARK  9 active torsions:
REMARK  status: ('A' for Active; 'I' for Inactive)
REMARK    1  A    between atoms: C_1  and  N_2
REMARK    2  A    between atoms: C_6  and  C_7
REMARK    3  A    between atoms: C_7  and  C_8
REMARK    4  A    between atoms: C_8  and  C_9
REMARK    5  A    between atoms: C_13  and  N_14
REMARK    6  A    between atoms: C_15  and  C_17
REMARK    7  A    between atoms: C_19  and  C_20
REMARK    8  A    between atoms: C_20  and  O_21
REMARK    9  A    between atoms: N_23  and  C_24
REMARK                            x       y       z     vdW  Elec       q    Type
REMARK                         _______ _______ _______ _____ _____    ______ ____
ROOT
ATOM      1  C   UNL     1       0.346  11.796  18.993  0.00  0.00    +0.000 A 
ATOM      2  C   UNL     1      -1.007  11.688  18.621  0.00  0.00    +0.000 A 
ATOM      3  C   UNL     1      -1.499  10.579  17.939  0.00  0.00    +0.000 A 
ATOM      4  C   UNL     1      -0.642   9.536  17.601  0.00  0.00    +0.000 A 
ATOM      5  C   UNL     1       0.705   9.595  17.945  0.00  0.00    +0.000 A 
ATOM      6  C   UNL     1       1.180  10.708  18.651  0.00  0.00    +0.000 A 
ENDROOT
BRANCH   1   7
ATOM      7  C   UNL     1       0.905  13.089  19.773  0.00  0.00    +0.000 C 
ATOM      8  C   UNL     1       2.456  13.343  19.739  0.00  0.00    +0.000 C 
ATOM      9  C   UNL     1       2.257  14.359  18.609  0.00  0.00    +0.000 C 
ATOM     10  C   UNL     1       0.775  14.447  18.979  0.00  0.00    +0.000 C 
BRANCH   7  11
ATOM     11  C   UNL     1       0.247  13.186  21.169  0.00  0.00    +0.000 C 
BRANCH  11  17
ATOM     12  C   UNL     1      -2.400  12.250  22.697  0.00  0.00    +0.000 C 
ATOM     13  N   UNL     1      -1.164  11.530  22.539  0.00  0.00    +0.000 N 
ATOM     14  C   UNL     1      -0.900  10.320  23.110  0.00  0.00    +0.000 A 
ATOM     15  N   UNL     1       0.304   9.928  22.774  0.00  0.00    +0.000 NA
ATOM     16  N   UNL     1       0.850  10.907  21.983  0.00  0.00    +0.000 NA
ATOM     17  C   UNL     1      -0.028  11.884  21.850  0.00  0.00    +0.000 A 
ENDBRANCH  11  17
ENDBRANCH   7  11
ENDBRANCH   1   7
BRANCH   5  18
ATOM     18  N   UNL     1       1.644   8.591  17.633  0.00  0.00    +0.000 N 
ATOM     19  C   UNL     1       2.274   7.740  18.523  0.00  0.00    +0.000 C 
ATOM     20  O   UNL     1       2.035   7.705  19.727  0.00  0.00    +0.000 OA
ATOM     21  H   UNL     1       1.833   8.448  16.647  0.00  0.00    +0.000 HD
BRANCH  19  22
ATOM     22  C   UNL     1       3.275   6.894  17.925  0.00  0.00    +0.000 A 
ATOM     23  C   UNL     1       4.573   7.181  17.536  0.00  0.00    +0.000 A 
ATOM     24  C   UNL     1       5.184   5.935  17.283  0.00  0.00    +0.000 A 
ATOM     25  N   UNL     1       4.311   4.925  17.396  0.00  0.00    +0.000 NA
ATOM     26  N   UNL     1       3.151   5.531  17.743  0.00  0.00    +0.000 N 
BRANCH  26  27
ATOM     27  C   UNL     1       1.916   4.777  17.903  0.00  0.00    +0.000 C 
ATOM     28  C   UNL     1       1.592   4.103  19.223  0.00  0.00    +0.000 C 
ATOM     29  C   UNL     1       1.868   3.266  18.020  0.00  0.00    +0.000 C 
ENDBRANCH  26  27
BRANCH  24  30
ATOM     30  C   UNL     1       6.622   5.677  16.981  0.00  0.00    +0.000 C 
BRANCH  30  31
ATOM     31  O   UNL     1       6.930   5.892  15.606  0.00  0.00    +0.000 OA
ATOM     32  H   UNL     1       7.226   6.821  15.564  0.00  0.00    +0.000 HD
ENDBRANCH  30  31
ENDBRANCH  24  30
ENDBRANCH  19  22
ENDBRANCH   5  18
TORSDOF 8
ENDMDL
MODEL 8
REMARK VINA RESULT:      -7.3      2.251      4.340
REMARK  Name = 
REMARK  9 active torsions:
REMARK  status: ('A' for Active; 'I' for Inactive)
REMARK    1  A    between atoms: C_1  and  N_2
REMARK    2  A    between atoms: C_6  and  C_7
REMARK    3  A    between atoms: C_7  and  C_8
REMARK    4  A    between atoms: C_8  and  C_9
REMARK    5  A    between atoms: C_13  and  N_14
REMARK    6  A    between atoms: C_15  and  C_17
REMARK    7  A    between atoms: C_19  and  C_20
REMARK    8  A    between atoms: C_20  and  O_21
REMARK    9  A    between atoms: N_23  and  C_24
REMARK                            x       y       z     vdW  Elec       q    Type
REMARK                         _______ _______ _______ _____ _____    ______ ____
ROOT
ATOM      1  C   UNL     1       0.233  10.378  19.902  0.00  0.00    +0.000 A 
ATOM      2  C   UNL     1      -0.100  10.057  21.231  0.00  0.00    +0.000 A 
ATOM      3  C   UNL     1       0.381   8.911  21.856  0.00  0.00    +0.000 A 
ATOM      4  C   UNL     1       1.213   8.038  21.161  0.00  0.00    +0.000 A 
ATOM      5  C   UNL     1       1.570   8.310  19.843  0.00  0.00    +0.000 A 
ATOM      6  C   UNL     1       1.097   9.480  19.236  0.00  0.00    +0.000 A 
ENDROOT
BRANCH   1   7
ATOM      7  C   UNL     1      -0.337  11.703  19.187  0.00  0.00    +0.000 C 
ATOM      8  C   UNL     1      -1.319  11.508  17.974  0.00  0.00    +0.000 C 
ATOM      9  C   UNL     1      -2.510  11.743  18.909  0.00  0.00    +0.000 C 
ATOM     10  C   UNL     1      -1.557  12.380  19.925  0.00  0.00    +0.000 C 
BRANCH   7  11
ATOM     11  C   UNL     1       0.812  12.712  18.955  0.00  0.00    +0.000 C 
BRANCH  11  17
ATOM     12  C   UNL     1       0.193  15.833  19.257  0.00  0.00    +0.000 C 
ATOM     13  N   UNL     1       0.882  14.971  20.180  0.00  0.00    +0.000 N 
ATOM     14  C   UNL     1       1.467  15.393  21.338  0.00  0.00    +0.000 A 
ATOM     15  N   UNL     1       2.006  14.372  21.956  0.00  0.00    +0.000 NA
ATOM     16  N   UNL     1       1.788  13.260  21.184  0.00  0.00    +0.000 NA
ATOM     17  C   UNL     1       1.121  13.619  20.102  0.00  0.00    +0.000 A 
ENDBRANCH  11  17
ENDBRANCH   7  11
ENDBRANCH   1   7
BRANCH   5  18
ATOM     18  N   UNL     1       2.398   7.477  19.063  0.00  0.00    +0.000 N 
ATOM     19  C   UNL     1       2.857   6.216  19.398  0.00  0.00    +0.000 C 
ATOM     20  O   UNL     1       2.534   5.616  20.420  0.00  0.00    +0.000 OA
ATOM     21  H   UNL     1       2.635   7.823  18.139  0.00  0.00    +0.000 HD
BRANCH  19  22
ATOM     22  C   UNL     1       3.784   5.653  18.451  0.00  0.00    +0.000 A 
ATOM     23  C   UNL     1       5.025   6.108  18.034  0.00  0.00    +0.000 A 
ATOM     24  C   UNL     1       5.610   5.038  17.325  0.00  0.00    +0.000 A 
ATOM     25  N   UNL     1       4.763   4.007  17.200  0.00  0.00    +0.000 NA
ATOM     26  N   UNL     1       3.649   4.416  17.851  0.00  0.00    +0.000 N 
BRANCH  26  27
ATOM     27  C   UNL     1       2.446   3.597  17.894  0.00  0.00    +0.000 C 
ATOM     28  C   UNL     1       2.250   2.577  19.000  0.00  0.00    +0.000 C 
ATOM     29  C   UNL     1       2.438   2.109  17.597  0.00  0.00    +0.000 C 
ENDBRANCH  26  27
BRANCH  24  30
ATOM     30  C   UNL     1       7.003   4.956  16.798  0.00  0.00    +0.000 C 
BRANCH  30  31
ATOM     31  O   UNL     1       7.418   6.172  16.183  0.00  0.00    +0.000 OA
ATOM     32  H   UNL     1       6.606   6.533  15.780  0.00  0.00    +0.000 HD
ENDBRANCH  30  31
ENDBRANCH  24  30
ENDBRANCH  19  22
ENDBRANCH   5  18
TORSDOF 8
ENDMDL
MODEL 9
REMARK VINA RESULT:      -7.3      2.677      8.416
REMARK  Name = 
REMARK  9 active torsions:
REMARK  status: ('A' for Active; 'I' for Inactive)
REMARK    1  A    between atoms: C_1  and  N_2
REMARK    2  A    between atoms: C_6  and  C_7
REMARK    3  A    between atoms: C_7  and  C_8
REMARK    4  A    between atoms: C_8  and  C_9
REMARK    5  A    between atoms: C_13  and  N_14
REMARK    6  A    between atoms: C_15  and  C_17
REMARK    7  A    between atoms: C_19  and  C_20
REMARK    8  A    between atoms: C_20  and  O_21
REMARK    9  A    between atoms: N_23  and  C_24
REMARK                            x       y       z     vdW  Elec       q    Type
REMARK                         _______ _______ _______ _____ _____    ______ ____
ROOT
ATOM      1  C   UNL     1       4.572   4.842  17.295  0.00  0.00    +0.000 A 
ATOM      2  C   UNL     1       3.971   3.578  17.448  0.00  0.00    +0.000 A 
ATOM      3  C   UNL     1       2.640   3.434  17.828  0.00  0.00    +0.000 A 
ATOM      4  C   UNL     1       1.863   4.562  18.075  0.00  0.00    +0.000 A 
ATOM      5  C   UNL     1       2.411   5.834  17.939  0.00  0.00    +0.000 A 
ATOM      6  C   UNL     1       3.745   5.963  17.533  0.00  0.00    +0.000 A 
ENDROOT
BRANCH   1   7
ATOM      7  C   UNL     1       6.115   4.995  16.864  0.00  0.00    +0.000 C 
ATOM      8  C   UNL     1       6.682   6.452  16.699  0.00  0.00    +0.000 C 
ATOM      9  C   UNL     1       7.291   6.366  18.103  0.00  0.00    +0.000 C 
ATOM     10  C   UNL     1       7.150   4.843  18.046  0.00  0.00    +0.000 C 
BRANCH   7  11
ATOM     11  C   UNL     1       6.436   4.023  15.705  0.00  0.00    +0.000 C 
BRANCH  11  17
ATOM     12  C   UNL     1       5.732   3.392  12.651  0.00  0.00    +0.000 C 
ATOM     13  N   UNL     1       6.704   4.320  13.165  0.00  0.00    +0.000 N 
ATOM     14  C   UNL     1       7.562   5.044  12.390  0.00  0.00    +0.000 A 
ATOM     15  N   UNL     1       8.315   5.797  13.153  0.00  0.00    +0.000 NA
ATOM     16  N   UNL     1       7.960   5.551  14.455  0.00  0.00    +0.000 NA
ATOM     17  C   UNL     1       6.997   4.648  14.468  0.00  0.00    +0.000 A 
ENDBRANCH  11  17
ENDBRANCH   7  11
ENDBRANCH   1   7
BRANCH   5  18
ATOM     18  N   UNL     1       1.700   7.029  18.179  0.00  0.00    +0.000 N 
ATOM     19  C   UNL     1       2.209   8.315  18.154  0.00  0.00    +0.000 C 
ATOM     20  O   UNL     1       3.363   8.591  17.841  0.00  0.00    +0.000 OA
ATOM     21  H   UNL     1       0.703   6.931  18.334  0.00  0.00    +0.000 HD
BRANCH  19  22
ATOM     22  C   UNL     1       1.270   9.330  18.556  0.00  0.00    +0.000 A 
ATOM     23  C   UNL     1       0.592  10.272  17.800  0.00  0.00    +0.000 A 
ATOM     24  C   UNL     1      -0.397  10.810  18.650  0.00  0.00    +0.000 A 
ATOM     25  N   UNL     1      -0.292  10.327  19.896  0.00  0.00    +0.000 NA
ATOM     26  N   UNL     1       0.749   9.466  19.828  0.00  0.00    +0.000 N 
BRANCH  26  27
ATOM     27  C   UNL     1       1.239   8.767  21.007  0.00  0.00    +0.000 C 
ATOM     28  C   UNL     1       0.268   8.101  21.964  0.00  0.00    +0.000 C 
ATOM     29  C   UNL     1       1.053   9.283  22.422  0.00  0.00    +0.000 C 
ENDBRANCH  26  27
BRANCH  24  30
ATOM     30  C   UNL     1      -1.492  11.754  18.281  0.00  0.00    +0.000 C 
BRANCH  30  31
ATOM     31  O   UNL     1      -1.191  12.493  17.101  0.00  0.00    +0.000 OA
ATOM     32  H   UNL     1      -1.619  11.991  16.381  0.00  0.00    +0.000 HD
ENDBRANCH  30  31
ENDBRANCH  24  30
ENDBRANCH  19  22
ENDBRANCH   5  18
TORSDOF 8
ENDMDL
