MODEL 1
REMARK VINA RESULT:      -8.4      0.000      0.000
REMARK  Name = 
REMARK  4 active torsions:
REMARK  status: ('A' for Active; 'I' for Inactive)
REMARK    1  A    between atoms: C_2  and  C_17
REMARK    2  A    between atoms: N_3  and  C_4
REMARK    3  A    between atoms: C_7  and  N_8
REMARK    4  A    between atoms: C_20  and  C_21
REMARK                            x       y       z     vdW  Elec       q    Type
REMARK                         _______ _______ _______ _____ _____    ______ ____
ROOT
ATOM      1  O   UNL     1       2.515   5.841  20.178  0.00  0.00    +0.000 OA
ATOM      2  C   UNL     1       2.720   6.608  19.237  0.00  0.00    +0.000 C 
ATOM      3  N   UNL     1       2.273   7.905  19.147  0.00  0.00    +0.000 N 
ATOM      4  H   UNL     1       2.439   8.398  18.268  0.00  0.00    +0.000 HD
ENDROOT
BRANCH   2   5
ATOM      5  C   UNL     1       3.465   6.110  18.046  0.00  0.00    +0.000 A 
ATOM      6  C   UNL     1       4.190   7.013  17.355  0.00  0.00    +0.000 A 
ATOM      7  C   UNL     1       4.992   6.631  16.220  0.00  0.00    +0.000 A 
ATOM      8  C   UNL     1       5.025   5.347  15.828  0.00  0.00    +0.000 A 
ATOM      9  N   UNL     1       4.276   4.414  16.502  0.00  0.00    +0.000 N 
ATOM     10  C   UNL     1       3.489   4.691  17.593  0.00  0.00    +0.000 A 
ATOM     11  O   UNL     1       2.854   3.813  18.175  0.00  0.00    +0.000 OA
ATOM     12  H   UNL     1       4.315   3.450  16.188  0.00  0.00    +0.000 HD
BRANCH   8  13
ATOM     13  C   UNL     1       5.834   4.900  14.744  0.00  0.00    +0.000 A 
ATOM     14  C   UNL     1       5.612   3.919  13.779  0.00  0.00    +0.000 A 
ATOM     15  C   UNL     1       6.726   3.895  12.910  0.00  0.00    +0.000 A 
ATOM     16  C   UNL     1       7.587   4.852  13.380  0.00  0.00    +0.000 A 
ATOM     17  O   UNL     1       7.071   5.456  14.475  0.00  0.00    +0.000 OA
ENDBRANCH   8  13
ENDBRANCH   2   5
BRANCH   3  18
ATOM     18  C   UNL     1       1.475   8.571  20.099  0.00  0.00    +0.000 A 
ATOM     19  C   UNL     1       1.486   8.261  21.459  0.00  0.00    +0.000 A 
ATOM     20  C   UNL     1       0.609   8.892  22.344  0.00  0.00    +0.000 A 
ATOM     21  C   UNL     1      -0.277   9.869  21.892  0.00  0.00    +0.000 A 
ATOM     22  C   UNL     1      -0.261  10.199  20.529  0.00  0.00    +0.000 A 
ATOM     23  C   UNL     1       0.616   9.568  19.641  0.00  0.00    +0.000 A 
BRANCH  21  24
ATOM     24  N   UNL     1      -1.208  10.426  22.773  0.00  0.00    +0.000 N 
ATOM     25  C   UNL     1      -1.467  11.779  22.988  0.00  0.00    +0.000 A 
ATOM     26  N   UNL     1      -2.671  12.102  23.481  0.00  0.00    +0.000 NA
ATOM     27  C   UNL     1      -2.920  13.411  23.669  0.00  0.00    +0.000 A 
ATOM     28  C   UNL     1      -1.984  14.396  23.468  0.00  0.00    +0.000 A 
ATOM     29  C   UNL     1      -0.769  13.966  23.015  0.00  0.00    +0.000 A 
ATOM     30  N   UNL     1      -0.499  12.678  22.746  0.00  0.00    +0.000 NA
ATOM     31  H   UNL     1      -1.353   9.934  23.645  0.00  0.00    +0.000 HD
ENDBRANCH  21  24
ENDBRANCH   3  18
TORSDOF 4
ENDMDL
MODEL 2
REMARK VINA RESULT:      -8.4      1.798      2.731
REMARK  Name = 
REMARK  4 active torsions:
REMARK  status: ('A' for Active; 'I' for Inactive)
REMARK    1  A    between atoms: C_2  and  C_17
REMARK    2  A    between atoms: N_3  and  C_4
REMARK    3  A    between atoms: C_7  and  N_8
REMARK    4  A    between atoms: C_20  and  C_21
REMARK                            x       y       z     vdW  Elec       q    Type
REMARK                         _______ _______ _______ _____ _____    ______ ____
ROOT
ATOM      1  O   UNL     1       0.940   7.066  21.183  0.00  0.00    +0.000 OA
ATOM      2  C   UNL     1       1.582   7.830  20.461  0.00  0.00    +0.000 C 
ATOM      3  N   UNL     1       1.513   9.203  20.483  0.00  0.00    +0.000 N 
ATOM      4  H   UNL     1       2.033   9.710  19.765  0.00  0.00    +0.000 HD
ENDROOT
BRANCH   2   5
ATOM      5  C   UNL     1       2.483   7.258  19.420  0.00  0.00    +0.000 A 
ATOM      6  C   UNL     1       3.029   6.053  19.678  0.00  0.00    +0.000 A 
ATOM      7  C   UNL     1       3.871   5.383  18.719  0.00  0.00    +0.000 A 
ATOM      8  C   UNL     1       4.128   5.962  17.536  0.00  0.00    +0.000 A 
ATOM      9  N   UNL     1       3.601   7.200  17.260  0.00  0.00    +0.000 N 
ATOM     10  C   UNL     1       2.789   7.906  18.114  0.00  0.00    +0.000 A 
ATOM     11  O   UNL     1       2.325   9.003  17.810  0.00  0.00    +0.000 OA
ATOM     12  H   UNL     1       3.808   7.621  16.361  0.00  0.00    +0.000 HD
BRANCH   8  13
ATOM     13  C   UNL     1       4.912   5.330  16.529  0.00  0.00    +0.000 A 
ATOM     14  C   UNL     1       5.143   3.982  16.260  0.00  0.00    +0.000 A 
ATOM     15  C   UNL     1       5.978   3.897  15.122  0.00  0.00    +0.000 A 
ATOM     16  C   UNL     1       6.229   5.189  14.745  0.00  0.00    +0.000 A 
ATOM     17  O   UNL     1       5.604   6.055  15.576  0.00  0.00    +0.000 OA
ENDBRANCH   8  13
ENDBRANCH   2   5
BRANCH   3  18
ATOM     18  C   UNL     1       0.671   9.973  21.310  0.00  0.00    +0.000 A 
ATOM     19  C   UNL     1      -0.001   9.453  22.416  0.00  0.00    +0.000 A 
ATOM     20  C   UNL     1      -0.893  10.240  23.148  0.00  0.00    +0.000 A 
ATOM     21  C   UNL     1      -1.108  11.575  22.807  0.00  0.00    +0.000 A 
ATOM     22  C   UNL     1      -0.404  12.102  21.713  0.00  0.00    +0.000 A 
ATOM     23  C   UNL     1       0.489  11.315  20.979  0.00  0.00    +0.000 A 
BRANCH  21  24
ATOM     24  N   UNL     1      -2.068  12.324  23.493  0.00  0.00    +0.000 N 
ATOM     25  C   UNL     1      -3.398  12.531  23.131  0.00  0.00    +0.000 A 
ATOM     26  N   UNL     1      -4.257  12.851  24.110  0.00  0.00    +0.000 NA
ATOM     27  C   UNL     1      -5.543  13.032  23.757  0.00  0.00    +0.000 A 
ATOM     28  C   UNL     1      -5.983  12.993  22.456  0.00  0.00    +0.000 A 
ATOM     29  C   UNL     1      -5.025  12.712  21.522  0.00  0.00    +0.000 A 
ATOM     30  N   UNL     1      -3.745  12.455  21.836  0.00  0.00    +0.000 NA
ATOM     31  H   UNL     1      -1.736  13.153  23.968  0.00  0.00    +0.000 HD
ENDBRANCH  21  24
ENDBRANCH   3  18
TORSDOF 4
ENDMDL
MODEL 3
REMARK VINA RESULT:      -8.3      2.540      4.307
REMARK  Name = 
REMARK  4 active torsions:
REMARK  status: ('A' for Active; 'I' for Inactive)
REMARK    1  A    between atoms: C_2  and  C_17
REMARK    2  A    between atoms: N_3  and  C_4
REMARK    3  A    between atoms: C_7  and  N_8
REMARK    4  A    between atoms: C_20  and  C_21
REMARK                            x       y       z     vdW  Elec       q    Type
REMARK                         _______ _______ _______ _____ _____    ______ ____
ROOT
ATOM      1  O   UNL     1      -0.372   8.350  21.518  0.00  0.00    +0.000 OA
ATOM      2  C   UNL     1       0.282   9.051  20.744  0.00  0.00    +0.000 C 
ATOM      3  N   UNL     1       0.130  10.406  20.568  0.00  0.00    +0.000 N 
ATOM      4  H   UNL     1       0.677  10.845  19.825  0.00  0.00    +0.000 HD
ENDROOT
BRANCH   2   5
ATOM      5  C   UNL     1       1.296   8.406  19.863  0.00  0.00    +0.000 A 
ATOM      6  C   UNL     1       1.860   7.266  20.309  0.00  0.00    +0.000 A 
ATOM      7  C   UNL     1       2.812   6.531  19.515  0.00  0.00    +0.000 A 
ATOM      8  C   UNL     1       3.155   6.982  18.298  0.00  0.00    +0.000 A 
ATOM      9  N   UNL     1       2.611   8.153  17.831  0.00  0.00    +0.000 N 
ATOM     10  C   UNL     1       1.697   8.913  18.520  0.00  0.00    +0.000 A 
ATOM     11  O   UNL     1       1.222   9.944  18.047  0.00  0.00    +0.000 OA
ATOM     12  H   UNL     1       2.885   8.476  16.910  0.00  0.00    +0.000 HD
BRANCH   8  13
ATOM     13  C   UNL     1       4.053   6.276  17.446  0.00  0.00    +0.000 A 
ATOM     14  C   UNL     1       4.897   6.725  16.432  0.00  0.00    +0.000 A 
ATOM     15  C   UNL     1       5.601   5.611  15.919  0.00  0.00    +0.000 A 
ATOM     16  C   UNL     1       5.156   4.529  16.631  0.00  0.00    +0.000 A 
ATOM     17  O   UNL     1       4.230   4.908  17.542  0.00  0.00    +0.000 OA
ENDBRANCH   8  13
ENDBRANCH   2   5
BRANCH   3  18
ATOM     18  C   UNL     1      -0.819  11.221  21.215  0.00  0.00    +0.000 A 
ATOM     19  C   UNL     1      -1.014  11.221  22.597  0.00  0.00    +0.000 A 
ATOM     20  C   UNL     1      -2.030  11.984  23.176  0.00  0.00    +0.000 A 
ATOM     21  C   UNL     1      -2.855  12.786  22.388  0.00  0.00    +0.000 A 
ATOM     22  C   UNL     1      -2.633  12.807  21.003  0.00  0.00    +0.000 A 
ATOM     23  C   UNL     1      -1.617  12.044  20.421  0.00  0.00    +0.000 A 
BRANCH  21  24
ATOM     24  N   UNL     1      -3.923  13.474  22.973  0.00  0.00    +0.000 N 
ATOM     25  C   UNL     1      -5.269  13.112  22.964  0.00  0.00    +0.000 A 
ATOM     26  N   UNL     1      -6.042  13.605  23.943  0.00  0.00    +0.000 NA
ATOM     27  C   UNL     1      -7.337  13.238  23.938  0.00  0.00    +0.000 A 
ATOM     28  C   UNL     1      -7.904  12.474  22.947  0.00  0.00    +0.000 A 
ATOM     29  C   UNL     1      -7.048  12.062  21.964  0.00  0.00    +0.000 A 
ATOM     30  N   UNL     1      -5.735  12.345  21.965  0.00  0.00    +0.000 NA
ATOM     31  H   UNL     1      -3.866  14.484  22.964  0.00  0.00    +0.000 HD
ENDBRANCH  21  24
ENDBRANCH   3  18
TORSDOF 4
ENDMDL
MODEL 4
REMARK VINA RESULT:      -8.3      7.225     10.388
REMARK  Name = 
REMARK  4 active torsions:
REMARK  status: ('A' for Active; 'I' for Inactive)
REMARK    1  A    between atoms: C_2  and  C_17
REMARK    2  A    between atoms: N_3  and  C_4
REMARK    3  A    between atoms: C_7  and  N_8
REMARK    4  A    between atoms: C_20  and  C_21
REMARK                            x       y       z     vdW  Elec       q    Type
REMARK                         _______ _______ _______ _____ _____    ______ ____
ROOT
ATOM      1  O   UNL     1       9.026   9.811  20.006  0.00  0.00    +0.000 OA
ATOM      2  C   UNL     1       8.936  10.212  18.845  0.00  0.00    +0.000 C 
ATOM      3  N   UNL     1       8.393   9.510  17.795  0.00  0.00    +0.000 N 
ATOM      4  H   UNL     1       8.467   9.927  16.865  0.00  0.00    +0.000 HD
ENDROOT
BRANCH   2   5
ATOM      5  C   UNL     1       9.506  11.543  18.491  0.00  0.00    +0.000 A 
ATOM      6  C   UNL     1       8.665  12.443  17.943  0.00  0.00    +0.000 A 
ATOM      7  C   UNL     1       9.097  13.778  17.612  0.00  0.00    +0.000 A 
ATOM      8  C   UNL     1      10.365  14.148  17.850  0.00  0.00    +0.000 A 
ATOM      9  N   UNL     1      11.246  13.241  18.387  0.00  0.00    +0.000 N 
ATOM     10  C   UNL     1      10.918  11.953  18.733  0.00  0.00    +0.000 A 
ATOM     11  O   UNL     1      11.740  11.185  19.231  0.00  0.00    +0.000 OA
ATOM     12  H   UNL     1      12.199  13.541  18.557  0.00  0.00    +0.000 HD
BRANCH   8  13
ATOM     13  C   UNL     1      10.838  15.466  17.590  0.00  0.00    +0.000 A 
ATOM     14  C   UNL     1      10.164  16.683  17.515  0.00  0.00    +0.000 A 
ATOM     15  C   UNL     1      11.113  17.699  17.261  0.00  0.00    +0.000 A 
ATOM     16  C   UNL     1      12.325  17.066  17.182  0.00  0.00    +0.000 A 
ATOM     17  O   UNL     1      12.177  15.734  17.372  0.00  0.00    +0.000 OA
ENDBRANCH   8  13
ENDBRANCH   2   5
BRANCH   3  18
ATOM     18  C   UNL     1       7.874   8.202  17.857  0.00  0.00    +0.000 A 
ATOM     19  C   UNL     1       6.836   7.750  17.042  0.00  0.00    +0.000 A 
ATOM     20  C   UNL     1       6.300   6.471  17.208  0.00  0.00    +0.000 A 
ATOM     21  C   UNL     1       6.813   5.605  18.173  0.00  0.00    +0.000 A 
ATOM     22  C   UNL     1       7.878   6.054  18.968  0.00  0.00    +0.000 A 
ATOM     23  C   UNL     1       8.415   7.334  18.804  0.00  0.00    +0.000 A 
BRANCH  21  24
ATOM     24  N   UNL     1       6.208   4.362  18.386  0.00  0.00    +0.000 N 
ATOM     25  C   UNL     1       4.912   4.117  18.834  0.00  0.00    +0.000 A 
ATOM     26  N   UNL     1       4.371   2.930  18.524  0.00  0.00    +0.000 NA
ATOM     27  C   UNL     1       3.112   2.706  18.945  0.00  0.00    +0.000 A 
ATOM     28  C   UNL     1       2.411   3.585  19.735  0.00  0.00    +0.000 A 
ATOM     29  C   UNL     1       3.064   4.745  20.043  0.00  0.00    +0.000 A 
ATOM     30  N   UNL     1       4.292   5.041  19.587  0.00  0.00    +0.000 NA
ATOM     31  H   UNL     1       6.808   3.624  18.732  0.00  0.00    +0.000 HD
ENDBRANCH  21  24
ENDBRANCH   3  18
TORSDOF 4
ENDMDL
MODEL 5
REMARK VINA RESULT:      -8.3      1.655      2.448
REMARK  Name = 
REMARK  4 active torsions:
REMARK  status: ('A' for Active; 'I' for Inactive)
REMARK    1  A    between atoms: C_2  and  C_17
REMARK    2  A    between atoms: N_3  and  C_4
REMARK    3  A    between atoms: C_7  and  N_8
REMARK    4  A    between atoms: C_20  and  C_21
REMARK                            x       y       z     vdW  Elec       q    Type
REMARK                         _______ _______ _______ _____ _____    ______ ____
ROOT
ATOM      1  O   UNL     1       1.339   6.671  20.873  0.00  0.00    +0.000 OA
ATOM      2  C   UNL     1       1.856   7.472  20.093  0.00  0.00    +0.000 C 
ATOM      3  N   UNL     1       1.598   8.821  20.041  0.00  0.00    +0.000 N 
ATOM      4  H   UNL     1       2.031   9.352  19.283  0.00  0.00    +0.000 HD
ENDROOT
BRANCH   2   5
ATOM      5  C   UNL     1       2.806   6.968  19.062  0.00  0.00    +0.000 A 
ATOM      6  C   UNL     1       3.466   5.826  19.341  0.00  0.00    +0.000 A 
ATOM      7  C   UNL     1       4.367   5.221  18.393  0.00  0.00    +0.000 A 
ATOM      8  C   UNL     1       4.566   5.799  17.198  0.00  0.00    +0.000 A 
ATOM      9  N   UNL     1       3.923   6.975  16.900  0.00  0.00    +0.000 N 
ATOM     10  C   UNL     1       3.048   7.616  17.742  0.00  0.00    +0.000 A 
ATOM     11  O   UNL     1       2.480   8.658  17.417  0.00  0.00    +0.000 OA
ATOM     12  H   UNL     1       4.088   7.395  15.992  0.00  0.00    +0.000 HD
BRANCH   8  13
ATOM     13  C   UNL     1       5.406   5.224  16.202  0.00  0.00    +0.000 A 
ATOM     14  C   UNL     1       5.352   3.989  15.558  0.00  0.00    +0.000 A 
ATOM     15  C   UNL     1       6.413   3.930  14.626  0.00  0.00    +0.000 A 
ATOM     16  C   UNL     1       7.077   5.123  14.741  0.00  0.00    +0.000 A 
ATOM     17  O   UNL     1       6.492   5.903  15.679  0.00  0.00    +0.000 OA
ENDBRANCH   8  13
ENDBRANCH   2   5
BRANCH   3  18
ATOM     18  C   UNL     1       0.676   9.517  20.847  0.00  0.00    +0.000 A 
ATOM     19  C   UNL     1      -0.130  10.551  20.371  0.00  0.00    +0.000 A 
ATOM     20  C   UNL     1      -0.963  11.266  21.236  0.00  0.00    +0.000 A 
ATOM     21  C   UNL     1      -1.029  10.942  22.590  0.00  0.00    +0.000 A 
ATOM     22  C   UNL     1      -0.240   9.879  23.056  0.00  0.00    +0.000 A 
ATOM     23  C   UNL     1       0.594   9.163  22.193  0.00  0.00    +0.000 A 
BRANCH  21  24
ATOM     24  N   UNL     1      -1.798  11.723  23.457  0.00  0.00    +0.000 N 
ATOM     25  C   UNL     1      -3.083  12.218  23.237  0.00  0.00    +0.000 A 
ATOM     26  N   UNL     1      -3.818  12.516  24.318  0.00  0.00    +0.000 NA
ATOM     27  C   UNL     1      -5.063  12.976  24.098  0.00  0.00    +0.000 A 
ATOM     28  C   UNL     1      -5.566  13.232  22.845  0.00  0.00    +0.000 A 
ATOM     29  C   UNL     1      -4.724  12.947  21.807  0.00  0.00    +0.000 A 
ATOM     30  N   UNL     1      -3.500  12.420  21.977  0.00  0.00    +0.000 NA
ATOM     31  H   UNL     1      -1.295  12.391  24.027  0.00  0.00    +0.000 HD
ENDBRANCH  21  24
ENDBRANCH   3  18
TORSDOF 4
ENDMDL
MODEL 6
REMARK VINA RESULT:      -8.3      1.962      2.933
REMARK  Name = 
REMARK  4 active torsions:
REMARK  status: ('A' for Active; 'I' for Inactive)
REMARK    1  A    between atoms: C_2  and  C_17
REMARK    2  A    between atoms: N_3  and  C_4
REMARK    3  A    between atoms: C_7  and  N_8
REMARK    4  A    between atoms: C_20  and  C_21
REMARK                            x       y       z     vdW  Elec       q    Type
REMARK                         _______ _______ _______ _____ _____    ______ ____
ROOT
ATOM      1  O   UNL     1       0.503   9.512  18.602  0.00  0.00    +0.000 OA
ATOM      2  C   UNL     1       1.228   8.881  19.373  0.00  0.00    +0.000 C 
ATOM      3  N   UNL     1       1.238   9.001  20.742  0.00  0.00    +0.000 N 
ATOM      4  H   UNL     1       1.956   8.483  21.252  0.00  0.00    +0.000 HD
ENDROOT
BRANCH   2   5
ATOM      5  C   UNL     1       2.235   7.937  18.811  0.00  0.00    +0.000 A 
ATOM      6  C   UNL     1       2.896   8.333  17.705  0.00  0.00    +0.000 A 
ATOM      7  C   UNL     1       3.928   7.522  17.110  0.00  0.00    +0.000 A 
ATOM      8  C   UNL     1       4.249   6.340  17.660  0.00  0.00    +0.000 A 
ATOM      9  N   UNL     1       3.574   5.906  18.773  0.00  0.00    +0.000 N 
ATOM     10  C   UNL     1       2.581   6.614  19.404  0.00  0.00    +0.000 A 
ATOM     11  O   UNL     1       2.021   6.189  20.413  0.00  0.00    +0.000 OA
ATOM     12  H   UNL     1       3.831   5.009  19.172  0.00  0.00    +0.000 HD
BRANCH   8  13
ATOM     13  C   UNL     1       5.292   5.517  17.147  0.00  0.00    +0.000 A 
ATOM     14  C   UNL     1       6.641   5.428  17.488  0.00  0.00    +0.000 A 
ATOM     15  C   UNL     1       7.233   4.422  16.690  0.00  0.00    +0.000 A 
ATOM     16  C   UNL     1       6.230   3.943  15.890  0.00  0.00    +0.000 A 
ATOM     17  O   UNL     1       5.068   4.588  16.147  0.00  0.00    +0.000 OA
ENDBRANCH   8  13
ENDBRANCH   2   5
BRANCH   3  18
ATOM     18  C   UNL     1       0.448   9.888  21.499  0.00  0.00    +0.000 A 
ATOM     19  C   UNL     1      -0.302   9.491  22.607  0.00  0.00    +0.000 A 
ATOM     20  C   UNL     1      -1.138  10.395  23.267  0.00  0.00    +0.000 A 
ATOM     21  C   UNL     1      -1.220  11.723  22.849  0.00  0.00    +0.000 A 
ATOM     22  C   UNL     1      -0.439  12.124  21.755  0.00  0.00    +0.000 A 
ATOM     23  C   UNL     1       0.398  11.221  21.093  0.00  0.00    +0.000 A 
BRANCH  21  24
ATOM     24  N   UNL     1      -2.127  12.592  23.463  0.00  0.00    +0.000 N 
ATOM     25  C   UNL     1      -3.484  12.740  23.177  0.00  0.00    +0.000 A 
ATOM     26  N   UNL     1      -4.263  13.239  24.148  0.00  0.00    +0.000 NA
ATOM     27  C   UNL     1      -5.574  13.363  23.871  0.00  0.00    +0.000 A 
ATOM     28  C   UNL     1      -6.117  13.092  22.638  0.00  0.00    +0.000 A 
ATOM     29  C   UNL     1      -5.235  12.639  21.697  0.00  0.00    +0.000 A 
ATOM     30  N   UNL     1      -3.932  12.433  21.949  0.00  0.00    +0.000 NA
ATOM     31  H   UNL     1      -1.764  13.491  23.752  0.00  0.00    +0.000 HD
ENDBRANCH  21  24
ENDBRANCH   3  18
TORSDOF 4
ENDMDL
MODEL 7
REMARK VINA RESULT:      -8.3      2.747      4.763
REMARK  Name = 
REMARK  4 active torsions:
REMARK  status: ('A' for Active; 'I' for Inactive)
REMARK    1  A    between atoms: C_2  and  C_17
REMARK    2  A    between atoms: N_3  and  C_4
REMARK    3  A    between atoms: C_7  and  N_8
REMARK    4  A    between atoms: C_20  and  C_21
REMARK                            x       y       z     vdW  Elec       q    Type
REMARK                         _______ _______ _______ _____ _____    ______ ____
ROOT
ATOM      1  O   UNL     1       1.228  11.554  19.499  0.00  0.00    +0.000 OA
ATOM      2  C   UNL     1       0.671  10.479  19.725  0.00  0.00    +0.000 C 
ATOM      3  N   UNL     1      -0.576  10.324  20.283  0.00  0.00    +0.000 N 
ATOM      4  H   UNL     1      -0.877   9.372  20.500  0.00  0.00    +0.000 HD
ENDROOT
BRANCH   2   5
ATOM      5  C   UNL     1       1.400   9.211  19.439  0.00  0.00    +0.000 A 
ATOM      6  C   UNL     1       1.898   9.058  18.196  0.00  0.00    +0.000 A 
ATOM      7  C   UNL     1       2.666   7.896  17.826  0.00  0.00    +0.000 A 
ATOM      8  C   UNL     1       2.897   6.932  18.732  0.00  0.00    +0.000 A 
ATOM      9  N   UNL     1       2.380   7.055  19.998  0.00  0.00    +0.000 N 
ATOM     10  C   UNL     1       1.641   8.128  20.434  0.00  0.00    +0.000 A 
ATOM     11  O   UNL     1       1.218   8.200  21.586  0.00  0.00    +0.000 OA
ATOM     12  H   UNL     1       2.565   6.315  20.666  0.00  0.00    +0.000 HD
BRANCH   8  13
ATOM     13  C   UNL     1       3.688   5.784  18.441  0.00  0.00    +0.000 A 
ATOM     14  C   UNL     1       4.871   5.319  19.012  0.00  0.00    +0.000 A 
ATOM     15  C   UNL     1       5.224   4.109  18.371  0.00  0.00    +0.000 A 
ATOM     16  C   UNL     1       4.252   3.887  17.432  0.00  0.00    +0.000 A 
ATOM     17  O   UNL     1       3.332   4.879  17.458  0.00  0.00    +0.000 OA
ENDBRANCH   8  13
ENDBRANCH   2   5
BRANCH   3  18
ATOM     18  C   UNL     1      -1.419  11.364  20.722  0.00  0.00    +0.000 A 
ATOM     19  C   UNL     1      -1.451  11.820  22.040  0.00  0.00    +0.000 A 
ATOM     20  C   UNL     1      -2.370  12.793  22.439  0.00  0.00    +0.000 A 
ATOM     21  C   UNL     1      -3.259  13.351  21.521  0.00  0.00    +0.000 A 
ATOM     22  C   UNL     1      -3.201  12.911  20.190  0.00  0.00    +0.000 A 
ATOM     23  C   UNL     1      -2.281  11.937  19.788  0.00  0.00    +0.000 A 
BRANCH  21  24
ATOM     24  N   UNL     1      -4.231  14.257  21.955  0.00  0.00    +0.000 N 
ATOM     25  C   UNL     1      -5.401  13.973  22.657  0.00  0.00    +0.000 A 
ATOM     26  N   UNL     1      -5.938  14.966  23.380  0.00  0.00    +0.000 NA
ATOM     27  C   UNL     1      -7.057  14.680  24.070  0.00  0.00    +0.000 A 
ATOM     28  C   UNL     1      -7.705  13.470  23.994  0.00  0.00    +0.000 A 
ATOM     29  C   UNL     1      -7.111  12.538  23.191  0.00  0.00    +0.000 A 
ATOM     30  N   UNL     1      -5.956  12.756  22.540  0.00  0.00    +0.000 NA
ATOM     31  H   UNL     1      -4.409  15.049  21.350  0.00  0.00    +0.000 HD
ENDBRANCH  21  24
ENDBRANCH   3  18
TORSDOF 4
ENDMDL
MODEL 8
REMARK VINA RESULT:      -8.3      1.685      2.546
REMARK  Name = 
REMARK  4 active torsions:
REMARK  status: ('A' for Active; 'I' for Inactive)
REMARK    1  A    between atoms: C_2  and  C_17
REMARK    2  A    between atoms: N_3  and  C_4
REMARK    3  A    between atoms: C_7  and  N_8
REMARK    4  A    between atoms: C_20  and  C_21
REMARK                            x       y       z     vdW  Elec       q    Type
REMARK                         _______ _______ _______ _____ _____    ______ ____
ROOT
ATOM      1  O   UNL     1       0.916   7.201  21.142  0.00  0.00    +0.000 OA
ATOM      2  C   UNL     1       1.484   7.949  20.346  0.00  0.00    +0.000 C 
ATOM      3  N   UNL     1       1.311   9.311  20.263  0.00  0.00    +0.000 N 
ATOM      4  H   UNL     1       1.777   9.796  19.494  0.00  0.00    +0.000 HD
ENDROOT
BRANCH   2   5
ATOM      5  C   UNL     1       2.402   7.363  19.328  0.00  0.00    +0.000 A 
ATOM      6  C   UNL     1       2.979   6.183  19.630  0.00  0.00    +0.000 A 
ATOM      7  C   UNL     1       3.840   5.501  18.698  0.00  0.00    +0.000 A 
ATOM      8  C   UNL     1       4.085   6.044  17.495  0.00  0.00    +0.000 A 
ATOM      9  N   UNL     1       3.526   7.257  17.173  0.00  0.00    +0.000 N 
ATOM     10  C   UNL     1       2.694   7.971  17.999  0.00  0.00    +0.000 A 
ATOM     11  O   UNL     1       2.201   9.044  17.654  0.00  0.00    +0.000 OA
ATOM     12  H   UNL     1       3.725   7.649  16.259  0.00  0.00    +0.000 HD
BRANCH   8  13
ATOM     13  C   UNL     1       4.888   5.396  16.513  0.00  0.00    +0.000 A 
ATOM     14  C   UNL     1       5.512   5.891  15.369  0.00  0.00    +0.000 A 
ATOM     15  C   UNL     1       6.216   4.828  14.756  0.00  0.00    +0.000 A 
ATOM     16  C   UNL     1       5.990   3.729  15.542  0.00  0.00    +0.000 A 
ATOM     17  O   UNL     1       5.196   4.050  16.590  0.00  0.00    +0.000 OA
ENDBRANCH   8  13
ENDBRANCH   2   5
BRANCH   3  18
ATOM     18  C   UNL     1       0.433  10.081  21.051  0.00  0.00    +0.000 A 
ATOM     19  C   UNL     1       0.206   9.837  22.405  0.00  0.00    +0.000 A 
ATOM     20  C   UNL     1      -0.743  10.576  23.116  0.00  0.00    +0.000 A 
ATOM     21  C   UNL     1      -1.464  11.594  22.494  0.00  0.00    +0.000 A 
ATOM     22  C   UNL     1      -1.207  11.856  21.139  0.00  0.00    +0.000 A 
ATOM     23  C   UNL     1      -0.258  11.118  20.426  0.00  0.00    +0.000 A 
BRANCH  21  24
ATOM     24  N   UNL     1      -2.472  12.263  23.194  0.00  0.00    +0.000 N 
ATOM     25  C   UNL     1      -2.433  13.563  23.698  0.00  0.00    +0.000 A 
ATOM     26  N   UNL     1      -3.609  14.176  23.900  0.00  0.00    +0.000 NA
ATOM     27  C   UNL     1      -3.564  15.436  24.370  0.00  0.00    +0.000 A 
ATOM     28  C   UNL     1      -2.399  16.070  24.728  0.00  0.00    +0.000 A 
ATOM     29  C   UNL     1      -1.256  15.346  24.536  0.00  0.00    +0.000 A 
ATOM     30  N   UNL     1      -1.247  14.113  24.004  0.00  0.00    +0.000 NA
ATOM     31  H   UNL     1      -3.038  11.699  23.815  0.00  0.00    +0.000 HD
ENDBRANCH  21  24
ENDBRANCH   3  18
TORSDOF 4
ENDMDL
MODEL 9
REMARK VINA RESULT:      -8.2      0.861      1.268
REMARK  Name = 
REMARK  4 active torsions:
REMARK  status: ('A' for Active; 'I' for Inactive)
REMARK    1  A    between atoms: C_2  and  C_17
REMARK    2  A    between atoms: N_3  and  C_4
REMARK    3  A    between atoms: C_7  and  N_8
REMARK    4  A    between atoms: C_20  and  C_21
REMARK                            x       y       z     vdW  Elec       q    Type
REMARK                         _______ _______ _______ _____ _____    ______ ____
ROOT
ATOM      1  O   UNL     1       1.819   6.241  20.538  0.00  0.00    +0.000 OA
ATOM      2  C   UNL     1       2.175   6.986  19.624  0.00  0.00    +0.000 C 
ATOM      3  N   UNL     1       1.834   8.312  19.492  0.00  0.00    +0.000 N 
ATOM      4  H   UNL     1       2.124   8.787  18.636  0.00  0.00    +0.000 HD
ENDROOT
BRANCH   2   5
ATOM      5  C   UNL     1       2.998   6.430  18.513  0.00  0.00    +0.000 A 
ATOM      6  C   UNL     1       3.643   7.314  17.726  0.00  0.00    +0.000 A 
ATOM      7  C   UNL     1       4.509   6.884  16.657  0.00  0.00    +0.000 A 
ATOM      8  C   UNL     1       4.686   5.573  16.427  0.00  0.00    +0.000 A 
ATOM      9  N   UNL     1       4.021   4.654  17.201  0.00  0.00    +0.000 N 
ATOM     10  C   UNL     1       3.181   4.976  18.239  0.00  0.00    +0.000 A 
ATOM     11  O   UNL     1       2.626   4.113  18.917  0.00  0.00    +0.000 OA
ATOM     12  H   UNL     1       4.168   3.669  17.009  0.00  0.00    +0.000 HD
BRANCH   8  13
ATOM     13  C   UNL     1       5.565   5.086  15.417  0.00  0.00    +0.000 A 
ATOM     14  C   UNL     1       5.393   4.093  14.455  0.00  0.00    +0.000 A 
ATOM     15  C   UNL     1       6.571   4.025  13.676  0.00  0.00    +0.000 A 
ATOM     16  C   UNL     1       7.416   4.971  14.194  0.00  0.00    +0.000 A 
ATOM     17  O   UNL     1       6.832   5.608  15.236  0.00  0.00    +0.000 OA
ENDBRANCH   8  13
ENDBRANCH   2   5
BRANCH   3  18
ATOM     18  C   UNL     1       0.996   9.039  20.360  0.00  0.00    +0.000 A 
ATOM     19  C   UNL     1      -0.011   9.896  19.914  0.00  0.00    +0.000 A 
ATOM     20  C   UNL     1      -0.753  10.660  20.817  0.00  0.00    +0.000 A 
ATOM     21  C   UNL     1      -0.524  10.561  22.189  0.00  0.00    +0.000 A 
ATOM     22  C   UNL     1       0.467   9.673  22.633  0.00  0.00    +0.000 A 
ATOM     23  C   UNL     1       1.211   8.908  21.731  0.00  0.00    +0.000 A 
BRANCH  21  24
ATOM     24  N   UNL     1      -1.214  11.397  23.072  0.00  0.00    +0.000 N 
ATOM     25  C   UNL     1      -1.216  12.791  23.092  0.00  0.00    +0.000 A 
ATOM     26  N   UNL     1      -2.266  13.394  23.667  0.00  0.00    +0.000 NA
ATOM     27  C   UNL     1      -2.270  14.739  23.667  0.00  0.00    +0.000 A 
ATOM     28  C   UNL     1      -1.227  15.500  23.196  0.00  0.00    +0.000 A 
ATOM     29  C   UNL     1      -0.177  14.795  22.677  0.00  0.00    +0.000 A 
ATOM     30  N   UNL     1      -0.161  13.455  22.592  0.00  0.00    +0.000 NA
ATOM     31  H   UNL     1      -1.306  11.066  24.024  0.00  0.00    +0.000 HD
ENDBRANCH  21  24
ENDBRANCH   3  18
TORSDOF 4
ENDMDL
