MODEL 1
REMARK VINA RESULT:      -7.9      0.000      0.000
REMARK  Name = 
REMARK  9 active torsions:
REMARK  status: ('A' for Active; 'I' for Inactive)
REMARK    1  A    between atoms: C_1  and  C_2
REMARK    2  A    between atoms: C_6  and  C_7
REMARK    3  A    between atoms: C_7  and  C_8
REMARK    4  A    between atoms: C_8  and  C_9
REMARK    5  A    between atoms: C_8  and  C_23
REMARK    6  A    between atoms: C_9  and  N_10
REMARK    7  A    between atoms: C_11  and  C_13
REMARK    8  A    between atoms: N_21  and  C_22
REMARK    9  A    between atoms: C_23  and  O_25
REMARK                            x       y       z     vdW  Elec       q    Type
REMARK                         _______ _______ _______ _____ _____    ______ ____
ROOT
ATOM      1  C   UNL     1       3.882   3.711  20.145  0.00  0.00    +0.000 C 
ENDROOT
BRANCH   1   2
ATOM      2  N   UNL     1       3.384   5.072  20.052  0.00  0.00    +0.000 N 
ATOM      3  C   UNL     1       2.092   5.446  20.332  0.00  0.00    +0.000 C 
ATOM      4  O   UNL     1       1.217   4.684  20.714  0.00  0.00    +0.000 OA
ATOM      5  H   UNL     1       3.939   5.698  19.468  0.00  0.00    +0.000 HD
BRANCH   3   6
ATOM      6  C   UNL     1       1.808   6.893  20.117  0.00  0.00    +0.000 A 
ATOM      7  C   UNL     1       1.154   7.607  21.131  0.00  0.00    +0.000 A 
ATOM      8  C   UNL     1       0.820   8.957  20.970  0.00  0.00    +0.000 A 
ATOM      9  C   UNL     1       1.199   9.555  19.765  0.00  0.00    +0.000 A 
ATOM     10  C   UNL     1       1.883   8.883  18.759  0.00  0.00    +0.000 A 
ATOM     11  C   UNL     1       2.197   7.527  18.922  0.00  0.00    +0.000 A 
ATOM     12  N   UNL     1       2.135   9.740  17.721  0.00  0.00    +0.000 NA
ATOM     13  N   UNL     1       1.613  10.922  18.026  0.00  0.00    +0.000 NA
ATOM     14  N   UNL     1       1.043  10.809  19.240  0.00  0.00    +0.000 N 
ATOM     15  C   UNL     1       0.332  11.917  19.819  0.00  0.00    +0.000 C 
ENDBRANCH   3   6
ENDBRANCH   1   2
BRANCH   1  16
ATOM     16  C   UNL     1       4.080   3.071  18.757  0.00  0.00    +0.000 C 
BRANCH  16  17
ATOM     17  C   UNL     1       3.243   1.806  18.671  0.00  0.00    +0.000 C 
ATOM     18  O   UNL     1       2.037   1.763  18.870  0.00  0.00    +0.000 OA
BRANCH  17  19
ATOM     19  O   UNL     1       3.941   0.705  18.317  0.00  0.00    +0.000 OA
ATOM     20  H   UNL     1       3.433  -0.129  18.331  0.00  0.00    +0.000 HD
ENDBRANCH  17  19
ENDBRANCH  16  17
BRANCH  16  21
ATOM     21  C   UNL     1       3.698   3.983  17.575  0.00  0.00    +0.000 C 
BRANCH  21  27
ATOM     22  C   UNL     1       7.529   7.228  17.464  0.00  0.00    +0.000 C 
ATOM     23  C   UNL     1       6.800   6.077  16.836  0.00  0.00    +0.000 A 
ATOM     24  C   UNL     1       7.284   5.448  15.687  0.00  0.00    +0.000 A 
ATOM     25  C   UNL     1       6.561   4.413  15.094  0.00  0.00    +0.000 A 
ATOM     26  C   UNL     1       5.367   3.968  15.669  0.00  0.00    +0.000 A 
ATOM     27  C   UNL     1       4.899   4.544  16.854  0.00  0.00    +0.000 A 
ATOM     28  C   UNL     1       5.606   5.621  17.408  0.00  0.00    +0.000 A 
ENDBRANCH  21  27
ENDBRANCH  16  21
ENDBRANCH   1  16
TORSDOF 7
ENDMDL
MODEL 2
REMARK VINA RESULT:      -7.9      2.550      4.333
REMARK  Name = 
REMARK  9 active torsions:
REMARK  status: ('A' for Active; 'I' for Inactive)
REMARK    1  A    between atoms: C_1  and  C_2
REMARK    2  A    between atoms: C_6  and  C_7
REMARK    3  A    between atoms: C_7  and  C_8
REMARK    4  A    between atoms: C_8  and  C_9
REMARK    5  A    between atoms: C_8  and  C_23
REMARK    6  A    between atoms: C_9  and  N_10
REMARK    7  A    between atoms: C_11  and  C_13
REMARK    8  A    between atoms: N_21  and  C_22
REMARK    9  A    between atoms: C_23  and  O_25
REMARK                            x       y       z     vdW  Elec       q    Type
REMARK                         _______ _______ _______ _____ _____    ______ ____
ROOT
ATOM      1  C   UNL     1       4.689   5.683  16.925  0.00  0.00    +0.000 C 
ENDROOT
BRANCH   1   2
ATOM      2  N   UNL     1       3.946   6.656  17.704  0.00  0.00    +0.000 N 
ATOM      3  C   UNL     1       2.613   6.541  18.023  0.00  0.00    +0.000 C 
ATOM      4  O   UNL     1       1.905   5.597  17.708  0.00  0.00    +0.000 OA
ATOM      5  H   UNL     1       4.360   7.587  17.744  0.00  0.00    +0.000 HD
BRANCH   3   6
ATOM      6  C   UNL     1       2.061   7.692  18.791  0.00  0.00    +0.000 A 
ATOM      7  C   UNL     1       1.725   8.863  18.098  0.00  0.00    +0.000 A 
ATOM      8  C   UNL     1       1.244   9.993  18.770  0.00  0.00    +0.000 A 
ATOM      9  C   UNL     1       1.091   9.879  20.155  0.00  0.00    +0.000 A 
ATOM     10  C   UNL     1       1.378   8.717  20.862  0.00  0.00    +0.000 A 
ATOM     11  C   UNL     1       1.875   7.598  20.183  0.00  0.00    +0.000 A 
ATOM     12  N   UNL     1       1.101   8.907  22.191  0.00  0.00    +0.000 NA
ATOM     13  N   UNL     1       0.673  10.154  22.348  0.00  0.00    +0.000 NA
ATOM     14  N   UNL     1       0.678  10.739  21.136  0.00  0.00    +0.000 N 
ATOM     15  C   UNL     1       0.323  12.124  20.991  0.00  0.00    +0.000 C 
ENDBRANCH   3   6
ENDBRANCH   1   2
BRANCH   1  16
ATOM     16  C   UNL     1       5.867   5.084  17.719  0.00  0.00    +0.000 C 
BRANCH  16  17
ATOM     17  C   UNL     1       6.952   6.137  17.866  0.00  0.00    +0.000 C 
ATOM     18  O   UNL     1       7.748   6.182  18.792  0.00  0.00    +0.000 OA
BRANCH  17  19
ATOM     19  O   UNL     1       6.997   7.027  16.851  0.00  0.00    +0.000 OA
ATOM     20  H   UNL     1       7.850   7.069  16.375  0.00  0.00    +0.000 HD
ENDBRANCH  17  19
ENDBRANCH  16  17
BRANCH  16  21
ATOM     21  C   UNL     1       5.493   4.577  19.126  0.00  0.00    +0.000 C 
BRANCH  21  27
ATOM     22  C   UNL     1       1.260   2.906  21.250  0.00  0.00    +0.000 C 
ATOM     23  C   UNL     1       2.238   2.851  20.113  0.00  0.00    +0.000 A 
ATOM     24  C   UNL     1       2.020   2.029  19.005  0.00  0.00    +0.000 A 
ATOM     25  C   UNL     1       2.970   1.957  17.986  0.00  0.00    +0.000 A 
ATOM     26  C   UNL     1       4.127   2.739  18.043  0.00  0.00    +0.000 A 
ATOM     27  C   UNL     1       4.331   3.614  19.114  0.00  0.00    +0.000 A 
ATOM     28  C   UNL     1       3.397   3.635  20.160  0.00  0.00    +0.000 A 
ENDBRANCH  21  27
ENDBRANCH  16  21
ENDBRANCH   1  16
TORSDOF 7
ENDMDL
MODEL 3
REMARK VINA RESULT:      -7.9      0.553      1.514
REMARK  Name = 
REMARK  9 active torsions:
REMARK  status: ('A' for Active; 'I' for Inactive)
REMARK    1  A    between atoms: C_1  and  C_2
REMARK    2  A    between atoms: C_6  and  C_7
REMARK    3  A    between atoms: C_7  and  C_8
REMARK    4  A    between atoms: C_8  and  C_9
REMARK    5  A    between atoms: C_8  and  C_23
REMARK    6  A    between atoms: C_9  and  N_10
REMARK    7  A    between atoms: C_11  and  C_13
REMARK    8  A    between atoms: N_21  and  C_22
REMARK    9  A    between atoms: C_23  and  O_25
REMARK                            x       y       z     vdW  Elec       q    Type
REMARK                         _______ _______ _______ _____ _____    ______ ____
ROOT
ATOM      1  C   UNL     1       3.934   3.681  20.078  0.00  0.00    +0.000 C 
ENDROOT
BRANCH   1   2
ATOM      2  N   UNL     1       3.440   5.044  19.995  0.00  0.00    +0.000 N 
ATOM      3  C   UNL     1       2.144   5.418  20.261  0.00  0.00    +0.000 C 
ATOM      4  O   UNL     1       1.262   4.652  20.620  0.00  0.00    +0.000 OA
ATOM      5  H   UNL     1       4.005   5.676  19.428  0.00  0.00    +0.000 HD
BRANCH   3   6
ATOM      6  C   UNL     1       1.867   6.868  20.062  0.00  0.00    +0.000 A 
ATOM      7  C   UNL     1       1.260   7.585  21.102  0.00  0.00    +0.000 A 
ATOM      8  C   UNL     1       0.934   8.939  20.959  0.00  0.00    +0.000 A 
ATOM      9  C   UNL     1       1.271   9.537  19.741  0.00  0.00    +0.000 A 
ATOM     10  C   UNL     1       1.909   8.861  18.708  0.00  0.00    +0.000 A 
ATOM     11  C   UNL     1       2.215   7.502  18.854  0.00  0.00    +0.000 A 
ATOM     12  N   UNL     1       2.128   9.719  17.662  0.00  0.00    +0.000 NA
ATOM     13  N   UNL     1       1.630  10.905  17.991  0.00  0.00    +0.000 NA
ATOM     14  N   UNL     1       1.107  10.795  19.226  0.00  0.00    +0.000 N 
ATOM     15  C   UNL     1       0.431  11.907  19.836  0.00  0.00    +0.000 C 
ENDBRANCH   3   6
ENDBRANCH   1   2
BRANCH   1  16
ATOM     16  C   UNL     1       4.149   3.059  18.684  0.00  0.00    +0.000 C 
BRANCH  16  17
ATOM     17  C   UNL     1       3.272   1.827  18.550  0.00  0.00    +0.000 C 
ATOM     18  O   UNL     1       2.050   1.845  18.570  0.00  0.00    +0.000 OA
BRANCH  17  19
ATOM     19  O   UNL     1       3.958   0.677  18.369  0.00  0.00    +0.000 OA
ATOM     20  H   UNL     1       3.464  -0.138  18.582  0.00  0.00    +0.000 HD
ENDBRANCH  17  19
ENDBRANCH  16  17
BRANCH  16  21
ATOM     21  C   UNL     1       3.835   4.005  17.508  0.00  0.00    +0.000 C 
BRANCH  21  27
ATOM     22  C   UNL     1       6.112   3.660  13.046  0.00  0.00    +0.000 C 
ATOM     23  C   UNL     1       6.114   4.177  14.454  0.00  0.00    +0.000 A 
ATOM     24  C   UNL     1       7.132   5.010  14.922  0.00  0.00    +0.000 A 
ATOM     25  C   UNL     1       7.137   5.436  16.251  0.00  0.00    +0.000 A 
ATOM     26  C   UNL     1       6.100   5.070  17.113  0.00  0.00    +0.000 A 
ATOM     27  C   UNL     1       5.039   4.288  16.644  0.00  0.00    +0.000 A 
ATOM     28  C   UNL     1       5.075   3.819  15.323  0.00  0.00    +0.000 A 
ENDBRANCH  21  27
ENDBRANCH  16  21
ENDBRANCH   1  16
TORSDOF 7
ENDMDL
MODEL 4
REMARK VINA RESULT:      -7.8      0.731      1.460
REMARK  Name = 
REMARK  9 active torsions:
REMARK  status: ('A' for Active; 'I' for Inactive)
REMARK    1  A    between atoms: C_1  and  C_2
REMARK    2  A    between atoms: C_6  and  C_7
REMARK    3  A    between atoms: C_7  and  C_8
REMARK    4  A    between atoms: C_8  and  C_9
REMARK    5  A    between atoms: C_8  and  C_23
REMARK    6  A    between atoms: C_9  and  N_10
REMARK    7  A    between atoms: C_11  and  C_13
REMARK    8  A    between atoms: N_21  and  C_22
REMARK    9  A    between atoms: C_23  and  O_25
REMARK                            x       y       z     vdW  Elec       q    Type
REMARK                         _______ _______ _______ _____ _____    ______ ____
ROOT
ATOM      1  C   UNL     1       3.685   3.775  20.144  0.00  0.00    +0.000 C 
ENDROOT
BRANCH   1   2
ATOM      2  N   UNL     1       3.246   5.155  20.052  0.00  0.00    +0.000 N 
ATOM      3  C   UNL     1       1.971   5.585  20.335  0.00  0.00    +0.000 C 
ATOM      4  O   UNL     1       1.065   4.860  20.718  0.00  0.00    +0.000 OA
ATOM      5  H   UNL     1       3.826   5.757  19.468  0.00  0.00    +0.000 HD
BRANCH   3   6
ATOM      6  C   UNL     1       1.749   7.042  20.122  0.00  0.00    +0.000 A 
ATOM      7  C   UNL     1       1.943   7.570  18.838  0.00  0.00    +0.000 A 
ATOM      8  C   UNL     1       1.794   8.939  18.585  0.00  0.00    +0.000 A 
ATOM      9  C   UNL     1       1.415   9.738  19.668  0.00  0.00    +0.000 A 
ATOM     10  C   UNL     1       1.178   9.235  20.942  0.00  0.00    +0.000 A 
ATOM     11  C   UNL     1       1.347   7.867  21.189  0.00  0.00    +0.000 A 
ATOM     12  N   UNL     1       0.799  10.255  21.775  0.00  0.00    +0.000 NA
ATOM     13  N   UNL     1       0.812  11.384  21.078  0.00  0.00    +0.000 NA
ATOM     14  N   UNL     1       1.192  11.079  19.823  0.00  0.00    +0.000 N 
ATOM     15  C   UNL     1       1.364  12.113  18.840  0.00  0.00    +0.000 C 
ENDBRANCH   3   6
ENDBRANCH   1   2
BRANCH   1  16
ATOM     16  C   UNL     1       3.968   3.165  18.756  0.00  0.00    +0.000 C 
BRANCH  16  17
ATOM     17  C   UNL     1       3.166   1.884  18.606  0.00  0.00    +0.000 C 
ATOM     18  O   UNL     1       1.955   1.806  18.759  0.00  0.00    +0.000 OA
BRANCH  17  19
ATOM     19  O   UNL     1       3.903   0.810  18.248  0.00  0.00    +0.000 OA
ATOM     20  H   UNL     1       3.518  -0.055  18.489  0.00  0.00    +0.000 HD
ENDBRANCH  17  19
ENDBRANCH  16  17
BRANCH  16  21
ATOM     21  C   UNL     1       3.625   4.090  17.572  0.00  0.00    +0.000 C 
BRANCH  21  27
ATOM     22  C   UNL     1       7.495   7.289  17.487  0.00  0.00    +0.000 C 
ATOM     23  C   UNL     1       6.769   6.133  16.866  0.00  0.00    +0.000 A 
ATOM     24  C   UNL     1       7.273   5.474  15.743  0.00  0.00    +0.000 A 
ATOM     25  C   UNL     1       6.552   4.435  15.154  0.00  0.00    +0.000 A 
ATOM     26  C   UNL     1       5.340   4.015  15.708  0.00  0.00    +0.000 A 
ATOM     27  C   UNL     1       4.850   4.622  16.869  0.00  0.00    +0.000 A 
ATOM     28  C   UNL     1       5.556   5.702  17.418  0.00  0.00    +0.000 A 
ENDBRANCH  21  27
ENDBRANCH  16  21
ENDBRANCH   1  16
TORSDOF 7
ENDMDL
MODEL 5
REMARK VINA RESULT:      -7.7      2.120      3.387
REMARK  Name = 
REMARK  9 active torsions:
REMARK  status: ('A' for Active; 'I' for Inactive)
REMARK    1  A    between atoms: C_1  and  C_2
REMARK    2  A    between atoms: C_6  and  C_7
REMARK    3  A    between atoms: C_7  and  C_8
REMARK    4  A    between atoms: C_8  and  C_9
REMARK    5  A    between atoms: C_8  and  C_23
REMARK    6  A    between atoms: C_9  and  N_10
REMARK    7  A    between atoms: C_11  and  C_13
REMARK    8  A    between atoms: N_21  and  C_22
REMARK    9  A    between atoms: C_23  and  O_25
REMARK                            x       y       z     vdW  Elec       q    Type
REMARK                         _______ _______ _______ _____ _____    ______ ____
ROOT
ATOM      1  C   UNL     1       3.173   6.580  18.262  0.00  0.00    +0.000 C 
ENDROOT
BRANCH   1   2
ATOM      2  N   UNL     1       2.305   7.508  18.963  0.00  0.00    +0.000 N 
ATOM      3  C   UNL     1       1.862   8.702  18.443  0.00  0.00    +0.000 C 
ATOM      4  O   UNL     1       2.129   9.110  17.322  0.00  0.00    +0.000 OA
ATOM      5  H   UNL     1       2.283   7.401  19.977  0.00  0.00    +0.000 HD
BRANCH   3   6
ATOM      6  C   UNL     1       1.019   9.505  19.371  0.00  0.00    +0.000 A 
ATOM      7  C   UNL     1       0.894   9.081  20.702  0.00  0.00    +0.000 A 
ATOM      8  C   UNL     1       0.080   9.768  21.610  0.00  0.00    +0.000 A 
ATOM      9  C   UNL     1      -0.571  10.907  21.129  0.00  0.00    +0.000 A 
ATOM     10  C   UNL     1      -0.434  11.373  19.826  0.00  0.00    +0.000 A 
ATOM     11  C   UNL     1       0.368  10.669  18.920  0.00  0.00    +0.000 A 
ATOM     12  N   UNL     1      -1.171  12.517  19.667  0.00  0.00    +0.000 NA
ATOM     13  N   UNL     1      -1.785  12.776  20.815  0.00  0.00    +0.000 NA
ATOM     14  N   UNL     1      -1.438  11.809  21.684  0.00  0.00    +0.000 N 
ATOM     15  C   UNL     1      -2.000  11.779  23.007  0.00  0.00    +0.000 C 
ENDBRANCH   3   6
ENDBRANCH   1   2
BRANCH   1  16
ATOM     16  C   UNL     1       3.481   5.327  19.106  0.00  0.00    +0.000 C 
BRANCH  16  17
ATOM     17  C   UNL     1       2.300   5.041  20.018  0.00  0.00    +0.000 C 
ATOM     18  O   UNL     1       1.314   4.400  19.687  0.00  0.00    +0.000 OA
BRANCH  17  19
ATOM     19  O   UNL     1       2.438   5.533  21.269  0.00  0.00    +0.000 OA
ATOM     20  H   UNL     1       1.659   6.011  21.613  0.00  0.00    +0.000 HD
ENDBRANCH  17  19
ENDBRANCH  16  17
BRANCH  16  21
ATOM     21  C   UNL     1       3.771   4.058  18.281  0.00  0.00    +0.000 C 
BRANCH  21  27
ATOM     22  C   UNL     1       5.969   3.994  13.765  0.00  0.00    +0.000 C 
ATOM     23  C   UNL     1       6.079   4.208  15.246  0.00  0.00    +0.000 A 
ATOM     24  C   UNL     1       7.273   4.631  15.834  0.00  0.00    +0.000 A 
ATOM     25  C   UNL     1       7.363   4.772  17.219  0.00  0.00    +0.000 A 
ATOM     26  C   UNL     1       6.247   4.536  18.026  0.00  0.00    +0.000 A 
ATOM     27  C   UNL     1       5.026   4.173  17.449  0.00  0.00    +0.000 A 
ATOM     28  C   UNL     1       4.964   3.978  16.062  0.00  0.00    +0.000 A 
ENDBRANCH  21  27
ENDBRANCH  16  21
ENDBRANCH   1  16
TORSDOF 7
ENDMDL
MODEL 6
REMARK VINA RESULT:      -7.7      2.464      4.250
REMARK  Name = 
REMARK  9 active torsions:
REMARK  status: ('A' for Active; 'I' for Inactive)
REMARK    1  A    between atoms: C_1  and  C_2
REMARK    2  A    between atoms: C_6  and  C_7
REMARK    3  A    between atoms: C_7  and  C_8
REMARK    4  A    between atoms: C_8  and  C_9
REMARK    5  A    between atoms: C_8  and  C_23
REMARK    6  A    between atoms: C_9  and  N_10
REMARK    7  A    between atoms: C_11  and  C_13
REMARK    8  A    between atoms: N_21  and  C_22
REMARK    9  A    between atoms: C_23  and  O_25
REMARK                            x       y       z     vdW  Elec       q    Type
REMARK                         _______ _______ _______ _____ _____    ______ ____
ROOT
ATOM      1  C   UNL     1       5.744   6.468  17.121  0.00  0.00    +0.000 C 
ENDROOT
BRANCH   1   2
ATOM      2  N   UNL     1       4.677   6.964  17.972  0.00  0.00    +0.000 N 
ATOM      3  C   UNL     1       3.520   7.544  17.509  0.00  0.00    +0.000 C 
ATOM      4  O   UNL     1       3.243   7.689  16.328  0.00  0.00    +0.000 OA
ATOM      5  H   UNL     1       4.947   7.158  18.937  0.00  0.00    +0.000 HD
BRANCH   3   6
ATOM      6  C   UNL     1       2.596   8.018  18.577  0.00  0.00    +0.000 A 
ATOM      7  C   UNL     1       2.449   7.238  19.732  0.00  0.00    +0.000 A 
ATOM      8  C   UNL     1       1.563   7.607  20.751  0.00  0.00    +0.000 A 
ATOM      9  C   UNL     1       0.862   8.802  20.567  0.00  0.00    +0.000 A 
ATOM     10  C   UNL     1       1.018   9.616  19.451  0.00  0.00    +0.000 A 
ATOM     11  C   UNL     1       1.893   9.229  18.429  0.00  0.00    +0.000 A 
ATOM     12  N   UNL     1       0.219  10.722  19.573  0.00  0.00    +0.000 NA
ATOM     13  N   UNL     1      -0.450  10.624  20.715  0.00  0.00    +0.000 NA
ATOM     14  N   UNL     1      -0.077   9.472  21.303  0.00  0.00    +0.000 N 
ATOM     15  C   UNL     1      -0.684   9.051  22.536  0.00  0.00    +0.000 C 
ENDBRANCH   3   6
ENDBRANCH   1   2
BRANCH   1  16
ATOM     16  C   UNL     1       5.846   4.930  17.160  0.00  0.00    +0.000 C 
BRANCH  16  17
ATOM     17  C   UNL     1       7.270   4.520  16.830  0.00  0.00    +0.000 C 
ATOM     18  O   UNL     1       7.782   4.633  15.726  0.00  0.00    +0.000 OA
BRANCH  17  19
ATOM     19  O   UNL     1       7.964   4.039  17.884  0.00  0.00    +0.000 OA
ATOM     20  H   UNL     1       8.849   3.685  17.671  0.00  0.00    +0.000 HD
ENDBRANCH  17  19
ENDBRANCH  16  17
BRANCH  16  21
ATOM     21  C   UNL     1       5.463   4.300  18.513  0.00  0.00    +0.000 C 
BRANCH  21  27
ATOM     22  C   UNL     1       1.462   3.125  21.312  0.00  0.00    +0.000 C 
ATOM     23  C   UNL     1       2.047   3.413  19.961  0.00  0.00    +0.000 A 
ATOM     24  C   UNL     1       1.247   3.460  18.816  0.00  0.00    +0.000 A 
ATOM     25  C   UNL     1       1.823   3.679  17.565  0.00  0.00    +0.000 A 
ATOM     26  C   UNL     1       3.198   3.898  17.450  0.00  0.00    +0.000 A 
ATOM     27  C   UNL     1       4.005   3.918  18.592  0.00  0.00    +0.000 A 
ATOM     28  C   UNL     1       3.423   3.639  19.837  0.00  0.00    +0.000 A 
ENDBRANCH  21  27
ENDBRANCH  16  21
ENDBRANCH   1  16
TORSDOF 7
ENDMDL
MODEL 7
REMARK VINA RESULT:      -7.7      2.170      3.229
REMARK  Name = 
REMARK  9 active torsions:
REMARK  status: ('A' for Active; 'I' for Inactive)
REMARK    1  A    between atoms: C_1  and  C_2
REMARK    2  A    between atoms: C_6  and  C_7
REMARK    3  A    between atoms: C_7  and  C_8
REMARK    4  A    between atoms: C_8  and  C_9
REMARK    5  A    between atoms: C_8  and  C_23
REMARK    6  A    between atoms: C_9  and  N_10
REMARK    7  A    between atoms: C_11  and  C_13
REMARK    8  A    between atoms: N_21  and  C_22
REMARK    9  A    between atoms: C_23  and  O_25
REMARK                            x       y       z     vdW  Elec       q    Type
REMARK                         _______ _______ _______ _____ _____    ______ ____
ROOT
ATOM      1  C   UNL     1       3.112   5.949  18.180  0.00  0.00    +0.000 C 
ENDROOT
BRANCH   1   2
ATOM      2  N   UNL     1       2.400   6.965  18.933  0.00  0.00    +0.000 N 
ATOM      3  C   UNL     1       2.087   8.213  18.450  0.00  0.00    +0.000 C 
ATOM      4  O   UNL     1       2.352   8.607  17.324  0.00  0.00    +0.000 OA
ATOM      5  H   UNL     1       2.410   6.841  19.945  0.00  0.00    +0.000 HD
BRANCH   3   6
ATOM      6  C   UNL     1       1.394   9.098  19.428  0.00  0.00    +0.000 A 
ATOM      7  C   UNL     1       1.047  10.396  19.031  0.00  0.00    +0.000 A 
ATOM      8  C   UNL     1       0.434  11.289  19.919  0.00  0.00    +0.000 A 
ATOM      9  C   UNL     1       0.162  10.807  21.202  0.00  0.00    +0.000 A 
ATOM     10  C   UNL     1       0.458   9.511  21.610  0.00  0.00    +0.000 A 
ATOM     11  C   UNL     1       1.087   8.631  20.720  0.00  0.00    +0.000 A 
ATOM     12  N   UNL     1       0.049   9.332  22.906  0.00  0.00    +0.000 NA
ATOM     13  N   UNL     1      -0.472  10.475  23.335  0.00  0.00    +0.000 NA
ATOM     14  N   UNL     1      -0.393  11.360  22.324  0.00  0.00    +0.000 N 
ATOM     15  C   UNL     1      -0.823  12.719  22.506  0.00  0.00    +0.000 C 
ENDBRANCH   3   6
ENDBRANCH   1   2
BRANCH   1  16
ATOM     16  C   UNL     1       3.027   4.564  18.852  0.00  0.00    +0.000 C 
BRANCH  16  17
ATOM     17  C   UNL     1       1.569   4.150  18.950  0.00  0.00    +0.000 C 
ATOM     18  O   UNL     1       0.910   4.186  19.978  0.00  0.00    +0.000 OA
BRANCH  17  19
ATOM     19  O   UNL     1       1.027   3.759  17.776  0.00  0.00    +0.000 OA
ATOM     20  H   UNL     1       1.671   3.518  17.082  0.00  0.00    +0.000 HD
ENDBRANCH  17  19
ENDBRANCH  16  17
BRANCH  16  21
ATOM     21  C   UNL     1       3.797   3.450  18.116  0.00  0.00    +0.000 C 
BRANCH  21  27
ATOM     22  C   UNL     1       6.465   4.378  13.964  0.00  0.00    +0.000 C 
ATOM     23  C   UNL     1       6.342   4.453  15.457  0.00  0.00    +0.000 A 
ATOM     24  C   UNL     1       7.318   5.077  16.238  0.00  0.00    +0.000 A 
ATOM     25  C   UNL     1       7.205   5.088  17.628  0.00  0.00    +0.000 A 
ATOM     26  C   UNL     1       6.093   4.514  18.250  0.00  0.00    +0.000 A 
ATOM     27  C   UNL     1       5.075   3.941  17.481  0.00  0.00    +0.000 A 
ATOM     28  C   UNL     1       5.228   3.885  16.088  0.00  0.00    +0.000 A 
ENDBRANCH  21  27
ENDBRANCH  16  21
ENDBRANCH   1  16
TORSDOF 7
ENDMDL
MODEL 8
REMARK VINA RESULT:      -7.7      2.755      7.772
REMARK  Name = 
REMARK  9 active torsions:
REMARK  status: ('A' for Active; 'I' for Inactive)
REMARK    1  A    between atoms: C_1  and  C_2
REMARK    2  A    between atoms: C_6  and  C_7
REMARK    3  A    between atoms: C_7  and  C_8
REMARK    4  A    between atoms: C_8  and  C_9
REMARK    5  A    between atoms: C_8  and  C_23
REMARK    6  A    between atoms: C_9  and  N_10
REMARK    7  A    between atoms: C_11  and  C_13
REMARK    8  A    between atoms: N_21  and  C_22
REMARK    9  A    between atoms: C_23  and  O_25
REMARK                            x       y       z     vdW  Elec       q    Type
REMARK                         _______ _______ _______ _____ _____    ______ ____
ROOT
ATOM      1  C   UNL     1       1.349   7.233  21.111  0.00  0.00    +0.000 C 
ENDROOT
BRANCH   1   2
ATOM      2  N   UNL     1       2.346   6.822  20.139  0.00  0.00    +0.000 N 
ATOM      3  C   UNL     1       2.854   5.548  20.038  0.00  0.00    +0.000 C 
ATOM      4  O   UNL     1       2.509   4.608  20.738  0.00  0.00    +0.000 OA
ATOM      5  H   UNL     1       2.895   7.580  19.733  0.00  0.00    +0.000 HD
BRANCH   3   6
ATOM      6  C   UNL     1       3.902   5.382  18.992  0.00  0.00    +0.000 A 
ATOM      7  C   UNL     1       3.556   5.610  17.653  0.00  0.00    +0.000 A 
ATOM      8  C   UNL     1       4.485   5.428  16.621  0.00  0.00    +0.000 A 
ATOM      9  C   UNL     1       5.772   5.038  17.001  0.00  0.00    +0.000 A 
ATOM     10  C   UNL     1       6.154   4.844  18.323  0.00  0.00    +0.000 A 
ATOM     11  C   UNL     1       5.213   5.012  19.347  0.00  0.00    +0.000 A 
ATOM     12  N   UNL     1       7.478   4.495  18.374  0.00  0.00    +0.000 NA
ATOM     13  N   UNL     1       7.937   4.440  17.130  0.00  0.00    +0.000 NA
ATOM     14  N   UNL     1       6.918   4.751  16.309  0.00  0.00    +0.000 N 
ATOM     15  C   UNL     1       7.090   4.713  14.882  0.00  0.00    +0.000 C 
ENDBRANCH   3   6
ENDBRANCH   1   2
BRANCH   1  16
ATOM     16  C   UNL     1       0.816   8.651  20.828  0.00  0.00    +0.000 C 
BRANCH  16  17
ATOM     17  C   UNL     1       1.032   9.516  22.057  0.00  0.00    +0.000 C 
ATOM     18  O   UNL     1       0.246  10.366  22.449  0.00  0.00    +0.000 OA
BRANCH  17  19
ATOM     19  O   UNL     1       2.175   9.248  22.726  0.00  0.00    +0.000 OA
ATOM     20  H   UNL     1       2.886   9.908  22.612  0.00  0.00    +0.000 HD
ENDBRANCH  17  19
ENDBRANCH  16  17
BRANCH  16  21
ATOM     21  C   UNL     1       1.475   9.351  19.623  0.00  0.00    +0.000 C 
BRANCH  21  27
ATOM     22  C   UNL     1      -2.963  11.031  17.978  0.00  0.00    +0.000 C 
ATOM     23  C   UNL     1      -1.534  11.313  18.339  0.00  0.00    +0.000 A 
ATOM     24  C   UNL     1      -1.016  12.609  18.298  0.00  0.00    +0.000 A 
ATOM     25  C   UNL     1       0.330  12.837  18.589  0.00  0.00    +0.000 A 
ATOM     26  C   UNL     1       1.159  11.778  18.967  0.00  0.00    +0.000 A 
ATOM     27  C   UNL     1       0.641  10.483  19.074  0.00  0.00    +0.000 A 
ATOM     28  C   UNL     1      -0.697  10.258  18.724  0.00  0.00    +0.000 A 
ENDBRANCH  21  27
ENDBRANCH  16  21
ENDBRANCH   1  16
TORSDOF 7
ENDMDL
MODEL 9
REMARK VINA RESULT:      -7.7      2.725      3.918
REMARK  Name = 
REMARK  9 active torsions:
REMARK  status: ('A' for Active; 'I' for Inactive)
REMARK    1  A    between atoms: C_1  and  C_2
REMARK    2  A    between atoms: C_6  and  C_7
REMARK    3  A    between atoms: C_7  and  C_8
REMARK    4  A    between atoms: C_8  and  C_9
REMARK    5  A    between atoms: C_8  and  C_23
REMARK    6  A    between atoms: C_9  and  N_10
REMARK    7  A    between atoms: C_11  and  C_13
REMARK    8  A    between atoms: N_21  and  C_22
REMARK    9  A    between atoms: C_23  and  O_25
REMARK                            x       y       z     vdW  Elec       q    Type
REMARK                         _______ _______ _______ _____ _____    ______ ____
ROOT
ATOM      1  C   UNL     1       4.812   4.858  17.835  0.00  0.00    +0.000 C 
ENDROOT
BRANCH   1   2
ATOM      2  N   UNL     1       4.059   5.986  18.354  0.00  0.00    +0.000 N 
ATOM      3  C   UNL     1       2.689   6.091  18.309  0.00  0.00    +0.000 C 
ATOM      4  O   UNL     1       1.943   5.240  17.849  0.00  0.00    +0.000 OA
ATOM      5  H   UNL     1       4.593   6.847  18.472  0.00  0.00    +0.000 HD
BRANCH   3   6
ATOM      6  C   UNL     1       2.150   7.365  18.863  0.00  0.00    +0.000 A 
ATOM      7  C   UNL     1       1.933   8.439  17.989  0.00  0.00    +0.000 A 
ATOM      8  C   UNL     1       1.471   9.675  18.456  0.00  0.00    +0.000 A 
ATOM      9  C   UNL     1       1.211   9.768  19.826  0.00  0.00    +0.000 A 
ATOM     10  C   UNL     1       1.379   8.708  20.710  0.00  0.00    +0.000 A 
ATOM     11  C   UNL     1       1.858   7.481  20.235  0.00  0.00    +0.000 A 
ATOM     12  N   UNL     1       1.018   9.100  21.972  0.00  0.00    +0.000 NA
ATOM     13  N   UNL     1       0.652  10.375  21.919  0.00  0.00    +0.000 NA
ATOM     14  N   UNL     1       0.779  10.779  20.642  0.00  0.00    +0.000 N 
ATOM     15  C   UNL     1       0.516  12.144  20.277  0.00  0.00    +0.000 C 
ENDBRANCH   3   6
ENDBRANCH   1   2
BRANCH   1  16
ATOM     16  C   UNL     1       5.259   5.083  16.377  0.00  0.00    +0.000 C 
BRANCH  16  17
ATOM     17  C   UNL     1       5.419   6.573  16.132  0.00  0.00    +0.000 C 
ATOM     18  O   UNL     1       4.720   7.225  15.370  0.00  0.00    +0.000 OA
BRANCH  17  19
ATOM     19  O   UNL     1       6.396   7.151  16.864  0.00  0.00    +0.000 OA
ATOM     20  H   UNL     1       6.659   6.659  17.666  0.00  0.00    +0.000 HD
ENDBRANCH  17  19
ENDBRANCH  16  17
BRANCH  16  21
ATOM     21  C   UNL     1       6.582   4.388  16.003  0.00  0.00    +0.000 C 
BRANCH  21  27
ATOM     22  C   UNL     1       5.269   2.535  11.523  0.00  0.00    +0.000 C 
ATOM     23  C   UNL     1       6.123   3.469  12.328  0.00  0.00    +0.000 A 
ATOM     24  C   UNL     1       7.013   4.353  11.715  0.00  0.00    +0.000 A 
ATOM     25  C   UNL     1       7.833   5.175  12.488  0.00  0.00    +0.000 A 
ATOM     26  C   UNL     1       7.740   5.153  13.882  0.00  0.00    +0.000 A 
ATOM     27  C   UNL     1       6.809   4.321  14.512  0.00  0.00    +0.000 A 
ATOM     28  C   UNL     1       6.032   3.458  13.726  0.00  0.00    +0.000 A 
ENDBRANCH  21  27
ENDBRANCH  16  21
ENDBRANCH   1  16
TORSDOF 7
ENDMDL
