MODEL 1
REMARK VINA RESULT:      -9.4      0.000      0.000
REMARK  Name = 
REMARK  3 active torsions:
REMARK  status: ('A' for Active; 'I' for Inactive)
REMARK    1  A    between atoms: C_8  and  C_9
REMARK    2  A    between atoms: N_15  and  C_16
REMARK    3  A    between atoms: C_20  and  N_21
REMARK                            x       y       z     vdW  Elec       q    Type
REMARK                         _______ _______ _______ _____ _____    ______ ____
ROOT
ATOM      1  O   UNL     1       2.268   8.837  17.401  0.00  0.00    +0.000 OA
ATOM      2  C   UNL     1       1.875   8.677  18.545  0.00  0.00    +0.000 C 
ATOM      3  C   UNL     1       1.021   9.666  19.188  0.00  0.00    +0.000 A 
ATOM      4  C   UNL     1       0.514  10.818  18.621  0.00  0.00    +0.000 A 
ATOM      5  C   UNL     1      -0.287  11.603  19.427  0.00  0.00    +0.000 A 
ATOM      6  F   UNL     1      -0.814  12.729  18.932  0.00  0.00    +0.000 F 
ATOM      7  C   UNL     1      -0.558  11.246  20.755  0.00  0.00    +0.000 A 
ATOM      8  C   UNL     1      -0.029  10.063  21.319  0.00  0.00    +0.000 A 
ATOM      9  C   UNL     1       0.765   9.264  20.497  0.00  0.00    +0.000 A 
ATOM     10  C   UNL     1       1.455   7.949  20.751  0.00  0.00    +0.000 C 
ATOM     11  N   UNL     1       2.101   7.658  19.470  0.00  0.00    +0.000 N 
ENDROOT
BRANCH  11  12
ATOM     12  C   UNL     1       2.796   6.445  19.190  0.00  0.00    +0.000 A 
ATOM     13  C   UNL     1       2.604   5.314  19.996  0.00  0.00    +0.000 A 
ATOM     14  C   UNL     1       3.298   4.131  19.767  0.00  0.00    +0.000 A 
ATOM     15  C   UNL     1       4.199   4.050  18.713  0.00  0.00    +0.000 A 
ATOM     16  C   UNL     1       4.415   5.141  17.856  0.00  0.00    +0.000 A 
ATOM     17  C   UNL     1       3.704   6.336  18.122  0.00  0.00    +0.000 A 
BRANCH  16  18
ATOM     18  N   UNL     1       5.350   5.049  16.804  0.00  0.00    +0.000 N 
ATOM     19  C   UNL     1       6.523   5.765  16.756  0.00  0.00    +0.000 C 
ATOM     20  N   UNL     1       7.405   5.806  15.819  0.00  0.00    +0.000 NA
ATOM     21  C   UNL     1       7.135   4.999  14.624  0.00  0.00    +0.000 C 
ATOM     22  C   UNL     1       6.209   3.824  14.899  0.00  0.00    +0.000 C 
ATOM     23  C   UNL     1       4.954   4.322  15.597  0.00  0.00    +0.000 C 
ENDBRANCH  16  18
ENDBRANCH  11  12
BRANCH   8  24
ATOM     24  C   UNL     1      -0.320   9.707  22.751  0.00  0.00    +0.000 C 
ATOM     25  F   UNL     1       0.799   9.524  23.503  0.00  0.00    +0.000 F 
ATOM     26  F   UNL     1      -1.049  10.665  23.384  0.00  0.00    +0.000 F 
ATOM     27  F   UNL     1      -1.037   8.556  22.858  0.00  0.00    +0.000 F 
ENDBRANCH   8  24
TORSDOF 3
ENDMDL
MODEL 2
REMARK VINA RESULT:      -8.4      4.406      8.694
REMARK  Name = 
REMARK  3 active torsions:
REMARK  status: ('A' for Active; 'I' for Inactive)
REMARK    1  A    between atoms: C_8  and  C_9
REMARK    2  A    between atoms: N_15  and  C_16
REMARK    3  A    between atoms: C_20  and  N_21
REMARK                            x       y       z     vdW  Elec       q    Type
REMARK                         _______ _______ _______ _____ _____    ______ ____
ROOT
ATOM      1  O   UNL     1       1.453   5.635  20.274  0.00  0.00    +0.000 OA
ATOM      2  C   UNL     1       2.230   5.722  19.337  0.00  0.00    +0.000 C 
ATOM      3  C   UNL     1       2.901   4.542  18.811  0.00  0.00    +0.000 A 
ATOM      4  C   UNL     1       2.727   3.235  19.222  0.00  0.00    +0.000 A 
ATOM      5  C   UNL     1       3.470   2.275  18.564  0.00  0.00    +0.000 A 
ATOM      6  F   UNL     1       3.340   0.990  18.913  0.00  0.00    +0.000 F 
ATOM      7  C   UNL     1       4.362   2.619  17.539  0.00  0.00    +0.000 A 
ATOM      8  C   UNL     1       4.528   3.962  17.132  0.00  0.00    +0.000 A 
ATOM      9  C   UNL     1       3.764   4.928  17.787  0.00  0.00    +0.000 A 
ATOM     10  C   UNL     1       3.665   6.418  17.598  0.00  0.00    +0.000 C 
ATOM     11  N   UNL     1       2.670   6.817  18.595  0.00  0.00    +0.000 N 
ENDROOT
BRANCH  11  12
ATOM     12  C   UNL     1       2.162   8.143  18.722  0.00  0.00    +0.000 A 
ATOM     13  C   UNL     1       2.419   9.100  17.731  0.00  0.00    +0.000 A 
ATOM     14  C   UNL     1       1.967  10.410  17.850  0.00  0.00    +0.000 A 
ATOM     15  C   UNL     1       1.234  10.790  18.966  0.00  0.00    +0.000 A 
ATOM     16  C   UNL     1       0.924   9.870  19.980  0.00  0.00    +0.000 A 
ATOM     17  C   UNL     1       1.408   8.547  19.838  0.00  0.00    +0.000 A 
BRANCH  16  18
ATOM     18  N   UNL     1       0.197  10.279  21.119  0.00  0.00    +0.000 N 
ATOM     19  C   UNL     1       0.284   9.663  22.345  0.00  0.00    +0.000 C 
ATOM     20  N   UNL     1      -0.379   9.912  23.420  0.00  0.00    +0.000 NA
ATOM     21  C   UNL     1      -1.379  10.982  23.346  0.00  0.00    +0.000 C 
ATOM     22  C   UNL     1      -1.080  11.997  22.252  0.00  0.00    +0.000 C 
ATOM     23  C   UNL     1      -0.864  11.270  20.935  0.00  0.00    +0.000 C 
ENDBRANCH  16  18
ENDBRANCH  11  12
BRANCH   8  24
ATOM     24  C   UNL     1       5.502   4.312  16.040  0.00  0.00    +0.000 C 
ATOM     25  F   UNL     1       4.937   4.992  15.005  0.00  0.00    +0.000 F 
ATOM     26  F   UNL     1       6.525   5.087  16.489  0.00  0.00    +0.000 F 
ATOM     27  F   UNL     1       6.078   3.207  15.494  0.00  0.00    +0.000 F 
ENDBRANCH   8  24
TORSDOF 3
ENDMDL
MODEL 3
REMARK VINA RESULT:      -8.4      1.256      1.709
REMARK  Name = 
REMARK  3 active torsions:
REMARK  status: ('A' for Active; 'I' for Inactive)
REMARK    1  A    between atoms: C_8  and  C_9
REMARK    2  A    between atoms: N_15  and  C_16
REMARK    3  A    between atoms: C_20  and  N_21
REMARK                            x       y       z     vdW  Elec       q    Type
REMARK                         _______ _______ _______ _____ _____    ______ ____
ROOT
ATOM      1  O   UNL     1       2.074   9.547  17.311  0.00  0.00    +0.000 OA
ATOM      2  C   UNL     1       1.685   9.227  18.423  0.00  0.00    +0.000 C 
ATOM      3  C   UNL     1       0.949  10.167  19.257  0.00  0.00    +0.000 A 
ATOM      4  C   UNL     1       0.557  11.446  18.917  0.00  0.00    +0.000 A 
ATOM      5  C   UNL     1      -0.145  12.152  19.875  0.00  0.00    +0.000 A 
ATOM      6  F   UNL     1      -0.558  13.396  19.602  0.00  0.00    +0.000 F 
ATOM      7  C   UNL     1      -0.432  11.595  21.128  0.00  0.00    +0.000 A 
ATOM      8  C   UNL     1      -0.021  10.283  21.458  0.00  0.00    +0.000 A 
ATOM      9  C   UNL     1       0.673   9.566  20.484  0.00  0.00    +0.000 A 
ATOM     10  C   UNL     1       1.224   8.166  20.480  0.00  0.00    +0.000 C 
ATOM     11  N   UNL     1       1.817   8.043  19.147  0.00  0.00    +0.000 N 
ENDROOT
BRANCH  11  12
ATOM     12  C   UNL     1       2.376   6.835  18.636  0.00  0.00    +0.000 A 
ATOM     13  C   UNL     1       1.543   5.805  18.178  0.00  0.00    +0.000 A 
ATOM     14  C   UNL     1       2.063   4.602  17.711  0.00  0.00    +0.000 A 
ATOM     15  C   UNL     1       3.438   4.407  17.684  0.00  0.00    +0.000 A 
ATOM     16  C   UNL     1       4.323   5.411  18.106  0.00  0.00    +0.000 A 
ATOM     17  C   UNL     1       3.765   6.620  18.588  0.00  0.00    +0.000 A 
BRANCH  16  18
ATOM     18  N   UNL     1       5.717   5.188  18.093  0.00  0.00    +0.000 N 
ATOM     19  C   UNL     1       6.403   4.694  17.009  0.00  0.00    +0.000 C 
ATOM     20  N   UNL     1       7.652   4.392  16.916  0.00  0.00    +0.000 NA
ATOM     21  C   UNL     1       8.468   4.579  18.120  0.00  0.00    +0.000 C 
ATOM     22  C   UNL     1       7.891   5.616  19.072  0.00  0.00    +0.000 C 
ATOM     23  C   UNL     1       6.437   5.280  19.364  0.00  0.00    +0.000 C 
ENDBRANCH  16  18
ENDBRANCH  11  12
BRANCH   8  24
ATOM     24  C   UNL     1      -0.326   9.710  22.815  0.00  0.00    +0.000 C 
ATOM     25  F   UNL     1       0.784   9.477  23.568  0.00  0.00    +0.000 F 
ATOM     26  F   UNL     1      -1.120  10.528  23.556  0.00  0.00    +0.000 F 
ATOM     27  F   UNL     1      -0.981   8.521  22.734  0.00  0.00    +0.000 F 
ENDBRANCH   8  24
TORSDOF 3
ENDMDL
MODEL 4
REMARK VINA RESULT:      -8.3      4.055      7.915
REMARK  Name = 
REMARK  3 active torsions:
REMARK  status: ('A' for Active; 'I' for Inactive)
REMARK    1  A    between atoms: C_8  and  C_9
REMARK    2  A    between atoms: N_15  and  C_16
REMARK    3  A    between atoms: C_20  and  N_21
REMARK                            x       y       z     vdW  Elec       q    Type
REMARK                         _______ _______ _______ _____ _____    ______ ____
ROOT
ATOM      1  O   UNL     1       3.787   8.016  17.390  0.00  0.00    +0.000 OA
ATOM      2  C   UNL     1       3.396   6.987  17.915  0.00  0.00    +0.000 C 
ATOM      3  C   UNL     1       3.891   5.689  17.477  0.00  0.00    +0.000 A 
ATOM      4  C   UNL     1       4.852   5.449  16.515  0.00  0.00    +0.000 A 
ATOM      5  C   UNL     1       5.170   4.127  16.274  0.00  0.00    +0.000 A 
ATOM      6  F   UNL     1       6.099   3.832  15.358  0.00  0.00    +0.000 F 
ATOM      7  C   UNL     1       4.537   3.087  16.967  0.00  0.00    +0.000 A 
ATOM      8  C   UNL     1       3.553   3.351  17.948  0.00  0.00    +0.000 A 
ATOM      9  C   UNL     1       3.247   4.688  18.201  0.00  0.00    +0.000 A 
ATOM     10  C   UNL     1       2.293   5.325  19.177  0.00  0.00    +0.000 C 
ATOM     11  N   UNL     1       2.473   6.757  18.935  0.00  0.00    +0.000 N 
ENDROOT
BRANCH  11  12
ATOM     12  C   UNL     1       1.847   7.777  19.710  0.00  0.00    +0.000 A 
ATOM     13  C   UNL     1       1.531   7.553  21.057  0.00  0.00    +0.000 A 
ATOM     14  C   UNL     1       0.884   8.517  21.823  0.00  0.00    +0.000 A 
ATOM     15  C   UNL     1       0.548   9.739  21.256  0.00  0.00    +0.000 A 
ATOM     16  C   UNL     1       0.861  10.032  19.919  0.00  0.00    +0.000 A 
ATOM     17  C   UNL     1       1.507   9.026  19.160  0.00  0.00    +0.000 A 
BRANCH  16  18
ATOM     18  N   UNL     1       0.491  11.270  19.352  0.00  0.00    +0.000 N 
ATOM     19  C   UNL     1       1.384  12.269  19.044  0.00  0.00    +0.000 C 
ATOM     20  N   UNL     1       1.146  13.451  18.591  0.00  0.00    +0.000 NA
ATOM     21  C   UNL     1      -0.261  13.806  18.382  0.00  0.00    +0.000 C 
ATOM     22  C   UNL     1      -1.152  12.593  18.162  0.00  0.00    +0.000 C 
ATOM     23  C   UNL     1      -0.935  11.595  19.288  0.00  0.00    +0.000 C 
ENDBRANCH  16  18
ENDBRANCH  11  12
BRANCH   8  24
ATOM     24  C   UNL     1       2.875   2.219  18.669  0.00  0.00    +0.000 C 
ATOM     25  F   UNL     1       1.550   2.105  18.378  0.00  0.00    +0.000 F 
ATOM     26  F   UNL     1       3.431   1.013  18.377  0.00  0.00    +0.000 F 
ATOM     27  F   UNL     1       2.952   2.352  20.021  0.00  0.00    +0.000 F 
ENDBRANCH   8  24
TORSDOF 3
ENDMDL
MODEL 5
REMARK VINA RESULT:      -8.3      4.202      8.132
REMARK  Name = 
REMARK  3 active torsions:
REMARK  status: ('A' for Active; 'I' for Inactive)
REMARK    1  A    between atoms: C_8  and  C_9
REMARK    2  A    between atoms: N_15  and  C_16
REMARK    3  A    between atoms: C_20  and  N_21
REMARK                            x       y       z     vdW  Elec       q    Type
REMARK                         _______ _______ _______ _____ _____    ______ ____
ROOT
ATOM      1  O   UNL     1       1.402   5.115  20.584  0.00  0.00    +0.000 OA
ATOM      2  C   UNL     1       2.076   5.698  19.750  0.00  0.00    +0.000 C 
ATOM      3  C   UNL     1       2.868   4.958  18.778  0.00  0.00    +0.000 A 
ATOM      4  C   UNL     1       2.922   3.586  18.624  0.00  0.00    +0.000 A 
ATOM      5  C   UNL     1       3.741   3.109  17.620  0.00  0.00    +0.000 A 
ATOM      6  F   UNL     1       3.831   1.789  17.418  0.00  0.00    +0.000 F 
ATOM      7  C   UNL     1       4.483   3.977  16.809  0.00  0.00    +0.000 A 
ATOM      8  C   UNL     1       4.415   5.379  16.981  0.00  0.00    +0.000 A 
ATOM      9  C   UNL     1       3.574   5.859  17.985  0.00  0.00    +0.000 A 
ATOM     10  C   UNL     1       3.242   7.261  18.421  0.00  0.00    +0.000 C 
ATOM     11  N   UNL     1       2.287   7.056  19.511  0.00  0.00    +0.000 N 
ENDROOT
BRANCH  11  12
ATOM     12  C   UNL     1       1.602   8.115  20.175  0.00  0.00    +0.000 A 
ATOM     13  C   UNL     1       1.056   7.918  21.451  0.00  0.00    +0.000 A 
ATOM     14  C   UNL     1       0.350   8.924  22.103  0.00  0.00    +0.000 A 
ATOM     15  C   UNL     1       0.183  10.160  21.492  0.00  0.00    +0.000 A 
ATOM     16  C   UNL     1       0.728  10.424  20.226  0.00  0.00    +0.000 A 
ATOM     17  C   UNL     1       1.430   9.378  19.581  0.00  0.00    +0.000 A 
BRANCH  16  18
ATOM     18  N   UNL     1       0.529  11.678  19.610  0.00  0.00    +0.000 N 
ATOM     19  C   UNL     1       1.495  12.654  19.529  0.00  0.00    +0.000 C 
ATOM     20  N   UNL     1       1.397  13.846  19.053  0.00  0.00    +0.000 NA
ATOM     21  C   UNL     1       0.084  14.245  18.535  0.00  0.00    +0.000 C 
ATOM     22  C   UNL     1      -0.765  13.060  18.099  0.00  0.00    +0.000 C 
ATOM     23  C   UNL     1      -0.835  12.046  19.229  0.00  0.00    +0.000 C 
ENDBRANCH  16  18
ENDBRANCH  11  12
BRANCH   8  24
ATOM     24  C   UNL     1       5.232   6.293  16.109  0.00  0.00    +0.000 C 
ATOM     25  F   UNL     1       4.484   7.198  15.420  0.00  0.00    +0.000 F 
ATOM     26  F   UNL     1       6.136   7.015  16.822  0.00  0.00    +0.000 F 
ATOM     27  F   UNL     1       5.947   5.608  15.176  0.00  0.00    +0.000 F 
ENDBRANCH   8  24
TORSDOF 3
ENDMDL
MODEL 6
REMARK VINA RESULT:      -8.3      4.378      8.268
REMARK  Name = 
REMARK  3 active torsions:
REMARK  status: ('A' for Active; 'I' for Inactive)
REMARK    1  A    between atoms: C_8  and  C_9
REMARK    2  A    between atoms: N_15  and  C_16
REMARK    3  A    between atoms: C_20  and  N_21
REMARK                            x       y       z     vdW  Elec       q    Type
REMARK                         _______ _______ _______ _____ _____    ______ ____
ROOT
ATOM      1  O   UNL     1       1.359   6.454  20.855  0.00  0.00    +0.000 OA
ATOM      2  C   UNL     1       1.998   6.807  19.877  0.00  0.00    +0.000 C 
ATOM      3  C   UNL     1       2.973   5.918  19.259  0.00  0.00    +0.000 A 
ATOM      4  C   UNL     1       3.255   4.616  19.623  0.00  0.00    +0.000 A 
ATOM      5  C   UNL     1       4.217   3.962  18.879  0.00  0.00    +0.000 A 
ATOM      6  F   UNL     1       4.530   2.696  19.179  0.00  0.00    +0.000 F 
ATOM      7  C   UNL     1       4.876   4.597  17.818  0.00  0.00    +0.000 A 
ATOM      8  C   UNL     1       4.575   5.931  17.461  0.00  0.00    +0.000 A 
ATOM      9  C   UNL     1       3.591   6.584  18.203  0.00  0.00    +0.000 A 
ATOM     10  C   UNL     1       3.007   7.967  18.086  0.00  0.00    +0.000 C 
ATOM     11  N   UNL     1       2.011   8.002  19.158  0.00  0.00    +0.000 N 
ENDROOT
BRANCH  11  12
ATOM     12  C   UNL     1       1.116   9.091  19.374  0.00  0.00    +0.000 A 
ATOM     13  C   UNL     1       1.248   9.905  20.507  0.00  0.00    +0.000 A 
ATOM     14  C   UNL     1       0.364  10.949  20.759  0.00  0.00    +0.000 A 
ATOM     15  C   UNL     1      -0.672  11.208  19.871  0.00  0.00    +0.000 A 
ATOM     16  C   UNL     1      -0.840  10.443  18.706  0.00  0.00    +0.000 A 
ATOM     17  C   UNL     1       0.067   9.379  18.482  0.00  0.00    +0.000 A 
BRANCH  16  18
ATOM     18  N   UNL     1      -1.911  10.706  17.826  0.00  0.00    +0.000 N 
ATOM     19  C   UNL     1      -2.965  11.535  18.128  0.00  0.00    +0.000 C 
ATOM     20  N   UNL     1      -4.018  11.787  17.430  0.00  0.00    +0.000 NA
ATOM     21  C   UNL     1      -4.136  11.096  16.142  0.00  0.00    +0.000 C 
ATOM     22  C   UNL     1      -2.790  10.676  15.569  0.00  0.00    +0.000 C 
ATOM     23  C   UNL     1      -2.019   9.889  16.617  0.00  0.00    +0.000 C 
ENDBRANCH  16  18
ENDBRANCH  11  12
BRANCH   8  24
ATOM     24  C   UNL     1       5.305   6.599  16.329  0.00  0.00    +0.000 C 
ATOM     25  F   UNL     1       6.174   7.565  16.737  0.00  0.00    +0.000 F 
ATOM     26  F   UNL     1       6.037   5.719  15.594  0.00  0.00    +0.000 F 
ATOM     27  F   UNL     1       4.455   7.203  15.455  0.00  0.00    +0.000 F 
ENDBRANCH   8  24
TORSDOF 3
ENDMDL
MODEL 7
REMARK VINA RESULT:      -8.3      4.336      8.298
REMARK  Name = 
REMARK  3 active torsions:
REMARK  status: ('A' for Active; 'I' for Inactive)
REMARK    1  A    between atoms: C_8  and  C_9
REMARK    2  A    between atoms: N_15  and  C_16
REMARK    3  A    between atoms: C_20  and  N_21
REMARK                            x       y       z     vdW  Elec       q    Type
REMARK                         _______ _______ _______ _____ _____    ______ ____
ROOT
ATOM      1  O   UNL     1       1.457   6.402  20.828  0.00  0.00    +0.000 OA
ATOM      2  C   UNL     1       2.099   6.747  19.849  0.00  0.00    +0.000 C 
ATOM      3  C   UNL     1       3.072   5.851  19.240  0.00  0.00    +0.000 A 
ATOM      4  C   UNL     1       3.349   4.551  19.612  0.00  0.00    +0.000 A 
ATOM      5  C   UNL     1       4.311   3.888  18.874  0.00  0.00    +0.000 A 
ATOM      6  F   UNL     1       4.619   2.623  19.183  0.00  0.00    +0.000 F 
ATOM      7  C   UNL     1       4.974   4.515  17.811  0.00  0.00    +0.000 A 
ATOM      8  C   UNL     1       4.678   5.847  17.445  0.00  0.00    +0.000 A 
ATOM      9  C   UNL     1       3.694   6.508  18.180  0.00  0.00    +0.000 A 
ATOM     10  C   UNL     1       3.116   7.892  18.053  0.00  0.00    +0.000 C 
ATOM     11  N   UNL     1       2.118   7.937  19.123  0.00  0.00    +0.000 N 
ENDROOT
BRANCH  11  12
ATOM     12  C   UNL     1       1.226   9.030  19.330  0.00  0.00    +0.000 A 
ATOM     13  C   UNL     1       1.396   9.889  20.424  0.00  0.00    +0.000 A 
ATOM     14  C   UNL     1       0.517  10.939  20.669  0.00  0.00    +0.000 A 
ATOM     15  C   UNL     1      -0.553  11.159  19.811  0.00  0.00    +0.000 A 
ATOM     16  C   UNL     1      -0.761  10.348  18.685  0.00  0.00    +0.000 A 
ATOM     17  C   UNL     1       0.142   9.279  18.469  0.00  0.00    +0.000 A 
BRANCH  16  18
ATOM     18  N   UNL     1      -1.867  10.572  17.837  0.00  0.00    +0.000 N 
ATOM     19  C   UNL     1      -2.037   9.953  16.621  0.00  0.00    +0.000 C 
ATOM     20  N   UNL     1      -2.966  10.135  15.748  0.00  0.00    +0.000 NA
ATOM     21  C   UNL     1      -3.982  11.144  16.065  0.00  0.00    +0.000 C 
ATOM     22  C   UNL     1      -4.132  11.383  17.560  0.00  0.00    +0.000 C 
ATOM     23  C   UNL     1      -2.769  11.677  18.165  0.00  0.00    +0.000 C 
ENDBRANCH  16  18
ENDBRANCH  11  12
BRANCH   8  24
ATOM     24  C   UNL     1       5.413   6.506  16.309  0.00  0.00    +0.000 C 
ATOM     25  F   UNL     1       4.591   7.115  15.411  0.00  0.00    +0.000 F 
ATOM     26  F   UNL     1       6.278   7.463  16.740  0.00  0.00    +0.000 F 
ATOM     27  F   UNL     1       6.158   5.618  15.597  0.00  0.00    +0.000 F 
ENDBRANCH   8  24
TORSDOF 3
ENDMDL
MODEL 8
REMARK VINA RESULT:      -8.2      4.211      8.186
REMARK  Name = 
REMARK  3 active torsions:
REMARK  status: ('A' for Active; 'I' for Inactive)
REMARK    1  A    between atoms: C_8  and  C_9
REMARK    2  A    between atoms: N_15  and  C_16
REMARK    3  A    between atoms: C_20  and  N_21
REMARK                            x       y       z     vdW  Elec       q    Type
REMARK                         _______ _______ _______ _____ _____    ______ ____
ROOT
ATOM      1  O   UNL     1       1.453   5.046  20.601  0.00  0.00    +0.000 OA
ATOM      2  C   UNL     1       2.120   5.632  19.764  0.00  0.00    +0.000 C 
ATOM      3  C   UNL     1       2.905   4.895  18.783  0.00  0.00    +0.000 A 
ATOM      4  C   UNL     1       2.960   3.525  18.626  0.00  0.00    +0.000 A 
ATOM      5  C   UNL     1       3.771   3.051  17.614  0.00  0.00    +0.000 A 
ATOM      6  F   UNL     1       3.862   1.731  17.408  0.00  0.00    +0.000 F 
ATOM      7  C   UNL     1       4.506   3.923  16.799  0.00  0.00    +0.000 A 
ATOM      8  C   UNL     1       4.437   5.324  16.975  0.00  0.00    +0.000 A 
ATOM      9  C   UNL     1       3.604   5.800  17.987  0.00  0.00    +0.000 A 
ATOM     10  C   UNL     1       3.273   7.201  18.429  0.00  0.00    +0.000 C 
ATOM     11  N   UNL     1       2.327   6.991  19.526  0.00  0.00    +0.000 N 
ENDROOT
BRANCH  11  12
ATOM     12  C   UNL     1       1.646   8.047  20.199  0.00  0.00    +0.000 A 
ATOM     13  C   UNL     1       1.213   7.885  21.522  0.00  0.00    +0.000 A 
ATOM     14  C   UNL     1       0.512   8.886  22.186  0.00  0.00    +0.000 A 
ATOM     15  C   UNL     1       0.237  10.084  21.539  0.00  0.00    +0.000 A 
ATOM     16  C   UNL     1       0.667  10.315  20.223  0.00  0.00    +0.000 A 
ATOM     17  C   UNL     1       1.366   9.273  19.567  0.00  0.00    +0.000 A 
BRANCH  16  18
ATOM     18  N   UNL     1       0.359  11.529  19.573  0.00  0.00    +0.000 N 
ATOM     19  C   UNL     1      -0.724  11.701  18.743  0.00  0.00    +0.000 C 
ATOM     20  N   UNL     1      -1.054  12.737  18.054  0.00  0.00    +0.000 NA
ATOM     21  C   UNL     1      -0.161  13.897  18.138  0.00  0.00    +0.000 C 
ATOM     22  C   UNL     1       0.650  13.929  19.424  0.00  0.00    +0.000 C 
ATOM     23  C   UNL     1       1.359  12.597  19.608  0.00  0.00    +0.000 C 
ENDBRANCH  16  18
ENDBRANCH  11  12
BRANCH   8  24
ATOM     24  C   UNL     1       5.246   6.241  16.100  0.00  0.00    +0.000 C 
ATOM     25  F   UNL     1       5.933   5.591  15.120  0.00  0.00    +0.000 F 
ATOM     26  F   UNL     1       4.474   7.167  15.470  0.00  0.00    +0.000 F 
ATOM     27  F   UNL     1       6.173   6.941  16.808  0.00  0.00    +0.000 F 
ENDBRANCH   8  24
TORSDOF 3
ENDMDL
MODEL 9
REMARK VINA RESULT:      -8.2      4.252      8.301
REMARK  Name = 
REMARK  3 active torsions:
REMARK  status: ('A' for Active; 'I' for Inactive)
REMARK    1  A    between atoms: C_8  and  C_9
REMARK    2  A    between atoms: N_15  and  C_16
REMARK    3  A    between atoms: C_20  and  N_21
REMARK                            x       y       z     vdW  Elec       q    Type
REMARK                         _______ _______ _______ _____ _____    ______ ____
ROOT
ATOM      1  O   UNL     1       1.403   5.061  20.654  0.00  0.00    +0.000 OA
ATOM      2  C   UNL     1       2.077   5.661  19.832  0.00  0.00    +0.000 C 
ATOM      3  C   UNL     1       2.894   4.941  18.865  0.00  0.00    +0.000 A 
ATOM      4  C   UNL     1       2.975   3.572  18.704  0.00  0.00    +0.000 A 
ATOM      5  C   UNL     1       3.815   3.116  17.707  0.00  0.00    +0.000 A 
ATOM      6  F   UNL     1       3.931   1.800  17.498  0.00  0.00    +0.000 F 
ATOM      7  C   UNL     1       4.551   4.004  16.910  0.00  0.00    +0.000 A 
ATOM      8  C   UNL     1       4.455   5.402  17.091  0.00  0.00    +0.000 A 
ATOM      9  C   UNL     1       3.594   5.861  18.087  0.00  0.00    +0.000 A 
ATOM     10  C   UNL     1       3.231   7.254  18.527  0.00  0.00    +0.000 C 
ATOM     11  N   UNL     1       2.266   7.024  19.604  0.00  0.00    +0.000 N 
ENDROOT
BRANCH  11  12
ATOM     12  C   UNL     1       1.553   8.066  20.266  0.00  0.00    +0.000 A 
ATOM     13  C   UNL     1       1.766   8.319  21.628  0.00  0.00    +0.000 A 
ATOM     14  C   UNL     1       1.056   9.304  22.305  0.00  0.00    +0.000 A 
ATOM     15  C   UNL     1       0.117  10.070  21.627  0.00  0.00    +0.000 A 
ATOM     16  C   UNL     1      -0.123   9.881  20.257  0.00  0.00    +0.000 A 
ATOM     17  C   UNL     1       0.606   8.862  19.596  0.00  0.00    +0.000 A 
BRANCH  16  18
ATOM     18  N   UNL     1      -1.096  10.652  19.587  0.00  0.00    +0.000 N 
ATOM     19  C   UNL     1      -1.755  11.716  20.157  0.00  0.00    +0.000 C 
ATOM     20  N   UNL     1      -2.700  12.437  19.661  0.00  0.00    +0.000 NA
ATOM     21  C   UNL     1      -3.162  12.085  18.315  0.00  0.00    +0.000 C 
ATOM     22  C   UNL     1      -2.109  11.350  17.500  0.00  0.00    +0.000 C 
ATOM     23  C   UNL     1      -1.589  10.165  18.298  0.00  0.00    +0.000 C 
ENDBRANCH  16  18
ENDBRANCH  11  12
BRANCH   8  24
ATOM     24  C   UNL     1       5.266   6.337  16.235  0.00  0.00    +0.000 C 
ATOM     25  F   UNL     1       6.112   7.131  16.948  0.00  0.00    +0.000 F 
ATOM     26  F   UNL     1       6.040   5.673  15.335  0.00  0.00    +0.000 F 
ATOM     27  F   UNL     1       4.482   7.179  15.509  0.00  0.00    +0.000 F 
ENDBRANCH   8  24
TORSDOF 3
ENDMDL
