MODEL 1
REMARK VINA RESULT:      -8.1      0.000      0.000
REMARK  Name = 
REMARK  5 active torsions:
REMARK  status: ('A' for Active; 'I' for Inactive)
REMARK    1  A    between atoms: C_2  and  C_14
REMARK    2  A    between atoms: N_3  and  C_4
REMARK    3  A    between atoms: C_19  and  O_20
REMARK    4  A    between atoms: O_20  and  C_21
REMARK    5  A    between atoms: C_21  and  C_22
REMARK                            x       y       z     vdW  Elec       q    Type
REMARK                         _______ _______ _______ _____ _____    ______ ____
ROOT
ATOM      1  O   UNL     1       3.336   4.889  17.696  0.00  0.00    +0.000 OA
ATOM      2  C   UNL     1       3.990   5.785  17.179  0.00  0.00    +0.000 C 
ATOM      3  N   UNL     1       3.814   7.151  17.405  0.00  0.00    +0.000 N 
ATOM      4  H   UNL     1       4.467   7.792  16.981  0.00  0.00    +0.000 HD
ENDROOT
BRANCH   3   5
ATOM      5  C   UNL     1       2.832   7.746  18.232  0.00  0.00    +0.000 A 
ATOM      6  C   UNL     1       2.576   7.294  19.547  0.00  0.00    +0.000 A 
ATOM      7  C   UNL     1       1.619   7.909  20.367  0.00  0.00    +0.000 A 
ATOM      8  C   UNL     1       0.947   8.975  19.832  0.00  0.00    +0.000 A 
ATOM      9  N   UNL     1      -0.014   9.792  20.412  0.00  0.00    +0.000 N 
ATOM     10  C   UNL     1      -0.396  10.767  19.480  0.00  0.00    +0.000 A 
ATOM     11  O   UNL     1      -1.206  11.660  19.653  0.00  0.00    +0.000 OA
ATOM     12  N   UNL     1       0.342  10.517  18.312  0.00  0.00    +0.000 N 
ATOM     13  C   UNL     1       1.172   9.420  18.532  0.00  0.00    +0.000 A 
ATOM     14  C   UNL     1       2.094   8.820  17.700  0.00  0.00    +0.000 A 
ATOM     15  H   UNL     1      -0.375   9.737  21.349  0.00  0.00    +0.000 HD
ATOM     16  H   UNL     1       0.269  11.081  17.482  0.00  0.00    +0.000 HD
ENDBRANCH   3   5
BRANCH   2  17
ATOM     17  C   UNL     1       5.109   5.427  16.261  0.00  0.00    +0.000 A 
ATOM     18  C   UNL     1       4.933   4.463  15.259  0.00  0.00    +0.000 A 
ATOM     19  C   UNL     1       5.998   4.120  14.431  0.00  0.00    +0.000 A 
ATOM     20  C   UNL     1       7.202   4.772  14.609  0.00  0.00    +0.000 A 
ATOM     21  N   UNL     1       7.397   5.738  15.528  0.00  0.00    +0.000 NA
ATOM     22  C   UNL     1       6.349   6.064  16.328  0.00  0.00    +0.000 A 
BRANCH  22  23
ATOM     23  O   UNL     1       6.577   7.044  17.267  0.00  0.00    +0.000 OA
BRANCH  23  24
ATOM     24  C   UNL     1       7.703   6.779  18.123  0.00  0.00    +0.000 C 
BRANCH  24  25
ATOM     25  C   UNL     1       7.543   5.571  19.046  0.00  0.00    +0.000 C 
ATOM     26  F   UNL     1       8.347   5.609  20.130  0.00  0.00    +0.000 F 
ATOM     27  F   UNL     1       6.266   5.493  19.504  0.00  0.00    +0.000 F 
ATOM     28  F   UNL     1       7.789   4.409  18.394  0.00  0.00    +0.000 F 
ENDBRANCH  24  25
ENDBRANCH  23  24
ENDBRANCH  22  23
ENDBRANCH   2  17
TORSDOF 5
ENDMDL
MODEL 2
REMARK VINA RESULT:      -8.0      4.014      4.582
REMARK  Name = 
REMARK  5 active torsions:
REMARK  status: ('A' for Active; 'I' for Inactive)
REMARK    1  A    between atoms: C_2  and  C_14
REMARK    2  A    between atoms: N_3  and  C_4
REMARK    3  A    between atoms: C_19  and  O_20
REMARK    4  A    between atoms: O_20  and  C_21
REMARK    5  A    between atoms: C_21  and  C_22
REMARK                            x       y       z     vdW  Elec       q    Type
REMARK                         _______ _______ _______ _____ _____    ______ ____
ROOT
ATOM      1  O   UNL     1       4.445   6.143  16.406  0.00  0.00    +0.000 OA
ATOM      2  C   UNL     1       4.781   5.020  16.054  0.00  0.00    +0.000 C 
ATOM      3  N   UNL     1       4.253   3.825  16.545  0.00  0.00    +0.000 N 
ATOM      4  H   UNL     1       4.554   2.960  16.119  0.00  0.00    +0.000 HD
ENDROOT
BRANCH   3   5
ATOM      5  C   UNL     1       3.274   3.691  17.557  0.00  0.00    +0.000 A 
ATOM      6  C   UNL     1       1.908   3.979  17.330  0.00  0.00    +0.000 A 
ATOM      7  C   UNL     1       0.942   3.817  18.334  0.00  0.00    +0.000 A 
ATOM      8  C   UNL     1       1.387   3.360  19.546  0.00  0.00    +0.000 A 
ATOM      9  N   UNL     1       0.667   3.073  20.697  0.00  0.00    +0.000 N 
ATOM     10  C   UNL     1       1.555   2.610  21.679  0.00  0.00    +0.000 A 
ATOM     11  O   UNL     1       1.269   2.249  22.805  0.00  0.00    +0.000 OA
ATOM     12  N   UNL     1       2.837   2.637  21.105  0.00  0.00    +0.000 N 
ATOM     13  C   UNL     1       2.731   3.092  19.792  0.00  0.00    +0.000 A 
ATOM     14  C   UNL     1       3.702   3.261  18.827  0.00  0.00    +0.000 A 
ATOM     15  H   UNL     1      -0.328   3.146  20.828  0.00  0.00    +0.000 HD
ATOM     16  H   UNL     1       3.666   2.343  21.592  0.00  0.00    +0.000 HD
ENDBRANCH   3   5
BRANCH   2  17
ATOM     17  C   UNL     1       5.803   4.875  14.978  0.00  0.00    +0.000 A 
ATOM     18  C   UNL     1       5.478   4.262  13.761  0.00  0.00    +0.000 A 
ATOM     19  C   UNL     1       6.453   4.108  12.778  0.00  0.00    +0.000 A 
ATOM     20  C   UNL     1       7.719   4.599  13.031  0.00  0.00    +0.000 A 
ATOM     21  N   UNL     1       8.057   5.237  14.168  0.00  0.00    +0.000 NA
ATOM     22  C   UNL     1       7.096   5.382  15.117  0.00  0.00    +0.000 A 
BRANCH  22  23
ATOM     23  O   UNL     1       7.470   6.024  16.275  0.00  0.00    +0.000 OA
BRANCH  23  24
ATOM     24  C   UNL     1       7.628   5.145  17.403  0.00  0.00    +0.000 C 
BRANCH  24  25
ATOM     25  C   UNL     1       7.664   5.841  18.764  0.00  0.00    +0.000 C 
ATOM     26  F   UNL     1       6.489   5.790  19.428  0.00  0.00    +0.000 F 
ATOM     27  F   UNL     1       8.596   5.262  19.565  0.00  0.00    +0.000 F 
ATOM     28  F   UNL     1       8.013   7.145  18.648  0.00  0.00    +0.000 F 
ENDBRANCH  24  25
ENDBRANCH  23  24
ENDBRANCH  22  23
ENDBRANCH   2  17
TORSDOF 5
ENDMDL
MODEL 3
REMARK VINA RESULT:      -7.9      2.749      3.719
REMARK  Name = 
REMARK  5 active torsions:
REMARK  status: ('A' for Active; 'I' for Inactive)
REMARK    1  A    between atoms: C_2  and  C_14
REMARK    2  A    between atoms: N_3  and  C_4
REMARK    3  A    between atoms: C_19  and  O_20
REMARK    4  A    between atoms: O_20  and  C_21
REMARK    5  A    between atoms: C_21  and  C_22
REMARK                            x       y       z     vdW  Elec       q    Type
REMARK                         _______ _______ _______ _____ _____    ______ ____
ROOT
ATOM      1  O   UNL     1       5.179   7.702  17.719  0.00  0.00    +0.000 OA
ATOM      2  C   UNL     1       4.399   6.817  17.392  0.00  0.00    +0.000 C 
ATOM      3  N   UNL     1       3.038   6.784  17.697  0.00  0.00    +0.000 N 
ATOM      4  H   UNL     1       2.479   6.041  17.303  0.00  0.00    +0.000 HD
ENDROOT
BRANCH   3   5
ATOM      5  C   UNL     1       2.325   7.733  18.468  0.00  0.00    +0.000 A 
ATOM      6  C   UNL     1       1.653   8.830  17.882  0.00  0.00    +0.000 A 
ATOM      7  C   UNL     1       0.928   9.750  18.653  0.00  0.00    +0.000 A 
ATOM      8  C   UNL     1       0.897   9.528  20.004  0.00  0.00    +0.000 A 
ATOM      9  N   UNL     1       0.239  10.239  20.999  0.00  0.00    +0.000 N 
ATOM     10  C   UNL     1       0.487   9.618  22.232  0.00  0.00    +0.000 A 
ATOM     11  O   UNL     1       0.054   9.960  23.317  0.00  0.00    +0.000 OA
ATOM     12  N   UNL     1       1.325   8.522  21.969  0.00  0.00    +0.000 N 
ATOM     13  C   UNL     1       1.571   8.464  20.599  0.00  0.00    +0.000 A 
ATOM     14  C   UNL     1       2.306   7.558  19.864  0.00  0.00    +0.000 A 
ATOM     15  H   UNL     1      -0.347  11.048  20.884  0.00  0.00    +0.000 HD
ATOM     16  H   UNL     1       1.650   7.893  22.683  0.00  0.00    +0.000 HD
ENDBRANCH   3   5
BRANCH   2  17
ATOM     17  C   UNL     1       4.896   5.688  16.554  0.00  0.00    +0.000 A 
ATOM     18  C   UNL     1       5.649   5.932  15.398  0.00  0.00    +0.000 A 
ATOM     19  C   UNL     1       6.079   4.867  14.612  0.00  0.00    +0.000 A 
ATOM     20  C   UNL     1       5.768   3.584  15.021  0.00  0.00    +0.000 A 
ATOM     21  N   UNL     1       5.089   3.307  16.151  0.00  0.00    +0.000 NA
ATOM     22  C   UNL     1       4.677   4.356  16.909  0.00  0.00    +0.000 A 
BRANCH  22  23
ATOM     23  O   UNL     1       3.973   4.048  18.051  0.00  0.00    +0.000 OA
BRANCH  23  24
ATOM     24  C   UNL     1       2.903   3.109  17.840  0.00  0.00    +0.000 C 
BRANCH  24  25
ATOM     25  C   UNL     1       1.513   3.616  18.224  0.00  0.00    +0.000 C 
ATOM     26  F   UNL     1       0.618   2.628  18.437  0.00  0.00    +0.000 F 
ATOM     27  F   UNL     1       1.577   4.345  19.369  0.00  0.00    +0.000 F 
ATOM     28  F   UNL     1       1.001   4.435  17.274  0.00  0.00    +0.000 F 
ENDBRANCH  24  25
ENDBRANCH  23  24
ENDBRANCH  22  23
ENDBRANCH   2  17
TORSDOF 5
ENDMDL
MODEL 4
REMARK VINA RESULT:      -7.8      2.866      3.779
REMARK  Name = 
REMARK  5 active torsions:
REMARK  status: ('A' for Active; 'I' for Inactive)
REMARK    1  A    between atoms: C_2  and  C_14
REMARK    2  A    between atoms: N_3  and  C_4
REMARK    3  A    between atoms: C_19  and  O_20
REMARK    4  A    between atoms: O_20  and  C_21
REMARK    5  A    between atoms: C_21  and  C_22
REMARK                            x       y       z     vdW  Elec       q    Type
REMARK                         _______ _______ _______ _____ _____    ______ ____
ROOT
ATOM      1  O   UNL     1       3.955   6.069  19.414  0.00  0.00    +0.000 OA
ATOM      2  C   UNL     1       3.718   6.322  18.240  0.00  0.00    +0.000 C 
ATOM      3  N   UNL     1       2.856   7.319  17.783  0.00  0.00    +0.000 N 
ATOM      4  H   UNL     1       2.803   7.486  16.789  0.00  0.00    +0.000 HD
ENDROOT
BRANCH   3   5
ATOM      5  C   UNL     1       2.072   8.184  18.583  0.00  0.00    +0.000 A 
ATOM      6  C   UNL     1       1.372   9.287  18.042  0.00  0.00    +0.000 A 
ATOM      7  C   UNL     1       0.577  10.122  18.841  0.00  0.00    +0.000 A 
ATOM      8  C   UNL     1       0.507   9.812  20.172  0.00  0.00    +0.000 A 
ATOM      9  N   UNL     1      -0.219  10.426  21.183  0.00  0.00    +0.000 N 
ATOM     10  C   UNL     1       0.011   9.739  22.384  0.00  0.00    +0.000 A 
ATOM     11  O   UNL     1      -0.477   9.991  23.470  0.00  0.00    +0.000 OA
ATOM     12  N   UNL     1       0.908   8.700  22.085  0.00  0.00    +0.000 N 
ATOM     13  C   UNL     1       1.207   8.742  20.725  0.00  0.00    +0.000 A 
ATOM     14  C   UNL     1       2.010   7.919  19.964  0.00  0.00    +0.000 A 
ATOM     15  H   UNL     1      -0.838  11.215  21.096  0.00  0.00    +0.000 HD
ATOM     16  H   UNL     1       1.236   8.041  22.771  0.00  0.00    +0.000 HD
ENDBRANCH   3   5
BRANCH   2  17
ATOM     17  C   UNL     1       4.429   5.554  17.178  0.00  0.00    +0.000 A 
ATOM     18  C   UNL     1       5.086   6.218  16.133  0.00  0.00    +0.000 A 
ATOM     19  C   UNL     1       5.720   5.484  15.134  0.00  0.00    +0.000 A 
ATOM     20  C   UNL     1       5.702   4.105  15.223  0.00  0.00    +0.000 A 
ATOM     21  N   UNL     1       5.124   3.432  16.237  0.00  0.00    +0.000 NA
ATOM     22  C   UNL     1       4.511   4.160  17.206  0.00  0.00    +0.000 A 
BRANCH  22  23
ATOM     23  O   UNL     1       3.916   3.450  18.223  0.00  0.00    +0.000 OA
BRANCH  23  24
ATOM     24  C   UNL     1       2.699   2.787  17.835  0.00  0.00    +0.000 C 
BRANCH  24  25
ATOM     25  C   UNL     1       1.414   3.466  18.310  0.00  0.00    +0.000 C 
ATOM     26  F   UNL     1       1.544   4.099  19.495  0.00  0.00    +0.000 F 
ATOM     27  F   UNL     1       1.010   4.396  17.406  0.00  0.00    +0.000 F 
ATOM     28  F   UNL     1       0.397   2.579  18.429  0.00  0.00    +0.000 F 
ENDBRANCH  24  25
ENDBRANCH  23  24
ENDBRANCH  22  23
ENDBRANCH   2  17
TORSDOF 5
ENDMDL
MODEL 5
REMARK VINA RESULT:      -7.7      2.478      3.065
REMARK  Name = 
REMARK  5 active torsions:
REMARK  status: ('A' for Active; 'I' for Inactive)
REMARK    1  A    between atoms: C_2  and  C_14
REMARK    2  A    between atoms: N_3  and  C_4
REMARK    3  A    between atoms: C_19  and  O_20
REMARK    4  A    between atoms: O_20  and  C_21
REMARK    5  A    between atoms: C_21  and  C_22
REMARK                            x       y       z     vdW  Elec       q    Type
REMARK                         _______ _______ _______ _____ _____    ______ ____
ROOT
ATOM      1  O   UNL     1       2.145   5.479  17.835  0.00  0.00    +0.000 OA
ATOM      2  C   UNL     1       3.159   6.158  17.925  0.00  0.00    +0.000 C 
ATOM      3  N   UNL     1       3.225   7.453  18.439  0.00  0.00    +0.000 N 
ATOM      4  H   UNL     1       4.133   7.883  18.536  0.00  0.00    +0.000 HD
ENDROOT
BRANCH   3   5
ATOM      5  C   UNL     1       2.137   8.227  18.908  0.00  0.00    +0.000 A 
ATOM      6  C   UNL     1       1.691   8.170  20.249  0.00  0.00    +0.000 A 
ATOM      7  C   UNL     1       0.629   8.961  20.709  0.00  0.00    +0.000 A 
ATOM      8  C   UNL     1       0.048   9.800  19.796  0.00  0.00    +0.000 A 
ATOM      9  N   UNL     1      -0.982  10.714  19.969  0.00  0.00    +0.000 N 
ATOM     10  C   UNL     1      -1.219  11.361  18.748  0.00  0.00    +0.000 A 
ATOM     11  O   UNL     1      -2.039  12.235  18.535  0.00  0.00    +0.000 OA
ATOM     12  N   UNL     1      -0.321  10.808  17.820  0.00  0.00    +0.000 N 
ATOM     13  C   UNL     1       0.462   9.855  18.467  0.00  0.00    +0.000 A 
ATOM     14  C   UNL     1       1.491   9.072  17.986  0.00  0.00    +0.000 A 
ATOM     15  H   UNL     1      -1.476  10.922  20.821  0.00  0.00    +0.000 HD
ATOM     16  H   UNL     1      -0.269  11.103  16.860  0.00  0.00    +0.000 HD
ENDBRANCH   3   5
BRANCH   2  17
ATOM     17  C   UNL     1       4.463   5.569  17.504  0.00  0.00    +0.000 A 
ATOM     18  C   UNL     1       5.001   5.851  16.242  0.00  0.00    +0.000 A 
ATOM     19  C   UNL     1       6.205   5.269  15.854  0.00  0.00    +0.000 A 
ATOM     20  C   UNL     1       6.852   4.443  16.753  0.00  0.00    +0.000 A 
ATOM     21  N   UNL     1       6.391   4.187  17.993  0.00  0.00    +0.000 NA
ATOM     22  C   UNL     1       5.217   4.762  18.359  0.00  0.00    +0.000 A 
BRANCH  22  23
ATOM     23  O   UNL     1       4.760   4.474  19.624  0.00  0.00    +0.000 OA
BRANCH  23  24
ATOM     24  C   UNL     1       4.104   3.198  19.729  0.00  0.00    +0.000 C 
BRANCH  24  25
ATOM     25  C   UNL     1       2.794   3.208  20.519  0.00  0.00    +0.000 C 
ATOM     26  F   UNL     1       1.767   2.621  19.869  0.00  0.00    +0.000 F 
ATOM     27  F   UNL     1       2.949   2.547  21.696  0.00  0.00    +0.000 F 
ATOM     28  F   UNL     1       2.412   4.469  20.834  0.00  0.00    +0.000 F 
ENDBRANCH  24  25
ENDBRANCH  23  24
ENDBRANCH  22  23
ENDBRANCH   2  17
TORSDOF 5
ENDMDL
MODEL 6
REMARK VINA RESULT:      -7.7      2.565      3.387
REMARK  Name = 
REMARK  5 active torsions:
REMARK  status: ('A' for Active; 'I' for Inactive)
REMARK    1  A    between atoms: C_2  and  C_14
REMARK    2  A    between atoms: N_3  and  C_4
REMARK    3  A    between atoms: C_19  and  O_20
REMARK    4  A    between atoms: O_20  and  C_21
REMARK    5  A    between atoms: C_21  and  C_22
REMARK                            x       y       z     vdW  Elec       q    Type
REMARK                         _______ _______ _______ _____ _____    ______ ____
ROOT
ATOM      1  O   UNL     1       4.404   5.899  19.396  0.00  0.00    +0.000 OA
ATOM      2  C   UNL     1       4.011   6.106  18.255  0.00  0.00    +0.000 C 
ATOM      3  N   UNL     1       3.010   7.009  17.894  0.00  0.00    +0.000 N 
ATOM      4  H   UNL     1       2.829   7.152  16.912  0.00  0.00    +0.000 HD
ENDROOT
BRANCH   3   5
ATOM      5  C   UNL     1       2.245   7.811  18.774  0.00  0.00    +0.000 A 
ATOM      6  C   UNL     1       1.985   7.430  20.111  0.00  0.00    +0.000 A 
ATOM      7  C   UNL     1       1.247   8.245  20.981  0.00  0.00    +0.000 A 
ATOM      8  C   UNL     1       0.795   9.434  20.474  0.00  0.00    +0.000 A 
ATOM      9  N   UNL     1       0.082  10.446  21.101  0.00  0.00    +0.000 N 
ATOM     10  C   UNL     1      -0.136  11.480  20.180  0.00  0.00    +0.000 A 
ATOM     11  O   UNL     1      -0.712  12.532  20.390  0.00  0.00    +0.000 OA
ATOM     12  N   UNL     1       0.447  11.069  18.970  0.00  0.00    +0.000 N 
ATOM     13  C   UNL     1       1.024   9.815  19.154  0.00  0.00    +0.000 A 
ATOM     14  C   UNL     1       1.730   9.022  18.273  0.00  0.00    +0.000 A 
ATOM     15  H   UNL     1      -0.218  10.475  22.061  0.00  0.00    +0.000 HD
ATOM     16  H   UNL     1       0.445  11.633  18.137  0.00  0.00    +0.000 HD
ENDBRANCH   3   5
BRANCH   2  17
ATOM     17  C   UNL     1       4.666   5.390  17.123  0.00  0.00    +0.000 A 
ATOM     18  C   UNL     1       5.347   6.100  16.125  0.00  0.00    +0.000 A 
ATOM     19  C   UNL     1       5.928   5.417  15.060  0.00  0.00    +0.000 A 
ATOM     20  C   UNL     1       5.834   4.038  15.038  0.00  0.00    +0.000 A 
ATOM     21  N   UNL     1       5.231   3.317  16.004  0.00  0.00    +0.000 NA
ATOM     22  C   UNL     1       4.671   3.997  17.038  0.00  0.00    +0.000 A 
BRANCH  22  23
ATOM     23  O   UNL     1       4.048   3.240  18.003  0.00  0.00    +0.000 OA
BRANCH  23  24
ATOM     24  C   UNL     1       2.767   2.722  17.601  0.00  0.00    +0.000 C 
BRANCH  24  25
ATOM     25  C   UNL     1       1.561   3.441  18.207  0.00  0.00    +0.000 C 
ATOM     26  F   UNL     1       1.068   4.424  17.424  0.00  0.00    +0.000 F 
ATOM     27  F   UNL     1       0.548   2.562  18.423  0.00  0.00    +0.000 F 
ATOM     28  F   UNL     1       1.860   3.987  19.411  0.00  0.00    +0.000 F 
ENDBRANCH  24  25
ENDBRANCH  23  24
ENDBRANCH  22  23
ENDBRANCH   2  17
TORSDOF 5
ENDMDL
MODEL 7
REMARK VINA RESULT:      -7.7      2.431      3.464
REMARK  Name = 
REMARK  5 active torsions:
REMARK  status: ('A' for Active; 'I' for Inactive)
REMARK    1  A    between atoms: C_2  and  C_14
REMARK    2  A    between atoms: N_3  and  C_4
REMARK    3  A    between atoms: C_19  and  O_20
REMARK    4  A    between atoms: O_20  and  C_21
REMARK    5  A    between atoms: C_21  and  C_22
REMARK                            x       y       z     vdW  Elec       q    Type
REMARK                         _______ _______ _______ _____ _____    ______ ____
ROOT
ATOM      1  O   UNL     1       1.779   5.303  17.973  0.00  0.00    +0.000 OA
ATOM      2  C   UNL     1       2.443   5.439  18.993  0.00  0.00    +0.000 C 
ATOM      3  N   UNL     1       2.618   6.634  19.692  0.00  0.00    +0.000 N 
ATOM      4  H   UNL     1       3.122   6.606  20.566  0.00  0.00    +0.000 HD
ENDROOT
BRANCH   3   5
ATOM      5  C   UNL     1       2.101   7.902  19.333  0.00  0.00    +0.000 A 
ATOM      6  C   UNL     1       2.406   8.520  18.098  0.00  0.00    +0.000 A 
ATOM      7  C   UNL     1       1.867   9.765  17.742  0.00  0.00    +0.000 A 
ATOM      8  C   UNL     1       1.023  10.350  18.648  0.00  0.00    +0.000 A 
ATOM      9  N   UNL     1       0.322  11.544  18.555  0.00  0.00    +0.000 N 
ATOM     10  C   UNL     1      -0.431  11.715  19.725  0.00  0.00    +0.000 A 
ATOM     11  O   UNL     1      -1.178  12.642  19.980  0.00  0.00    +0.000 OA
ATOM     12  N   UNL     1      -0.160  10.605  20.543  0.00  0.00    +0.000 N 
ATOM     13  C   UNL     1       0.728   9.764  19.877  0.00  0.00    +0.000 A 
ATOM     14  C   UNL     1       1.261   8.551  20.258  0.00  0.00    +0.000 A 
ATOM     15  H   UNL     1       0.311  12.186  17.780  0.00  0.00    +0.000 HD
ATOM     16  H   UNL     1      -0.582  10.470  21.445  0.00  0.00    +0.000 HD
ENDBRANCH   3   5
BRANCH   2  17
ATOM     17  C   UNL     1       3.095   4.242  19.597  0.00  0.00    +0.000 A 
ATOM     18  C   UNL     1       2.381   3.395  20.455  0.00  0.00    +0.000 A 
ATOM     19  C   UNL     1       3.014   2.298  21.033  0.00  0.00    +0.000 A 
ATOM     20  C   UNL     1       4.337   2.064  20.714  0.00  0.00    +0.000 A 
ATOM     21  N   UNL     1       5.043   2.826  19.855  0.00  0.00    +0.000 NA
ATOM     22  C   UNL     1       4.413   3.891  19.297  0.00  0.00    +0.000 A 
BRANCH  22  23
ATOM     23  O   UNL     1       5.158   4.663  18.435  0.00  0.00    +0.000 OA
BRANCH  23  24
ATOM     24  C   UNL     1       6.234   5.373  19.073  0.00  0.00    +0.000 C 
BRANCH  24  25
ATOM     25  C   UNL     1       7.474   5.584  18.203  0.00  0.00    +0.000 C 
ATOM     26  F   UNL     1       7.196   6.095  16.983  0.00  0.00    +0.000 F 
ATOM     27  F   UNL     1       8.332   6.447  18.806  0.00  0.00    +0.000 F 
ATOM     28  F   UNL     1       8.156   4.429  18.017  0.00  0.00    +0.000 F 
ENDBRANCH  24  25
ENDBRANCH  23  24
ENDBRANCH  22  23
ENDBRANCH   2  17
TORSDOF 5
ENDMDL
MODEL 8
REMARK VINA RESULT:      -7.7      2.642      3.382
REMARK  Name = 
REMARK  5 active torsions:
REMARK  status: ('A' for Active; 'I' for Inactive)
REMARK    1  A    between atoms: C_2  and  C_14
REMARK    2  A    between atoms: N_3  and  C_4
REMARK    3  A    between atoms: C_19  and  O_20
REMARK    4  A    between atoms: O_20  and  C_21
REMARK    5  A    between atoms: C_21  and  C_22
REMARK                            x       y       z     vdW  Elec       q    Type
REMARK                         _______ _______ _______ _____ _____    ______ ____
ROOT
ATOM      1  O   UNL     1       4.955   7.922  17.657  0.00  0.00    +0.000 OA
ATOM      2  C   UNL     1       4.241   6.944  17.482  0.00  0.00    +0.000 C 
ATOM      3  N   UNL     1       2.914   6.824  17.899  0.00  0.00    +0.000 N 
ATOM      4  H   UNL     1       2.402   5.999  17.626  0.00  0.00    +0.000 HD
ENDROOT
BRANCH   3   5
ATOM      5  C   UNL     1       2.172   7.784  18.628  0.00  0.00    +0.000 A 
ATOM      6  C   UNL     1       1.939   7.662  20.017  0.00  0.00    +0.000 A 
ATOM      7  C   UNL     1       1.225   8.633  20.734  0.00  0.00    +0.000 A 
ATOM      8  C   UNL     1       0.769   9.710  20.022  0.00  0.00    +0.000 A 
ATOM      9  N   UNL     1       0.076  10.829  20.463  0.00  0.00    +0.000 N 
ATOM     10  C   UNL     1      -0.155  11.675  19.369  0.00  0.00    +0.000 A 
ATOM     11  O   UNL     1      -0.720  12.753  19.391  0.00  0.00    +0.000 OA
ATOM     12  N   UNL     1       0.399  11.039  18.246  0.00  0.00    +0.000 N 
ATOM     13  C   UNL     1       0.973   9.835  18.650  0.00  0.00    +0.000 A 
ATOM     14  C   UNL     1       1.655   8.885  17.920  0.00  0.00    +0.000 A 
ATOM     15  H   UNL     1      -0.203  11.040  21.406  0.00  0.00    +0.000 HD
ATOM     16  H   UNL     1       0.383  11.437  17.323  0.00  0.00    +0.000 HD
ENDBRANCH   3   5
BRANCH   2  17
ATOM     17  C   UNL     1       4.781   5.780  16.722  0.00  0.00    +0.000 A 
ATOM     18  C   UNL     1       5.541   5.975  15.561  0.00  0.00    +0.000 A 
ATOM     19  C   UNL     1       6.013   4.876  14.848  0.00  0.00    +0.000 A 
ATOM     20  C   UNL     1       5.734   3.613  15.333  0.00  0.00    +0.000 A 
ATOM     21  N   UNL     1       5.049   3.386  16.471  0.00  0.00    +0.000 NA
ATOM     22  C   UNL     1       4.597   4.467  17.158  0.00  0.00    +0.000 A 
BRANCH  22  23
ATOM     23  O   UNL     1       3.888   4.209  18.308  0.00  0.00    +0.000 OA
BRANCH  23  24
ATOM     24  C   UNL     1       2.901   3.172  18.164  0.00  0.00    +0.000 C 
BRANCH  24  25
ATOM     25  C   UNL     1       1.453   3.630  18.340  0.00  0.00    +0.000 C 
ATOM     26  F   UNL     1       0.575   2.611  18.457  0.00  0.00    +0.000 F 
ATOM     27  F   UNL     1       1.331   4.389  19.460  0.00  0.00    +0.000 F 
ATOM     28  F   UNL     1       1.046   4.405  17.305  0.00  0.00    +0.000 F 
ENDBRANCH  24  25
ENDBRANCH  23  24
ENDBRANCH  22  23
ENDBRANCH   2  17
TORSDOF 5
ENDMDL
MODEL 9
REMARK VINA RESULT:      -7.6      3.416      4.237
REMARK  Name = 
REMARK  5 active torsions:
REMARK  status: ('A' for Active; 'I' for Inactive)
REMARK    1  A    between atoms: C_2  and  C_14
REMARK    2  A    between atoms: N_3  and  C_4
REMARK    3  A    between atoms: C_19  and  O_20
REMARK    4  A    between atoms: O_20  and  C_21
REMARK    5  A    between atoms: C_21  and  C_22
REMARK                            x       y       z     vdW  Elec       q    Type
REMARK                         _______ _______ _______ _____ _____    ______ ____
ROOT
ATOM      1  O   UNL     1       5.199   2.749  16.313  0.00  0.00    +0.000 OA
ATOM      2  C   UNL     1       5.271   3.923  15.976  0.00  0.00    +0.000 C 
ATOM      3  N   UNL     1       4.636   4.990  16.612  0.00  0.00    +0.000 N 
ATOM      4  H   UNL     1       4.835   5.925  16.290  0.00  0.00    +0.000 HD
ENDROOT
BRANCH   3   5
ATOM      5  C   UNL     1       3.767   4.907  17.726  0.00  0.00    +0.000 A 
ATOM      6  C   UNL     1       2.795   5.896  18.003  0.00  0.00    +0.000 A 
ATOM      7  C   UNL     1       1.922   5.790  19.095  0.00  0.00    +0.000 A 
ATOM      8  C   UNL     1       2.052   4.675  19.878  0.00  0.00    +0.000 A 
ATOM      9  N   UNL     1       1.314   4.286  20.988  0.00  0.00    +0.000 N 
ATOM     10  C   UNL     1       1.804   3.054  21.444  0.00  0.00    +0.000 A 
ATOM     11  O   UNL     1       1.383   2.409  22.387  0.00  0.00    +0.000 OA
ATOM     12  N   UNL     1       2.870   2.707  20.598  0.00  0.00    +0.000 N 
ATOM     13  C   UNL     1       3.017   3.701  19.632  0.00  0.00    +0.000 A 
ATOM     14  C   UNL     1       3.899   3.792  18.576  0.00  0.00    +0.000 A 
ATOM     15  H   UNL     1       0.535   4.770  21.401  0.00  0.00    +0.000 HD
ATOM     16  H   UNL     1       3.398   1.857  20.696  0.00  0.00    +0.000 HD
ENDBRANCH   3   5
BRANCH   2  17
ATOM     17  C   UNL     1       6.141   4.292  14.822  0.00  0.00    +0.000 A 
ATOM     18  C   UNL     1       5.962   3.689  13.570  0.00  0.00    +0.000 A 
ATOM     19  C   UNL     1       6.802   4.024  12.511  0.00  0.00    +0.000 A 
ATOM     20  C   UNL     1       7.780   4.975  12.728  0.00  0.00    +0.000 A 
ATOM     21  N   UNL     1       7.951   5.613  13.903  0.00  0.00    +0.000 NA
ATOM     22  C   UNL     1       7.124   5.278  14.926  0.00  0.00    +0.000 A 
BRANCH  22  23
ATOM     23  O   UNL     1       7.328   5.932  16.119  0.00  0.00    +0.000 OA
BRANCH  23  24
ATOM     24  C   UNL     1       7.671   5.059  17.210  0.00  0.00    +0.000 C 
BRANCH  24  25
ATOM     25  C   UNL     1       7.714   5.728  18.584  0.00  0.00    +0.000 C 
ATOM     26  F   UNL     1       6.531   5.702  19.234  0.00  0.00    +0.000 F 
ATOM     27  F   UNL     1       8.618   5.105  19.384  0.00  0.00    +0.000 F 
ATOM     28  F   UNL     1       8.105   7.022  18.496  0.00  0.00    +0.000 F 
ENDBRANCH  24  25
ENDBRANCH  23  24
ENDBRANCH  22  23
ENDBRANCH   2  17
TORSDOF 5
ENDMDL
