MODEL 1
REMARK VINA RESULT:      -8.2      0.000      0.000
REMARK  Name = 
REMARK  5 active torsions:
REMARK  status: ('A' for Active; 'I' for Inactive)
REMARK    1  A    between atoms: C_2  and  C_21
REMARK    2  A    between atoms: N_3  and  C_4
REMARK    3  A    between atoms: C_4  and  C_5
REMARK    4  A    between atoms: C_5  and  N_6
REMARK    5  A    between atoms: N_9  and  C_10
REMARK                            x       y       z     vdW  Elec       q    Type
REMARK                         _______ _______ _______ _____ _____    ______ ____
ROOT
ATOM      1  C   UNL     1       2.319   5.370  20.351  0.00  0.00    +0.000 C 
ATOM      2  C   UNL     1       1.375   4.321  19.774  0.00  0.00    +0.000 C 
ATOM      3  C   UNL     1       2.043   4.065  21.085  0.00  0.00    +0.000 C 
ENDROOT
BRANCH   1   6
ATOM      4  O   UNL     1       2.120   7.827  18.925  0.00  0.00    +0.000 OA
ATOM      5  C   UNL     1       1.689   7.739  20.070  0.00  0.00    +0.000 C 
ATOM      6  N   UNL     1       1.700   6.584  20.819  0.00  0.00    +0.000 N 
ATOM      7  H   UNL     1       1.189   6.547  21.696  0.00  0.00    +0.000 HD
BRANCH   5   8
ATOM      8  C   UNL     1       1.111   8.939  20.717  0.00  0.00    +0.000 A 
ATOM      9  C   UNL     1       0.681   8.811  22.045  0.00  0.00    +0.000 A 
ATOM     10  C   UNL     1       0.051   9.863  22.720  0.00  0.00    +0.000 A 
ATOM     11  C   UNL     1      -0.137  11.037  21.992  0.00  0.00    +0.000 A 
ATOM     12  N   UNL     1      -0.725  12.225  22.309  0.00  0.00    +0.000 N 
ATOM     13  C   UNL     1      -0.650  13.041  21.215  0.00  0.00    +0.000 A 
ATOM     14  N   UNL     1      -0.042  12.450  20.213  0.00  0.00    +0.000 NA
ATOM     15  C   UNL     1       0.274  11.201  20.676  0.00  0.00    +0.000 A 
ATOM     16  C   UNL     1       0.917  10.139  20.010  0.00  0.00    +0.000 A 
ATOM     17  H   UNL     1      -1.158  12.459  23.192  0.00  0.00    +0.000 HD
ENDBRANCH   5   8
ENDBRANCH   1   6
BRANCH   1  18
ATOM     18  C   UNL     1       3.601   5.522  19.550  0.00  0.00    +0.000 C 
BRANCH  18  19
ATOM     19  N   UNL     1       4.793   4.713  19.880  0.00  0.00    +0.000 NA
ATOM     20  C   UNL     1       5.995   5.434  19.372  0.00  0.00    +0.000 C 
ATOM     21  C   UNL     1       5.969   5.697  17.846  0.00  0.00    +0.000 C 
ATOM     22  N   UNL     1       5.719   4.450  17.092  0.00  0.00    +0.000 N 
ATOM     23  C   UNL     1       4.759   3.469  17.643  0.00  0.00    +0.000 C 
ATOM     24  C   UNL     1       4.815   3.400  19.187  0.00  0.00    +0.000 C 
BRANCH  22  25
ATOM     25  C   UNL     1       5.987   4.449  15.728  0.00  0.00    +0.000 A 
ATOM     26  C   UNL     1       7.138   5.101  15.256  0.00  0.00    +0.000 A 
ATOM     27  C   UNL     1       7.516   5.052  13.915  0.00  0.00    +0.000 A 
ATOM     28  C   UNL     1       6.732   4.351  13.016  0.00  0.00    +0.000 A 
ATOM     29  F   UNL     1       7.104   4.281  11.732  0.00  0.00    +0.000 F 
ATOM     30  C   UNL     1       5.573   3.713  13.434  0.00  0.00    +0.000 A 
ATOM     31  C   UNL     1       5.205   3.761  14.784  0.00  0.00    +0.000 A 
ENDBRANCH  22  25
ENDBRANCH  18  19
ENDBRANCH   1  18
TORSDOF 5
ENDMDL
MODEL 2
REMARK VINA RESULT:      -8.2      0.563      1.237
REMARK  Name = 
REMARK  5 active torsions:
REMARK  status: ('A' for Active; 'I' for Inactive)
REMARK    1  A    between atoms: C_2  and  C_21
REMARK    2  A    between atoms: N_3  and  C_4
REMARK    3  A    between atoms: C_4  and  C_5
REMARK    4  A    between atoms: C_5  and  N_6
REMARK    5  A    between atoms: N_9  and  C_10
REMARK                            x       y       z     vdW  Elec       q    Type
REMARK                         _______ _______ _______ _____ _____    ______ ____
ROOT
ATOM      1  C   UNL     1       2.377   5.499  20.305  0.00  0.00    +0.000 C 
ATOM      2  C   UNL     1       1.513   4.323  19.862  0.00  0.00    +0.000 C 
ATOM      3  C   UNL     1       2.158   4.293  21.208  0.00  0.00    +0.000 C 
ENDROOT
BRANCH   1   6
ATOM      4  O   UNL     1       2.340   7.840  18.684  0.00  0.00    +0.000 OA
ATOM      5  C   UNL     1       1.750   7.822  19.760  0.00  0.00    +0.000 C 
ATOM      6  N   UNL     1       1.674   6.725  20.587  0.00  0.00    +0.000 N 
ATOM      7  H   UNL     1       1.043   6.736  21.383  0.00  0.00    +0.000 HD
BRANCH   5   8
ATOM      8  C   UNL     1       1.062   9.047  20.225  0.00  0.00    +0.000 A 
ATOM      9  C   UNL     1       1.022  10.138  19.345  0.00  0.00    +0.000 A 
ATOM     10  C   UNL     1       0.464  11.366  19.719  0.00  0.00    +0.000 A 
ATOM     11  C   UNL     1      -0.035  11.446  21.018  0.00  0.00    +0.000 A 
ATOM     12  N   UNL     1      -0.608  12.467  21.717  0.00  0.00    +0.000 N 
ATOM     13  C   UNL     1      -0.906  12.010  22.969  0.00  0.00    +0.000 A 
ATOM     14  N   UNL     1      -0.564  10.751  23.117  0.00  0.00    +0.000 NA
ATOM     15  C   UNL     1      -0.012  10.390  21.918  0.00  0.00    +0.000 A 
ATOM     16  C   UNL     1       0.542   9.155  21.527  0.00  0.00    +0.000 A 
ATOM     17  H   UNL     1      -0.769  13.405  21.375  0.00  0.00    +0.000 HD
ENDBRANCH   5   8
ENDBRANCH   1   6
BRANCH   1  18
ATOM     18  C   UNL     1       3.669   5.619  19.515  0.00  0.00    +0.000 C 
BRANCH  18  19
ATOM     19  N   UNL     1       4.832   4.769  19.844  0.00  0.00    +0.000 NA
ATOM     20  C   UNL     1       6.058   5.447  19.336  0.00  0.00    +0.000 C 
ATOM     21  C   UNL     1       6.041   5.710  17.810  0.00  0.00    +0.000 C 
ATOM     22  N   UNL     1       5.747   4.473  17.056  0.00  0.00    +0.000 N 
ATOM     23  C   UNL     1       4.754   3.526  17.607  0.00  0.00    +0.000 C 
ATOM     24  C   UNL     1       4.808   3.455  19.152  0.00  0.00    +0.000 C 
BRANCH  22  25
ATOM     25  C   UNL     1       6.014   4.463  15.691  0.00  0.00    +0.000 A 
ATOM     26  C   UNL     1       7.174   5.096  15.217  0.00  0.00    +0.000 A 
ATOM     27  C   UNL     1       7.551   5.036  13.876  0.00  0.00    +0.000 A 
ATOM     28  C   UNL     1       6.755   4.343  12.980  0.00  0.00    +0.000 A 
ATOM     29  F   UNL     1       7.126   4.262  11.696  0.00  0.00    +0.000 F 
ATOM     30  C   UNL     1       5.588   3.723  13.401  0.00  0.00    +0.000 A 
ATOM     31  C   UNL     1       5.221   3.783  14.751  0.00  0.00    +0.000 A 
ENDBRANCH  22  25
ENDBRANCH  18  19
ENDBRANCH   1  18
TORSDOF 5
ENDMDL
MODEL 3
REMARK VINA RESULT:      -8.2      4.962      7.785
REMARK  Name = 
REMARK  5 active torsions:
REMARK  status: ('A' for Active; 'I' for Inactive)
REMARK    1  A    between atoms: C_2  and  C_21
REMARK    2  A    between atoms: N_3  and  C_4
REMARK    3  A    between atoms: C_4  and  C_5
REMARK    4  A    between atoms: C_5  and  N_6
REMARK    5  A    between atoms: N_9  and  C_10
REMARK                            x       y       z     vdW  Elec       q    Type
REMARK                         _______ _______ _______ _____ _____    ______ ____
ROOT
ATOM      1  C   UNL     1       7.162   5.694  18.204  0.00  0.00    +0.000 C 
ATOM      2  C   UNL     1       8.132   4.519  18.140  0.00  0.00    +0.000 C 
ATOM      3  C   UNL     1       7.511   5.026  16.881  0.00  0.00    +0.000 C 
ENDROOT
BRANCH   1   6
ATOM      4  O   UNL     1       6.807   8.118  16.751  0.00  0.00    +0.000 OA
ATOM      5  C   UNL     1       7.546   8.085  17.730  0.00  0.00    +0.000 C 
ATOM      6  N   UNL     1       7.744   6.975  18.519  0.00  0.00    +0.000 N 
ATOM      7  H   UNL     1       8.246   7.062  19.397  0.00  0.00    +0.000 HD
BRANCH   5   8
ATOM      8  C   UNL     1       8.288   9.307  18.115  0.00  0.00    +0.000 A 
ATOM      9  C   UNL     1       9.105   9.234  19.251  0.00  0.00    +0.000 A 
ATOM     10  C   UNL     1       9.787  10.354  19.741  0.00  0.00    +0.000 A 
ATOM     11  C   UNL     1       9.594  11.546  19.045  0.00  0.00    +0.000 A 
ATOM     12  N   UNL     1      10.063  12.810  19.248  0.00  0.00    +0.000 N 
ATOM     13  C   UNL     1       9.551  13.615  18.270  0.00  0.00    +0.000 A 
ATOM     14  N   UNL     1       8.784  12.942  17.443  0.00  0.00    +0.000 NA
ATOM     15  C   UNL     1       8.792  11.658  17.917  0.00  0.00    +0.000 A 
ATOM     16  C   UNL     1       8.120  10.522  17.426  0.00  0.00    +0.000 A 
ATOM     17  H   UNL     1      10.670  13.106  20.000  0.00  0.00    +0.000 HD
ENDBRANCH   5   8
ENDBRANCH   1   6
BRANCH   1  18
ATOM     18  C   UNL     1       5.854   5.350  18.895  0.00  0.00    +0.000 C 
BRANCH  18  19
ATOM     19  N   UNL     1       4.744   4.735  18.138  0.00  0.00    +0.000 NA
ATOM     20  C   UNL     1       4.259   5.731  17.140  0.00  0.00    +0.000 C 
ATOM     21  C   UNL     1       3.768   7.059  17.768  0.00  0.00    +0.000 C 
ATOM     22  N   UNL     1       2.766   6.812  18.826  0.00  0.00    +0.000 N 
ATOM     23  C   UNL     1       2.951   5.649  19.721  0.00  0.00    +0.000 C 
ATOM     24  C   UNL     1       3.559   4.434  18.981  0.00  0.00    +0.000 C 
BRANCH  22  25
ATOM     25  C   UNL     1       1.994   7.886  19.256  0.00  0.00    +0.000 A 
ATOM     26  C   UNL     1       1.622   8.875  18.331  0.00  0.00    +0.000 A 
ATOM     27  C   UNL     1       0.769   9.922  18.674  0.00  0.00    +0.000 A 
ATOM     28  C   UNL     1       0.280  10.001  19.966  0.00  0.00    +0.000 A 
ATOM     29  F   UNL     1      -0.560  10.991  20.294  0.00  0.00    +0.000 F 
ATOM     30  C   UNL     1       0.641   9.060  20.919  0.00  0.00    +0.000 A 
ATOM     31  C   UNL     1       1.494   8.007  20.564  0.00  0.00    +0.000 A 
ENDBRANCH  22  25
ENDBRANCH  18  19
ENDBRANCH   1  18
TORSDOF 5
ENDMDL
MODEL 4
REMARK VINA RESULT:      -8.0      1.368      2.013
REMARK  Name = 
REMARK  5 active torsions:
REMARK  status: ('A' for Active; 'I' for Inactive)
REMARK    1  A    between atoms: C_2  and  C_21
REMARK    2  A    between atoms: N_3  and  C_4
REMARK    3  A    between atoms: C_4  and  C_5
REMARK    4  A    between atoms: C_5  and  N_6
REMARK    5  A    between atoms: N_9  and  C_10
REMARK                            x       y       z     vdW  Elec       q    Type
REMARK                         _______ _______ _______ _____ _____    ______ ____
ROOT
ATOM      1  C   UNL     1       2.739   4.878  18.665  0.00  0.00    +0.000 C 
ATOM      2  C   UNL     1       2.007   4.087  17.587  0.00  0.00    +0.000 C 
ATOM      3  C   UNL     1       1.726   3.800  19.025  0.00  0.00    +0.000 C 
ENDROOT
BRANCH   1   6
ATOM      4  O   UNL     1       1.991   6.215  21.066  0.00  0.00    +0.000 OA
ATOM      5  C   UNL     1       1.979   6.812  19.994  0.00  0.00    +0.000 C 
ATOM      6  N   UNL     1       2.367   6.264  18.793  0.00  0.00    +0.000 N 
ATOM      7  H   UNL     1       2.477   6.860  17.978  0.00  0.00    +0.000 HD
BRANCH   5   8
ATOM      8  C   UNL     1       1.523   8.220  19.959  0.00  0.00    +0.000 A 
ATOM      9  C   UNL     1       1.639   8.905  18.742  0.00  0.00    +0.000 A 
ATOM     10  C   UNL     1       1.308  10.260  18.625  0.00  0.00    +0.000 A 
ATOM     11  C   UNL     1       0.873  10.891  19.789  0.00  0.00    +0.000 A 
ATOM     12  N   UNL     1       0.503  12.177  20.049  0.00  0.00    +0.000 N 
ATOM     13  C   UNL     1       0.173  12.265  21.372  0.00  0.00    +0.000 A 
ATOM     14  N   UNL     1       0.302  11.108  21.979  0.00  0.00    +0.000 NA
ATOM     15  C   UNL     1       0.746  10.247  21.012  0.00  0.00    +0.000 A 
ATOM     16  C   UNL     1       1.071   8.880  21.116  0.00  0.00    +0.000 A 
ATOM     17  H   UNL     1       0.491  12.939  19.385  0.00  0.00    +0.000 HD
ENDBRANCH   5   8
ENDBRANCH   1   6
BRANCH   1  18
ATOM     18  C   UNL     1       4.224   4.561  18.731  0.00  0.00    +0.000 C 
BRANCH  18  19
ATOM     19  N   UNL     1       5.224   5.648  18.738  0.00  0.00    +0.000 NA
ATOM     20  C   UNL     1       4.891   6.589  17.632  0.00  0.00    +0.000 C 
ATOM     21  C   UNL     1       4.873   5.928  16.231  0.00  0.00    +0.000 C 
ATOM     22  N   UNL     1       6.131   5.197  15.968  0.00  0.00    +0.000 N 
ATOM     23  C   UNL     1       6.764   4.453  17.077  0.00  0.00    +0.000 C 
ATOM     24  C   UNL     1       6.600   5.176  18.435  0.00  0.00    +0.000 C 
BRANCH  22  25
ATOM     25  C   UNL     1       6.408   4.831  14.655  0.00  0.00    +0.000 A 
ATOM     26  C   UNL     1       7.511   5.406  14.003  0.00  0.00    +0.000 A 
ATOM     27  C   UNL     1       7.901   5.009  12.725  0.00  0.00    +0.000 A 
ATOM     28  C   UNL     1       7.177   4.027  12.071  0.00  0.00    +0.000 A 
ATOM     29  F   UNL     1       7.563   3.625  10.853  0.00  0.00    +0.000 F 
ATOM     30  C   UNL     1       6.067   3.449  12.668  0.00  0.00    +0.000 A 
ATOM     31  C   UNL     1       5.686   3.850  13.955  0.00  0.00    +0.000 A 
ENDBRANCH  22  25
ENDBRANCH  18  19
ENDBRANCH   1  18
TORSDOF 5
ENDMDL
MODEL 5
REMARK VINA RESULT:      -8.0      1.388      2.202
REMARK  Name = 
REMARK  5 active torsions:
REMARK  status: ('A' for Active; 'I' for Inactive)
REMARK    1  A    between atoms: C_2  and  C_21
REMARK    2  A    between atoms: N_3  and  C_4
REMARK    3  A    between atoms: C_4  and  C_5
REMARK    4  A    between atoms: C_5  and  N_6
REMARK    5  A    between atoms: N_9  and  C_10
REMARK                            x       y       z     vdW  Elec       q    Type
REMARK                         _______ _______ _______ _____ _____    ______ ____
ROOT
ATOM      1  C   UNL     1       2.674   4.706  18.708  0.00  0.00    +0.000 C 
ATOM      2  C   UNL     1       2.005   4.012  17.526  0.00  0.00    +0.000 C 
ATOM      3  C   UNL     1       1.752   3.511  18.910  0.00  0.00    +0.000 C 
ENDROOT
BRANCH   1   6
ATOM      4  O   UNL     1       2.143   5.747  21.305  0.00  0.00    +0.000 OA
ATOM      5  C   UNL     1       1.923   6.427  20.308  0.00  0.00    +0.000 C 
ATOM      6  N   UNL     1       2.190   6.027  19.018  0.00  0.00    +0.000 N 
ATOM      7  H   UNL     1       2.126   6.698  18.258  0.00  0.00    +0.000 HD
BRANCH   5   8
ATOM      8  C   UNL     1       1.332   7.775  20.471  0.00  0.00    +0.000 A 
ATOM      9  C   UNL     1       1.511   8.688  19.422  0.00  0.00    +0.000 A 
ATOM     10  C   UNL     1       1.058  10.009  19.511  0.00  0.00    +0.000 A 
ATOM     11  C   UNL     1       0.434  10.368  20.705  0.00  0.00    +0.000 A 
ATOM     12  N   UNL     1      -0.092  11.547  21.145  0.00  0.00    +0.000 N 
ATOM     13  C   UNL     1      -0.573  11.352  22.408  0.00  0.00    +0.000 A 
ATOM     14  N   UNL     1      -0.394  10.114  22.808  0.00  0.00    +0.000 NA
ATOM     15  C   UNL     1       0.240   9.493  21.766  0.00  0.00    +0.000 A 
ATOM     16  C   UNL     1       0.690   8.162  21.660  0.00  0.00    +0.000 A 
ATOM     17  H   UNL     1      -0.109  12.418  20.633  0.00  0.00    +0.000 HD
ENDBRANCH   5   8
ENDBRANCH   1   6
BRANCH   1  18
ATOM     18  C   UNL     1       4.179   4.504  18.743  0.00  0.00    +0.000 C 
BRANCH  18  19
ATOM     19  N   UNL     1       5.092   5.666  18.782  0.00  0.00    +0.000 NA
ATOM     20  C   UNL     1       4.760   6.552  17.630  0.00  0.00    +0.000 C 
ATOM     21  C   UNL     1       4.883   5.859  16.250  0.00  0.00    +0.000 C 
ATOM     22  N   UNL     1       6.207   5.222  16.087  0.00  0.00    +0.000 N 
ATOM     23  C   UNL     1       6.822   4.555  17.255  0.00  0.00    +0.000 C 
ATOM     24  C   UNL     1       6.516   5.295  18.579  0.00  0.00    +0.000 C 
BRANCH  22  25
ATOM     25  C   UNL     1       6.596   4.847  14.806  0.00  0.00    +0.000 A 
ATOM     26  C   UNL     1       5.876   3.844  14.137  0.00  0.00    +0.000 A 
ATOM     27  C   UNL     1       6.152   3.494  12.817  0.00  0.00    +0.000 A 
ATOM     28  C   UNL     1       7.172   4.143  12.144  0.00  0.00    +0.000 A 
ATOM     29  F   UNL     1       7.424   3.827  10.867  0.00  0.00    +0.000 F 
ATOM     30  C   UNL     1       7.925   5.123  12.773  0.00  0.00    +0.000 A 
ATOM     31  C   UNL     1       7.636   5.474  14.098  0.00  0.00    +0.000 A 
ENDBRANCH  22  25
ENDBRANCH  18  19
ENDBRANCH   1  18
TORSDOF 5
ENDMDL
MODEL 6
REMARK VINA RESULT:      -8.0      3.616      8.896
REMARK  Name = 
REMARK  5 active torsions:
REMARK  status: ('A' for Active; 'I' for Inactive)
REMARK    1  A    between atoms: C_2  and  C_21
REMARK    2  A    between atoms: N_3  and  C_4
REMARK    3  A    between atoms: C_4  and  C_5
REMARK    4  A    between atoms: C_5  and  N_6
REMARK    5  A    between atoms: N_9  and  C_10
REMARK                            x       y       z     vdW  Elec       q    Type
REMARK                         _______ _______ _______ _____ _____    ______ ____
ROOT
ATOM      1  C   UNL     1       1.942   5.513  20.108  0.00  0.00    +0.000 C 
ATOM      2  C   UNL     1       2.112   4.607  21.323  0.00  0.00    +0.000 C 
ATOM      3  C   UNL     1       1.178   4.202  20.231  0.00  0.00    +0.000 C 
ENDROOT
BRANCH   1   6
ATOM      4  O   UNL     1       2.139   4.325  17.527  0.00  0.00    +0.000 OA
ATOM      5  C   UNL     1       3.089   4.943  17.999  0.00  0.00    +0.000 C 
ATOM      6  N   UNL     1       3.071   5.588  19.215  0.00  0.00    +0.000 N 
ATOM      7  H   UNL     1       3.836   6.204  19.470  0.00  0.00    +0.000 HD
BRANCH   5   8
ATOM      8  C   UNL     1       4.352   5.020  17.231  0.00  0.00    +0.000 A 
ATOM      9  C   UNL     1       5.399   5.770  17.785  0.00  0.00    +0.000 A 
ATOM     10  C   UNL     1       6.605   5.967  17.103  0.00  0.00    +0.000 A 
ATOM     11  C   UNL     1       6.699   5.389  15.839  0.00  0.00    +0.000 A 
ATOM     12  N   UNL     1       7.688   5.398  14.899  0.00  0.00    +0.000 N 
ATOM     13  C   UNL     1       7.257   4.678  13.822  0.00  0.00    +0.000 A 
ATOM     14  N   UNL     1       6.050   4.199  14.013  0.00  0.00    +0.000 NA
ATOM     15  C   UNL     1       5.685   4.640  15.256  0.00  0.00    +0.000 A 
ATOM     16  C   UNL     1       4.480   4.439  15.957  0.00  0.00    +0.000 A 
ATOM     17  H   UNL     1       8.579   5.869  14.978  0.00  0.00    +0.000 HD
ENDBRANCH   5   8
ENDBRANCH   1   6
BRANCH   1  18
ATOM     18  C   UNL     1       1.242   6.821  20.434  0.00  0.00    +0.000 C 
BRANCH  18  19
ATOM     19  N   UNL     1       2.004   8.085  20.499  0.00  0.00    +0.000 NA
ATOM     20  C   UNL     1       1.189   9.077  21.256  0.00  0.00    +0.000 C 
ATOM     21  C   UNL     1      -0.199   9.356  20.629  0.00  0.00    +0.000 C 
ATOM     22  N   UNL     1      -0.078   9.722  19.201  0.00  0.00    +0.000 N 
ATOM     23  C   UNL     1       0.930   9.025  18.374  0.00  0.00    +0.000 C 
ATOM     24  C   UNL     1       2.219   8.706  19.167  0.00  0.00    +0.000 C 
BRANCH  22  25
ATOM     25  C   UNL     1      -1.175  10.314  18.585  0.00  0.00    +0.000 A 
ATOM     26  C   UNL     1      -1.605   9.828  17.340  0.00  0.00    +0.000 A 
ATOM     27  C   UNL     1      -2.756  10.310  16.718  0.00  0.00    +0.000 A 
ATOM     28  C   UNL     1      -3.493  11.304  17.336  0.00  0.00    +0.000 A 
ATOM     29  F   UNL     1      -4.613  11.752  16.754  0.00  0.00    +0.000 F 
ATOM     30  C   UNL     1      -3.092  11.830  18.555  0.00  0.00    +0.000 A 
ATOM     31  C   UNL     1      -1.938  11.335  19.176  0.00  0.00    +0.000 A 
ENDBRANCH  22  25
ENDBRANCH  18  19
ENDBRANCH   1  18
TORSDOF 5
ENDMDL
MODEL 7
REMARK VINA RESULT:      -7.9      1.430      2.030
REMARK  Name = 
REMARK  5 active torsions:
REMARK  status: ('A' for Active; 'I' for Inactive)
REMARK    1  A    between atoms: C_2  and  C_21
REMARK    2  A    between atoms: N_3  and  C_4
REMARK    3  A    between atoms: C_4  and  C_5
REMARK    4  A    between atoms: C_5  and  N_6
REMARK    5  A    between atoms: N_9  and  C_10
REMARK                            x       y       z     vdW  Elec       q    Type
REMARK                         _______ _______ _______ _____ _____    ______ ____
ROOT
ATOM      1  C   UNL     1       3.006   4.777  18.744  0.00  0.00    +0.000 C 
ATOM      2  C   UNL     1       2.260   4.084  17.609  0.00  0.00    +0.000 C 
ATOM      3  C   UNL     1       2.026   3.644  19.017  0.00  0.00    +0.000 C 
ENDROOT
BRANCH   1   6
ATOM      4  O   UNL     1       1.931   5.754  21.193  0.00  0.00    +0.000 OA
ATOM      5  C   UNL     1       2.059   6.503  20.229  0.00  0.00    +0.000 C 
ATOM      6  N   UNL     1       2.609   6.133  19.023  0.00  0.00    +0.000 N 
ATOM      7  H   UNL     1       2.822   6.841  18.328  0.00  0.00    +0.000 HD
BRANCH   5   8
ATOM      8  C   UNL     1       1.601   7.906  20.342  0.00  0.00    +0.000 A 
ATOM      9  C   UNL     1       1.159   8.342  21.599  0.00  0.00    +0.000 A 
ATOM     10  C   UNL     1       0.636   9.625  21.792  0.00  0.00    +0.000 A 
ATOM     11  C   UNL     1       0.564  10.438  20.662  0.00  0.00    +0.000 A 
ATOM     12  N   UNL     1       0.094  11.704  20.473  0.00  0.00    +0.000 N 
ATOM     13  C   UNL     1       0.249  12.022  19.154  0.00  0.00    +0.000 A 
ATOM     14  N   UNL     1       0.798  11.038  18.481  0.00  0.00    +0.000 NA
ATOM     15  C   UNL     1       0.989  10.042  19.401  0.00  0.00    +0.000 A 
ATOM     16  C   UNL     1       1.526   8.752  19.220  0.00  0.00    +0.000 A 
ATOM     17  H   UNL     1      -0.314  12.299  21.182  0.00  0.00    +0.000 HD
ENDBRANCH   5   8
ENDBRANCH   1   6
BRANCH   1  18
ATOM     18  C   UNL     1       4.498   4.489  18.737  0.00  0.00    +0.000 C 
BRANCH  18  19
ATOM     19  N   UNL     1       5.476   5.596  18.771  0.00  0.00    +0.000 NA
ATOM     20  C   UNL     1       5.143   6.540  17.666  0.00  0.00    +0.000 C 
ATOM     21  C   UNL     1       5.164   5.891  16.260  0.00  0.00    +0.000 C 
ATOM     22  N   UNL     1       6.441   5.188  16.014  0.00  0.00    +0.000 N 
ATOM     23  C   UNL     1       7.069   4.447  17.129  0.00  0.00    +0.000 C 
ATOM     24  C   UNL     1       6.866   5.155  18.489  0.00  0.00    +0.000 C 
BRANCH  22  25
ATOM     25  C   UNL     1       6.749   4.838  14.704  0.00  0.00    +0.000 A 
ATOM     26  C   UNL     1       6.005   3.830  14.071  0.00  0.00    +0.000 A 
ATOM     27  C   UNL     1       6.198   3.502  12.730  0.00  0.00    +0.000 A 
ATOM     28  C   UNL     1       7.157   4.181  11.999  0.00  0.00    +0.000 A 
ATOM     29  F   UNL     1       7.328   3.888  10.703  0.00  0.00    +0.000 F 
ATOM     30  C   UNL     1       7.932   5.168  12.590  0.00  0.00    +0.000 A 
ATOM     31  C   UNL     1       7.727   5.495  13.936  0.00  0.00    +0.000 A 
ENDBRANCH  22  25
ENDBRANCH  18  19
ENDBRANCH   1  18
TORSDOF 5
ENDMDL
MODEL 8
REMARK VINA RESULT:      -7.9      0.744      1.189
REMARK  Name = 
REMARK  5 active torsions:
REMARK  status: ('A' for Active; 'I' for Inactive)
REMARK    1  A    between atoms: C_2  and  C_21
REMARK    2  A    between atoms: N_3  and  C_4
REMARK    3  A    between atoms: C_4  and  C_5
REMARK    4  A    between atoms: C_5  and  N_6
REMARK    5  A    between atoms: N_9  and  C_10
REMARK                            x       y       z     vdW  Elec       q    Type
REMARK                         _______ _______ _______ _____ _____    ______ ____
ROOT
ATOM      1  C   UNL     1       2.639   5.704  19.334  0.00  0.00    +0.000 C 
ATOM      2  C   UNL     1       1.831   5.032  18.229  0.00  0.00    +0.000 C 
ATOM      3  C   UNL     1       2.182   4.257  19.457  0.00  0.00    +0.000 C 
ENDROOT
BRANCH   1   6
ATOM      4  O   UNL     1       2.033   8.340  18.443  0.00  0.00    +0.000 OA
ATOM      5  C   UNL     1       1.740   7.988  19.581  0.00  0.00    +0.000 C 
ATOM      6  N   UNL     1       1.952   6.725  20.084  0.00  0.00    +0.000 N 
ATOM      7  H   UNL     1       1.547   6.463  20.977  0.00  0.00    +0.000 HD
BRANCH   5   8
ATOM      8  C   UNL     1       1.114   8.966  20.500  0.00  0.00    +0.000 A 
ATOM      9  C   UNL     1       0.594   8.477  21.706  0.00  0.00    +0.000 A 
ATOM     10  C   UNL     1      -0.084   9.306  22.606  0.00  0.00    +0.000 A 
ATOM     11  C   UNL     1      -0.226  10.640  22.228  0.00  0.00    +0.000 A 
ATOM     12  N   UNL     1      -0.839  11.701  22.826  0.00  0.00    +0.000 N 
ATOM     13  C   UNL     1      -0.692  12.790  22.014  0.00  0.00    +0.000 A 
ATOM     14  N   UNL     1      -0.014  12.495  20.930  0.00  0.00    +0.000 NA
ATOM     15  C   UNL     1       0.274  11.162  21.042  0.00  0.00    +0.000 A 
ATOM     16  C   UNL     1       0.965  10.320  20.149  0.00  0.00    +0.000 A 
ATOM     17  H   UNL     1      -1.333  11.683  23.708  0.00  0.00    +0.000 HD
ENDBRANCH   5   8
ENDBRANCH   1   6
BRANCH   1  18
ATOM     18  C   UNL     1       4.072   6.005  18.925  0.00  0.00    +0.000 C 
BRANCH  18  19
ATOM     19  N   UNL     1       5.177   5.128  19.362  0.00  0.00    +0.000 NA
ATOM     20  C   UNL     1       6.457   5.725  18.886  0.00  0.00    +0.000 C 
ATOM     21  C   UNL     1       6.531   5.903  17.349  0.00  0.00    +0.000 C 
ATOM     22  N   UNL     1       6.222   4.638  16.648  0.00  0.00    +0.000 N 
ATOM     23  C   UNL     1       5.162   3.765  17.195  0.00  0.00    +0.000 C 
ATOM     24  C   UNL     1       5.132   3.779  18.742  0.00  0.00    +0.000 C 
BRANCH  22  25
ATOM     25  C   UNL     1       6.560   4.540  15.303  0.00  0.00    +0.000 A 
ATOM     26  C   UNL     1       5.820   3.684  14.472  0.00  0.00    +0.000 A 
ATOM     27  C   UNL     1       6.043   3.616  13.097  0.00  0.00    +0.000 A 
ATOM     28  C   UNL     1       7.030   4.405  12.532  0.00  0.00    +0.000 A 
ATOM     29  F   UNL     1       7.231   4.361  11.209  0.00  0.00    +0.000 F 
ATOM     30  C   UNL     1       7.801   5.247  13.319  0.00  0.00    +0.000 A 
ATOM     31  C   UNL     1       7.565   5.314  14.698  0.00  0.00    +0.000 A 
ENDBRANCH  22  25
ENDBRANCH  18  19
ENDBRANCH   1  18
TORSDOF 5
ENDMDL
MODEL 9
REMARK VINA RESULT:      -7.8      1.451      2.108
REMARK  Name = 
REMARK  5 active torsions:
REMARK  status: ('A' for Active; 'I' for Inactive)
REMARK    1  A    between atoms: C_2  and  C_21
REMARK    2  A    between atoms: N_3  and  C_4
REMARK    3  A    between atoms: C_4  and  C_5
REMARK    4  A    between atoms: C_5  and  N_6
REMARK    5  A    between atoms: N_9  and  C_10
REMARK                            x       y       z     vdW  Elec       q    Type
REMARK                         _______ _______ _______ _____ _____    ______ ____
ROOT
ATOM      1  C   UNL     1       3.714   4.145  19.766  0.00  0.00    +0.000 C 
ATOM      2  C   UNL     1       2.757   3.085  19.231  0.00  0.00    +0.000 C 
ATOM      3  C   UNL     1       3.368   2.908  20.582  0.00  0.00    +0.000 C 
ENDROOT
BRANCH   1   6
ATOM      4  O   UNL     1       2.036   5.745  18.112  0.00  0.00    +0.000 OA
ATOM      5  C   UNL     1       2.352   6.132  19.233  0.00  0.00    +0.000 C 
ATOM      6  N   UNL     1       3.119   5.409  20.118  0.00  0.00    +0.000 N 
ATOM      7  H   UNL     1       3.211   5.723  21.079  0.00  0.00    +0.000 HD
BRANCH   5   8
ATOM      8  C   UNL     1       1.891   7.461  19.694  0.00  0.00    +0.000 A 
ATOM      9  C   UNL     1       1.449   7.567  21.020  0.00  0.00    +0.000 A 
ATOM     10  C   UNL     1       0.923   8.759  21.528  0.00  0.00    +0.000 A 
ATOM     11  C   UNL     1       0.848   9.829  20.638  0.00  0.00    +0.000 A 
ATOM     12  N   UNL     1       0.376  11.101  20.773  0.00  0.00    +0.000 N 
ATOM     13  C   UNL     1       0.529  11.740  19.575  0.00  0.00    +0.000 A 
ATOM     14  N   UNL     1       1.079  10.957  18.677  0.00  0.00    +0.000 NA
ATOM     15  C   UNL     1       1.273   9.763  19.318  0.00  0.00    +0.000 A 
ATOM     16  C   UNL     1       1.812   8.561  18.820  0.00  0.00    +0.000 A 
ATOM     17  H   UNL     1      -0.033  11.499  21.607  0.00  0.00    +0.000 HD
ENDBRANCH   5   8
ENDBRANCH   1   6
BRANCH   1  18
ATOM     18  C   UNL     1       5.029   4.198  19.007  0.00  0.00    +0.000 C 
BRANCH  18  19
ATOM     19  N   UNL     1       5.812   5.449  18.946  0.00  0.00    +0.000 NA
ATOM     20  C   UNL     1       5.235   6.302  17.868  0.00  0.00    +0.000 C 
ATOM     21  C   UNL     1       5.241   5.634  16.470  0.00  0.00    +0.000 C 
ATOM     22  N   UNL     1       6.590   5.143  16.117  0.00  0.00    +0.000 N 
ATOM     23  C   UNL     1       7.424   4.539  17.178  0.00  0.00    +0.000 C 
ATOM     24  C   UNL     1       7.226   5.234  18.545  0.00  0.00    +0.000 C 
BRANCH  22  25
ATOM     25  C   UNL     1       6.838   4.820  14.788  0.00  0.00    +0.000 A 
ATOM     26  C   UNL     1       6.064   3.825  14.169  0.00  0.00    +0.000 A 
ATOM     27  C   UNL     1       6.194   3.525  12.814  0.00  0.00    +0.000 A 
ATOM     28  C   UNL     1       7.121   4.217  12.054  0.00  0.00    +0.000 A 
ATOM     29  F   UNL     1       7.232   3.949  10.747  0.00  0.00    +0.000 F 
ATOM     30  C   UNL     1       7.924   5.191  12.629  0.00  0.00    +0.000 A 
ATOM     31  C   UNL     1       7.781   5.491  13.990  0.00  0.00    +0.000 A 
ENDBRANCH  22  25
ENDBRANCH  18  19
ENDBRANCH   1  18
TORSDOF 5
ENDMDL
