MODEL 1
REMARK VINA RESULT:      -7.9      0.000      0.000
REMARK  Name = 
REMARK  2 active torsions:
REMARK  status: ('A' for Active; 'I' for Inactive)
REMARK    1  A    between atoms: C_5  and  C_7
REMARK    2  A    between atoms: C_7  and  N_8
REMARK                            x       y       z     vdW  Elec       q    Type
REMARK                         _______ _______ _______ _____ _____    ______ ____
ROOT
ATOM      1  N   UNL     1      -3.288  14.002  22.333  0.00  0.00    +0.000 N 
ATOM      2  C   UNL     1      -3.779  15.102  21.703  0.00  0.00    +0.000 C 
ATOM      3  O   UNL     1      -3.137  15.987  21.165  0.00  0.00    +0.000 OA
ATOM      4  N   UNL     1      -5.151  15.030  21.688  0.00  0.00    +0.000 N 
ATOM      5  C   UNL     1      -5.634  13.745  22.152  0.00  0.00    +0.000 C 
ATOM      6  C   UNL     1      -6.731  13.948  23.200  0.00  0.00    +0.000 C 
ATOM      7  C   UNL     1      -7.357  12.632  23.643  0.00  0.00    +0.000 C 
ATOM      8  C   UNL     1      -7.914  11.843  22.460  0.00  0.00    +0.000 C 
ATOM      9  C   UNL     1      -7.030  11.828  21.237  0.00  0.00    +0.000 A 
ATOM     10  C   UNL     1      -7.224  10.823  20.277  0.00  0.00    +0.000 A 
ATOM     11  C   UNL     1      -6.452  10.783  19.116  0.00  0.00    +0.000 A 
ATOM     12  C   UNL     1      -5.505  11.769  18.877  0.00  0.00    +0.000 A 
ATOM     13  C   UNL     1      -5.309  12.780  19.813  0.00  0.00    +0.000 A 
ATOM     14  C   UNL     1      -6.047  12.814  21.016  0.00  0.00    +0.000 A 
ATOM     15  C   UNL     1      -4.308  13.172  22.725  0.00  0.00    +0.000 C 
ATOM     16  O   UNL     1      -4.179  12.091  23.288  0.00  0.00    +0.000 OA
ATOM     17  H   UNL     1      -5.687  15.672  21.121  0.00  0.00    +0.000 HD
ENDROOT
BRANCH   1  18
ATOM     18  C   UNL     1      -1.888  13.641  22.357  0.00  0.00    +0.000 C 
BRANCH  18  23
ATOM     19  O   UNL     1       0.521   9.631  24.064  0.00  0.00    +0.000 OA
ATOM     20  C   UNL     1       0.192   9.957  22.925  0.00  0.00    +0.000 C 
ATOM     21  C   UNL     1      -0.996  10.866  22.650  0.00  0.00    +0.000 C 
ATOM     22  N   UNL     1      -1.009  11.528  21.334  0.00  0.00    +0.000 N 
ATOM     23  C   UNL     1      -1.507  12.824  21.124  0.00  0.00    +0.000 C 
ATOM     24  O   UNL     1      -1.568  13.365  20.018  0.00  0.00    +0.000 OA
ATOM     25  C   UNL     1      -0.494  10.735  20.250  0.00  0.00    +0.000 A 
ATOM     26  C   UNL     1      -0.813  10.984  18.907  0.00  0.00    +0.000 A 
ATOM     27  C   UNL     1      -0.222  10.252  17.873  0.00  0.00    +0.000 A 
ATOM     28  C   UNL     1       0.700   9.256  18.162  0.00  0.00    +0.000 A 
ATOM     29  C   UNL     1       1.016   8.971  19.489  0.00  0.00    +0.000 A 
ATOM     30  C   UNL     1       0.414   9.695  20.523  0.00  0.00    +0.000 A 
ATOM     31  N   UNL     1       0.784   9.387  21.836  0.00  0.00    +0.000 N 
ATOM     32  H   UNL     1       1.512   8.711  22.024  0.00  0.00    +0.000 HD
ENDBRANCH  18  23
ENDBRANCH   1  18
TORSDOF 2
ENDMDL
MODEL 2
REMARK VINA RESULT:      -7.7      2.105      3.867
REMARK  Name = 
REMARK  2 active torsions:
REMARK  status: ('A' for Active; 'I' for Inactive)
REMARK    1  A    between atoms: C_5  and  C_7
REMARK    2  A    between atoms: C_7  and  N_8
REMARK                            x       y       z     vdW  Elec       q    Type
REMARK                         _______ _______ _______ _____ _____    ______ ____
ROOT
ATOM      1  N   UNL     1      -5.051  13.353  21.877  0.00  0.00    +0.000 N 
ATOM      2  C   UNL     1      -6.270  13.504  22.460  0.00  0.00    +0.000 C 
ATOM      3  O   UNL     1      -6.502  13.931  23.577  0.00  0.00    +0.000 OA
ATOM      4  N   UNL     1      -7.242  13.173  21.547  0.00  0.00    +0.000 N 
ATOM      5  C   UNL     1      -6.697  12.967  20.220  0.00  0.00    +0.000 C 
ATOM      6  C   UNL     1      -7.220  11.651  19.640  0.00  0.00    +0.000 C 
ATOM      7  C   UNL     1      -6.770  11.435  18.201  0.00  0.00    +0.000 C 
ATOM      8  C   UNL     1      -7.180  12.596  17.298  0.00  0.00    +0.000 C 
ATOM      9  C   UNL     1      -6.985  13.965  17.901  0.00  0.00    +0.000 A 
ATOM     10  C   UNL     1      -6.922  15.076  17.045  0.00  0.00    +0.000 A 
ATOM     11  C   UNL     1      -6.772  16.365  17.555  0.00  0.00    +0.000 A 
ATOM     12  C   UNL     1      -6.724  16.569  18.927  0.00  0.00    +0.000 A 
ATOM     13  C   UNL     1      -6.797  15.479  19.790  0.00  0.00    +0.000 A 
ATOM     14  C   UNL     1      -6.903  14.162  19.294  0.00  0.00    +0.000 A 
ATOM     15  C   UNL     1      -5.183  12.946  20.574  0.00  0.00    +0.000 C 
ATOM     16  O   UNL     1      -4.266  12.755  19.784  0.00  0.00    +0.000 OA
ATOM     17  H   UNL     1      -8.212  13.379  21.741  0.00  0.00    +0.000 HD
ENDROOT
BRANCH   1  18
ATOM     18  C   UNL     1      -3.811  13.802  22.470  0.00  0.00    +0.000 C 
BRANCH  18  23
ATOM     19  O   UNL     1      -0.475  13.807  18.773  0.00  0.00    +0.000 OA
ATOM     20  C   UNL     1      -0.576  13.102  19.775  0.00  0.00    +0.000 C 
ATOM     21  C   UNL     1      -1.261  13.584  21.044  0.00  0.00    +0.000 C 
ATOM     22  N   UNL     1      -1.707  12.532  21.975  0.00  0.00    +0.000 N 
ATOM     23  C   UNL     1      -2.875  12.627  22.747  0.00  0.00    +0.000 C 
ATOM     24  O   UNL     1      -3.229  11.774  23.565  0.00  0.00    +0.000 OA
ATOM     25  C   UNL     1      -0.836  11.391  22.063  0.00  0.00    +0.000 A 
ATOM     26  C   UNL     1      -0.832  10.521  23.164  0.00  0.00    +0.000 A 
ATOM     27  C   UNL     1      -0.040   9.370  23.176  0.00  0.00    +0.000 A 
ATOM     28  C   UNL     1       0.765   9.065  22.088  0.00  0.00    +0.000 A 
ATOM     29  C   UNL     1       0.799   9.925  20.992  0.00  0.00    +0.000 A 
ATOM     30  C   UNL     1       0.015  11.084  20.986  0.00  0.00    +0.000 A 
ATOM     31  N   UNL     1       0.067  11.901  19.852  0.00  0.00    +0.000 N 
ATOM     32  H   UNL     1       0.601  11.625  19.039  0.00  0.00    +0.000 HD
ENDBRANCH  18  23
ENDBRANCH   1  18
TORSDOF 2
ENDMDL
MODEL 3
REMARK VINA RESULT:      -7.6      4.589      9.726
REMARK  Name = 
REMARK  2 active torsions:
REMARK  status: ('A' for Active; 'I' for Inactive)
REMARK    1  A    between atoms: C_5  and  C_7
REMARK    2  A    between atoms: C_7  and  N_8
REMARK                            x       y       z     vdW  Elec       q    Type
REMARK                         _______ _______ _______ _____ _____    ______ ____
ROOT
ATOM      1  N   UNL     1       2.285   7.676  18.679  0.00  0.00    +0.000 N 
ATOM      2  C   UNL     1       2.140   7.442  20.010  0.00  0.00    +0.000 C 
ATOM      3  O   UNL     1       1.335   7.960  20.764  0.00  0.00    +0.000 OA
ATOM      4  N   UNL     1       3.006   6.441  20.380  0.00  0.00    +0.000 N 
ATOM      5  C   UNL     1       3.644   5.821  19.237  0.00  0.00    +0.000 C 
ATOM      6  C   UNL     1       5.155   5.740  19.463  0.00  0.00    +0.000 C 
ATOM      7  C   UNL     1       5.867   4.993  18.342  0.00  0.00    +0.000 C 
ATOM      8  C   UNL     1       5.299   3.590  18.145  0.00  0.00    +0.000 C 
ATOM      9  C   UNL     1       3.794   3.502  18.206  0.00  0.00    +0.000 A 
ATOM     10  C   UNL     1       3.159   2.389  17.635  0.00  0.00    +0.000 A 
ATOM     11  C   UNL     1       1.773   2.247  17.691  0.00  0.00    +0.000 A 
ATOM     12  C   UNL     1       1.004   3.194  18.354  0.00  0.00    +0.000 A 
ATOM     13  C   UNL     1       1.619   4.298  18.936  0.00  0.00    +0.000 A 
ATOM     14  C   UNL     1       3.015   4.484  18.852  0.00  0.00    +0.000 A 
ATOM     15  C   UNL     1       3.221   6.834  18.136  0.00  0.00    +0.000 C 
ATOM     16  O   UNL     1       3.546   6.785  16.955  0.00  0.00    +0.000 OA
ATOM     17  H   UNL     1       2.929   6.015  21.293  0.00  0.00    +0.000 HD
ENDROOT
BRANCH   1  18
ATOM     18  C   UNL     1       1.398   8.517  17.905  0.00  0.00    +0.000 C 
BRANCH  18  23
ATOM     19  O   UNL     1      -3.103  10.629  18.189  0.00  0.00    +0.000 OA
ATOM     20  C   UNL     1      -1.977  11.090  18.363  0.00  0.00    +0.000 C 
ATOM     21  C   UNL     1      -0.804  10.228  18.804  0.00  0.00    +0.000 C 
ATOM     22  N   UNL     1       0.537  10.783  18.543  0.00  0.00    +0.000 N 
ATOM     23  C   UNL     1       1.646   9.996  18.196  0.00  0.00    +0.000 C 
ATOM     24  O   UNL     1       2.781  10.446  18.025  0.00  0.00    +0.000 OA
ATOM     25  C   UNL     1       0.644  12.209  18.698  0.00  0.00    +0.000 A 
ATOM     26  C   UNL     1       1.865  12.858  18.930  0.00  0.00    +0.000 A 
ATOM     27  C   UNL     1       1.947  14.253  18.982  0.00  0.00    +0.000 A 
ATOM     28  C   UNL     1       0.808  15.025  18.806  0.00  0.00    +0.000 A 
ATOM     29  C   UNL     1      -0.422  14.405  18.600  0.00  0.00    +0.000 A 
ATOM     30  C   UNL     1      -0.505  13.009  18.560  0.00  0.00    +0.000 A 
ATOM     31  N   UNL     1      -1.759  12.436  18.325  0.00  0.00    +0.000 N 
ATOM     32  H   UNL     1      -2.563  13.015  18.125  0.00  0.00    +0.000 HD
ENDBRANCH  18  23
ENDBRANCH   1  18
TORSDOF 2
ENDMDL
MODEL 4
REMARK VINA RESULT:      -7.6      2.678      4.120
REMARK  Name = 
REMARK  2 active torsions:
REMARK  status: ('A' for Active; 'I' for Inactive)
REMARK    1  A    between atoms: C_5  and  C_7
REMARK    2  A    between atoms: C_7  and  N_8
REMARK                            x       y       z     vdW  Elec       q    Type
REMARK                         _______ _______ _______ _____ _____    ______ ____
ROOT
ATOM      1  N   UNL     1      -3.507  11.363  17.905  0.00  0.00    +0.000 N 
ATOM      2  C   UNL     1      -4.207  11.167  16.757  0.00  0.00    +0.000 C 
ATOM      3  O   UNL     1      -3.827  10.589  15.754  0.00  0.00    +0.000 OA
ATOM      4  N   UNL     1      -5.480  11.659  16.923  0.00  0.00    +0.000 N 
ATOM      5  C   UNL     1      -5.741  12.041  18.296  0.00  0.00    +0.000 C 
ATOM      6  C   UNL     1      -6.351  13.443  18.341  0.00  0.00    +0.000 C 
ATOM      7  C   UNL     1      -6.753  13.854  19.752  0.00  0.00    +0.000 C 
ATOM      8  C   UNL     1      -7.717  12.852  20.381  0.00  0.00    +0.000 C 
ATOM      9  C   UNL     1      -7.371  11.403  20.139  0.00  0.00    +0.000 A 
ATOM     10  C   UNL     1      -7.914  10.429  20.991  0.00  0.00    +0.000 A 
ATOM     11  C   UNL     1      -7.647   9.074  20.792  0.00  0.00    +0.000 A 
ATOM     12  C   UNL     1      -6.871   8.670  19.715  0.00  0.00    +0.000 A 
ATOM     13  C   UNL     1      -6.335   9.623  18.854  0.00  0.00    +0.000 A 
ATOM     14  C   UNL     1      -6.554  11.001  19.063  0.00  0.00    +0.000 A 
ATOM     15  C   UNL     1      -4.293  11.962  18.857  0.00  0.00    +0.000 C 
ATOM     16  O   UNL     1      -3.952  12.237  20.001  0.00  0.00    +0.000 OA
ATOM     17  H   UNL     1      -6.196  11.457  16.239  0.00  0.00    +0.000 HD
ENDROOT
BRANCH   1  18
ATOM     18  C   UNL     1      -2.203  10.794  18.164  0.00  0.00    +0.000 C 
BRANCH  18  23
ATOM     19  O   UNL     1      -1.414  11.132  23.069  0.00  0.00    +0.000 OA
ATOM     20  C   UNL     1      -0.884  11.707  22.119  0.00  0.00    +0.000 C 
ATOM     21  C   UNL     1      -0.821  11.092  20.730  0.00  0.00    +0.000 C 
ATOM     22  N   UNL     1      -0.582  12.032  19.620  0.00  0.00    +0.000 N 
ATOM     23  C   UNL     1      -1.150  11.885  18.345  0.00  0.00    +0.000 C 
ATOM     24  O   UNL     1      -0.916  12.639  17.397  0.00  0.00    +0.000 OA
ATOM     25  C   UNL     1       0.311  13.117  19.925  0.00  0.00    +0.000 A 
ATOM     26  C   UNL     1       0.999  13.836  18.937  0.00  0.00    +0.000 A 
ATOM     27  C   UNL     1       1.787  14.945  19.262  0.00  0.00    +0.000 A 
ATOM     28  C   UNL     1       1.903  15.355  20.583  0.00  0.00    +0.000 A 
ATOM     29  C   UNL     1       1.250  14.643  21.587  0.00  0.00    +0.000 A 
ATOM     30  C   UNL     1       0.473  13.526  21.262  0.00  0.00    +0.000 A 
ATOM     31  N   UNL     1      -0.181  12.861  22.304  0.00  0.00    +0.000 N 
ATOM     32  H   UNL     1      -0.146  13.218  23.249  0.00  0.00    +0.000 HD
ENDBRANCH  18  23
ENDBRANCH   1  18
TORSDOF 2
ENDMDL
MODEL 5
REMARK VINA RESULT:      -7.4      2.970      5.304
REMARK  Name = 
REMARK  2 active torsions:
REMARK  status: ('A' for Active; 'I' for Inactive)
REMARK    1  A    between atoms: C_5  and  C_7
REMARK    2  A    between atoms: C_7  and  N_8
REMARK                            x       y       z     vdW  Elec       q    Type
REMARK                         _______ _______ _______ _____ _____    ______ ____
ROOT
ATOM      1  N   UNL     1      -3.262  13.810  22.686  0.00  0.00    +0.000 N 
ATOM      2  C   UNL     1      -3.798  13.108  23.719  0.00  0.00    +0.000 C 
ATOM      3  O   UNL     1      -3.665  11.918  23.946  0.00  0.00    +0.000 OA
ATOM      4  N   UNL     1      -4.466  13.978  24.547  0.00  0.00    +0.000 N 
ATOM      5  C   UNL     1      -4.230  15.361  24.188  0.00  0.00    +0.000 C 
ATOM      6  C   UNL     1      -5.561  16.112  24.106  0.00  0.00    +0.000 C 
ATOM      7  C   UNL     1      -5.369  17.601  23.843  0.00  0.00    +0.000 C 
ATOM      8  C   UNL     1      -4.474  18.251  24.894  0.00  0.00    +0.000 C 
ATOM      9  C   UNL     1      -3.262  17.441  25.282  0.00  0.00    +0.000 A 
ATOM     10  C   UNL     1      -2.181  18.095  25.893  0.00  0.00    +0.000 A 
ATOM     11  C   UNL     1      -1.049  17.386  26.296  0.00  0.00    +0.000 A 
ATOM     12  C   UNL     1      -0.999  16.008  26.134  0.00  0.00    +0.000 A 
ATOM     13  C   UNL     1      -2.067  15.343  25.541  0.00  0.00    +0.000 A 
ATOM     14  C   UNL     1      -3.202  16.047  25.084  0.00  0.00    +0.000 A 
ATOM     15  C   UNL     1      -3.537  15.148  22.813  0.00  0.00    +0.000 C 
ATOM     16  O   UNL     1      -3.162  16.034  22.055  0.00  0.00    +0.000 OA
ATOM     17  H   UNL     1      -4.789  13.669  25.454  0.00  0.00    +0.000 HD
ENDROOT
BRANCH   1  18
ATOM     18  C   UNL     1      -2.325  13.257  21.733  0.00  0.00    +0.000 C 
BRANCH  18  23
ATOM     19  O   UNL     1       1.083  10.755  19.101  0.00  0.00    +0.000 OA
ATOM     20  C   UNL     1      -0.116  10.946  18.905  0.00  0.00    +0.000 C 
ATOM     21  C   UNL     1      -1.095  11.207  20.040  0.00  0.00    +0.000 C 
ATOM     22  N   UNL     1      -2.365  11.851  19.659  0.00  0.00    +0.000 N 
ATOM     23  C   UNL     1      -3.040  12.773  20.474  0.00  0.00    +0.000 C 
ATOM     24  O   UNL     1      -4.128  13.277  20.185  0.00  0.00    +0.000 OA
ATOM     25  C   UNL     1      -2.894  11.443  18.385  0.00  0.00    +0.000 A 
ATOM     26  C   UNL     1      -4.247  11.579  18.045  0.00  0.00    +0.000 A 
ATOM     27  C   UNL     1      -4.710  11.260  16.765  0.00  0.00    +0.000 A 
ATOM     28  C   UNL     1      -3.828  10.796  15.800  0.00  0.00    +0.000 A 
ATOM     29  C   UNL     1      -2.482  10.627  16.119  0.00  0.00    +0.000 A 
ATOM     30  C   UNL     1      -2.022  10.935  17.404  0.00  0.00    +0.000 A 
ATOM     31  N   UNL     1      -0.658  10.771  17.665  0.00  0.00    +0.000 N 
ATOM     32  H   UNL     1      -0.018  10.504  16.930  0.00  0.00    +0.000 HD
ENDBRANCH  18  23
ENDBRANCH   1  18
TORSDOF 2
ENDMDL
MODEL 6
REMARK VINA RESULT:      -7.4      1.881      3.557
REMARK  Name = 
REMARK  2 active torsions:
REMARK  status: ('A' for Active; 'I' for Inactive)
REMARK    1  A    between atoms: C_5  and  C_7
REMARK    2  A    between atoms: C_7  and  N_8
REMARK                            x       y       z     vdW  Elec       q    Type
REMARK                         _______ _______ _______ _____ _____    ______ ____
ROOT
ATOM      1  N   UNL     1      -3.639  12.721  22.524  0.00  0.00    +0.000 N 
ATOM      2  C   UNL     1      -4.483  12.539  23.574  0.00  0.00    +0.000 C 
ATOM      3  O   UNL     1      -4.192  12.530  24.757  0.00  0.00    +0.000 OA
ATOM      4  N   UNL     1      -5.769  12.447  23.099  0.00  0.00    +0.000 N 
ATOM      5  C   UNL     1      -5.853  12.765  21.688  0.00  0.00    +0.000 C 
ATOM      6  C   UNL     1      -6.651  11.684  20.956  0.00  0.00    +0.000 C 
ATOM      7  C   UNL     1      -6.870  12.022  19.487  0.00  0.00    +0.000 C 
ATOM      8  C   UNL     1      -7.555  13.375  19.313  0.00  0.00    +0.000 C 
ATOM      9  C   UNL     1      -7.041  14.466  20.220  0.00  0.00    +0.000 A 
ATOM     10  C   UNL     1      -7.282  15.804  19.870  0.00  0.00    +0.000 A 
ATOM     11  C   UNL     1      -6.852  16.847  20.689  0.00  0.00    +0.000 A 
ATOM     12  C   UNL     1      -6.213  16.570  21.890  0.00  0.00    +0.000 A 
ATOM     13  C   UNL     1      -5.977  15.249  22.257  0.00  0.00    +0.000 A 
ATOM     14  C   UNL     1      -6.362  14.179  21.422  0.00  0.00    +0.000 A 
ATOM     15  C   UNL     1      -4.337  12.776  21.344  0.00  0.00    +0.000 C 
ATOM     16  O   UNL     1      -3.856  12.962  20.233  0.00  0.00    +0.000 OA
ATOM     17  H   UNL     1      -6.550  12.475  23.740  0.00  0.00    +0.000 HD
ENDROOT
BRANCH   1  18
ATOM     18  C   UNL     1      -2.240  13.060  22.661  0.00  0.00    +0.000 C 
BRANCH  18  23
ATOM     19  O   UNL     1      -0.496  13.399  18.009  0.00  0.00    +0.000 OA
ATOM     20  C   UNL     1      -0.273  12.585  18.902  0.00  0.00    +0.000 C 
ATOM     21  C   UNL     1      -0.410  12.936  20.376  0.00  0.00    +0.000 C 
ATOM     22  N   UNL     1      -0.558  11.796  21.298  0.00  0.00    +0.000 N 
ATOM     23  C   UNL     1      -1.352  11.834  22.455  0.00  0.00    +0.000 C 
ATOM     24  O   UNL     1      -1.441  10.903  23.258  0.00  0.00    +0.000 OA
ATOM     25  C   UNL     1       0.203  10.628  20.946  0.00  0.00    +0.000 A 
ATOM     26  C   UNL     1       0.549   9.637  21.876  0.00  0.00    +0.000 A 
ATOM     27  C   UNL     1       1.208   8.469  21.481  0.00  0.00    +0.000 A 
ATOM     28  C   UNL     1       1.536   8.270  20.147  0.00  0.00    +0.000 A 
ATOM     29  C   UNL     1       1.226   9.250  19.206  0.00  0.00    +0.000 A 
ATOM     30  C   UNL     1       0.578  10.424  19.605  0.00  0.00    +0.000 A 
ATOM     31  N   UNL     1       0.268  11.365  18.618  0.00  0.00    +0.000 N 
ATOM     32  H   UNL     1       0.447  11.170  17.642  0.00  0.00    +0.000 HD
ENDBRANCH  18  23
ENDBRANCH   1  18
TORSDOF 2
ENDMDL
MODEL 7
REMARK VINA RESULT:      -7.4      1.955      3.291
REMARK  Name = 
REMARK  2 active torsions:
REMARK  status: ('A' for Active; 'I' for Inactive)
REMARK    1  A    between atoms: C_5  and  C_7
REMARK    2  A    between atoms: C_7  and  N_8
REMARK                            x       y       z     vdW  Elec       q    Type
REMARK                         _______ _______ _______ _____ _____    ______ ____
ROOT
ATOM      1  N   UNL     1      -4.465  14.026  21.916  0.00  0.00    +0.000 N 
ATOM      2  C   UNL     1      -4.216  15.024  21.029  0.00  0.00    +0.000 C 
ATOM      3  O   UNL     1      -3.483  15.985  21.190  0.00  0.00    +0.000 OA
ATOM      4  N   UNL     1      -4.865  14.743  19.851  0.00  0.00    +0.000 N 
ATOM      5  C   UNL     1      -5.433  13.410  19.847  0.00  0.00    +0.000 C 
ATOM      6  C   UNL     1      -6.891  13.466  19.386  0.00  0.00    +0.000 C 
ATOM      7  C   UNL     1      -7.508  12.079  19.253  0.00  0.00    +0.000 C 
ATOM      8  C   UNL     1      -6.704  11.189  18.309  0.00  0.00    +0.000 C 
ATOM      9  C   UNL     1      -5.207  11.283  18.474  0.00  0.00    +0.000 A 
ATOM     10  C   UNL     1      -4.408  10.239  17.983  0.00  0.00    +0.000 A 
ATOM     11  C   UNL     1      -3.018  10.292  18.086  0.00  0.00    +0.000 A 
ATOM     12  C   UNL     1      -2.404  11.406  18.641  0.00  0.00    +0.000 A 
ATOM     13  C   UNL     1      -3.181  12.455  19.122  0.00  0.00    +0.000 A 
ATOM     14  C   UNL     1      -4.591  12.402  19.070  0.00  0.00    +0.000 A 
ATOM     15  C   UNL     1      -5.256  13.059  21.351  0.00  0.00    +0.000 C 
ATOM     16  O   UNL     1      -5.624  12.023  21.892  0.00  0.00    +0.000 OA
ATOM     17  H   UNL     1      -4.667  15.283  19.020  0.00  0.00    +0.000 HD
ENDROOT
BRANCH   1  18
ATOM     18  C   UNL     1      -3.785  13.884  23.185  0.00  0.00    +0.000 C 
BRANCH  18  23
ATOM     19  O   UNL     1      -0.044  14.848  20.043  0.00  0.00    +0.000 OA
ATOM     20  C   UNL     1      -0.265  13.882  20.771  0.00  0.00    +0.000 C 
ATOM     21  C   UNL     1      -1.089  13.995  22.045  0.00  0.00    +0.000 C 
ATOM     22  N   UNL     1      -1.647  12.733  22.564  0.00  0.00    +0.000 N 
ATOM     23  C   UNL     1      -2.895  12.642  23.199  0.00  0.00    +0.000 C 
ATOM     24  O   UNL     1      -3.347  11.601  23.680  0.00  0.00    +0.000 OA
ATOM     25  C   UNL     1      -0.799  11.583  22.401  0.00  0.00    +0.000 A 
ATOM     26  C   UNL     1      -0.928  10.427  23.185  0.00  0.00    +0.000 A 
ATOM     27  C   UNL     1      -0.150   9.292  22.938  0.00  0.00    +0.000 A 
ATOM     28  C   UNL     1       0.774   9.291  21.903  0.00  0.00    +0.000 A 
ATOM     29  C   UNL     1       0.939  10.435  21.124  0.00  0.00    +0.000 A 
ATOM     30  C   UNL     1       0.169  11.574  21.381  0.00  0.00    +0.000 A 
ATOM     31  N   UNL     1       0.356  12.687  20.555  0.00  0.00    +0.000 N 
ATOM     32  H   UNL     1       0.979  12.643  19.759  0.00  0.00    +0.000 HD
ENDBRANCH  18  23
ENDBRANCH   1  18
TORSDOF 2
ENDMDL
MODEL 8
REMARK VINA RESULT:      -7.3      4.426      7.419
REMARK  Name = 
REMARK  2 active torsions:
REMARK  status: ('A' for Active; 'I' for Inactive)
REMARK    1  A    between atoms: C_5  and  C_7
REMARK    2  A    between atoms: C_7  and  N_8
REMARK                            x       y       z     vdW  Elec       q    Type
REMARK                         _______ _______ _______ _____ _____    ______ ____
ROOT
ATOM      1  N   UNL     1       1.042   9.205  20.688  0.00  0.00    +0.000 N 
ATOM      2  C   UNL     1       0.402   9.628  21.810  0.00  0.00    +0.000 C 
ATOM      3  O   UNL     1       0.597   9.250  22.952  0.00  0.00    +0.000 OA
ATOM      4  N   UNL     1      -0.467  10.636  21.472  0.00  0.00    +0.000 N 
ATOM      5  C   UNL     1      -0.295  11.067  20.100  0.00  0.00    +0.000 C 
ATOM      6  C   UNL     1      -1.653  11.122  19.396  0.00  0.00    +0.000 C 
ATOM      7  C   UNL     1      -1.548  11.678  17.981  0.00  0.00    +0.000 C 
ATOM      8  C   UNL     1      -0.902  13.061  17.962  0.00  0.00    +0.000 C 
ATOM      9  C   UNL     1       0.293  13.213  18.870  0.00  0.00    +0.000 A 
ATOM     10  C   UNL     1       1.196  14.259  18.627  0.00  0.00    +0.000 A 
ATOM     11  C   UNL     1       2.301  14.459  19.455  0.00  0.00    +0.000 A 
ATOM     12  C   UNL     1       2.497  13.644  20.562  0.00  0.00    +0.000 A 
ATOM     13  C   UNL     1       1.604  12.609  20.823  0.00  0.00    +0.000 A 
ATOM     14  C   UNL     1       0.506  12.360  19.973  0.00  0.00    +0.000 A 
ATOM     15  C   UNL     1       0.635   9.928  19.595  0.00  0.00    +0.000 C 
ATOM     16  O   UNL     1       1.054   9.799  18.451  0.00  0.00    +0.000 OA
ATOM     17  H   UNL     1      -0.910  11.188  22.194  0.00  0.00    +0.000 HD
ENDROOT
BRANCH   1  18
ATOM     18  C   UNL     1       2.169   8.299  20.692  0.00  0.00    +0.000 C 
BRANCH  18  23
ATOM     19  O   UNL     1       4.891   6.408  16.975  0.00  0.00    +0.000 OA
ATOM     20  C   UNL     1       4.055   5.891  17.714  0.00  0.00    +0.000 C 
ATOM     21  C   UNL     1       3.767   6.420  19.111  0.00  0.00    +0.000 C 
ATOM     22  N   UNL     1       2.475   6.019  19.697  0.00  0.00    +0.000 N 
ATOM     23  C   UNL     1       1.713   6.850  20.534  0.00  0.00    +0.000 C 
ATOM     24  O   UNL     1       0.658   6.504  21.068  0.00  0.00    +0.000 OA
ATOM     25  C   UNL     1       2.051   4.683  19.374  0.00  0.00    +0.000 A 
ATOM     26  C   UNL     1       1.124   3.972  20.150  0.00  0.00    +0.000 A 
ATOM     27  C   UNL     1       0.663   2.712  19.756  0.00  0.00    +0.000 A 
ATOM     28  C   UNL     1       1.121   2.139  18.579  0.00  0.00    +0.000 A 
ATOM     29  C   UNL     1       2.061   2.813  17.802  0.00  0.00    +0.000 A 
ATOM     30  C   UNL     1       2.531   4.068  18.204  0.00  0.00    +0.000 A 
ATOM     31  N   UNL     1       3.455   4.714  17.376  0.00  0.00    +0.000 N 
ATOM     32  H   UNL     1       3.720   4.314  16.486  0.00  0.00    +0.000 HD
ENDBRANCH  18  23
ENDBRANCH   1  18
TORSDOF 2
ENDMDL
MODEL 9
REMARK VINA RESULT:      -7.1      2.538      6.931
REMARK  Name = 
REMARK  2 active torsions:
REMARK  status: ('A' for Active; 'I' for Inactive)
REMARK    1  A    between atoms: C_5  and  C_7
REMARK    2  A    between atoms: C_7  and  N_8
REMARK                            x       y       z     vdW  Elec       q    Type
REMARK                         _______ _______ _______ _____ _____    ______ ____
ROOT
ATOM      1  N   UNL     1      -2.754  13.280  21.618  0.00  0.00    +0.000 N 
ATOM      2  C   UNL     1      -1.976  13.770  22.620  0.00  0.00    +0.000 C 
ATOM      3  O   UNL     1      -2.353  14.231  23.683  0.00  0.00    +0.000 OA
ATOM      4  N   UNL     1      -0.656  13.589  22.286  0.00  0.00    +0.000 N 
ATOM      5  C   UNL     1      -0.501  12.773  21.098  0.00  0.00    +0.000 C 
ATOM      6  C   UNL     1       0.461  13.452  20.121  0.00  0.00    +0.000 C 
ATOM      7  C   UNL     1       0.751  12.586  18.901  0.00  0.00    +0.000 C 
ATOM      8  C   UNL     1       1.298  11.216  19.296  0.00  0.00    +0.000 C 
ATOM      9  C   UNL     1       0.603  10.572  20.469  0.00  0.00    +0.000 A 
ATOM     10  C   UNL     1       0.725   9.185  20.646  0.00  0.00    +0.000 A 
ATOM     11  C   UNL     1       0.125   8.546  21.732  0.00  0.00    +0.000 A 
ATOM     12  C   UNL     1      -0.568   9.288  22.678  0.00  0.00    +0.000 A 
ATOM     13  C   UNL     1      -0.688  10.665  22.524  0.00  0.00    +0.000 A 
ATOM     14  C   UNL     1      -0.129  11.326  21.409  0.00  0.00    +0.000 A 
ATOM     15  C   UNL     1      -1.980  12.749  20.618  0.00  0.00    +0.000 C 
ATOM     16  O   UNL     1      -2.393  12.206  19.600  0.00  0.00    +0.000 OA
ATOM     17  H   UNL     1       0.068  13.738  22.975  0.00  0.00    +0.000 HD
ENDROOT
BRANCH   1  18
ATOM     18  C   UNL     1      -4.188  13.117  21.714  0.00  0.00    +0.000 C 
BRANCH  18  23
ATOM     19  O   UNL     1      -6.577  10.008  18.645  0.00  0.00    +0.000 OA
ATOM     20  C   UNL     1      -6.560  11.236  18.705  0.00  0.00    +0.000 C 
ATOM     21  C   UNL     1      -6.274  11.983  19.998  0.00  0.00    +0.000 C 
ATOM     22  N   UNL     1      -5.843  13.385  19.851  0.00  0.00    +0.000 N 
ATOM     23  C   UNL     1      -4.912  14.002  20.701  0.00  0.00    +0.000 C 
ATOM     24  O   UNL     1      -4.584  15.187  20.616  0.00  0.00    +0.000 OA
ATOM     25  C   UNL     1      -6.471  14.103  18.775  0.00  0.00    +0.000 A 
ATOM     26  C   UNL     1      -6.544  15.503  18.736  0.00  0.00    +0.000 A 
ATOM     27  C   UNL     1      -7.078  16.172  17.630  0.00  0.00    +0.000 A 
ATOM     28  C   UNL     1      -7.552  15.453  16.542  0.00  0.00    +0.000 A 
ATOM     29  C   UNL     1      -7.515  14.060  16.566  0.00  0.00    +0.000 A 
ATOM     30  C   UNL     1      -6.992  13.392  17.678  0.00  0.00    +0.000 A 
ATOM     31  N   UNL     1      -6.955  11.994  17.642  0.00  0.00    +0.000 N 
ATOM     32  H   UNL     1      -7.236  11.490  16.811  0.00  0.00    +0.000 HD
ENDBRANCH  18  23
ENDBRANCH   1  18
TORSDOF 2
ENDMDL
