MODEL 1
REMARK VINA RESULT:      -8.3      0.000      0.000
REMARK  Name = 
REMARK  6 active torsions:
REMARK  status: ('A' for Active; 'I' for Inactive)
REMARK    1  A    between atoms: C_1  and  O_2
REMARK    2  A    between atoms: O_2  and  C_3
REMARK    3  A    between atoms: C_6  and  C_7
REMARK    4  A    between atoms: C_7  and  C_8
REMARK    5  A    between atoms: C_11  and  C_12
REMARK    6  A    between atoms: C_21  and  C_22
REMARK                            x       y       z     vdW  Elec       q    Type
REMARK                         _______ _______ _______ _____ _____    ______ ____
ROOT
ATOM      1  C   UNL     1       2.327   4.327  19.727  0.00  0.00    +0.000 A 
ATOM      2  N   UNL     1       1.163   4.272  20.392  0.00  0.00    +0.000 NA
ATOM      3  O   UNL     1       0.888   5.610  20.665  0.00  0.00    +0.000 OA
ATOM      4  C   UNL     1       1.931   6.334  20.160  0.00  0.00    +0.000 A 
ATOM      5  N   UNL     1       2.834   5.592  19.558  0.00  0.00    +0.000 NA
ENDROOT
BRANCH   4   6
ATOM      6  C   UNL     1       1.918   7.784  20.477  0.00  0.00    +0.000 C 
ATOM      7  C   UNL     1       0.869   8.074  21.570  0.00  0.00    +0.000 C 
ATOM      8  C   UNL     1       0.311   9.380  21.112  0.00  0.00    +0.000 A 
ATOM      9  C   UNL     1      -0.545  10.215  21.817  0.00  0.00    +0.000 A 
ATOM     10  C   UNL     1      -0.988  11.384  21.199  0.00  0.00    +0.000 A 
ATOM     11  C   UNL     1      -0.590  11.687  19.892  0.00  0.00    +0.000 A 
ATOM     12  C   UNL     1       0.257  10.826  19.185  0.00  0.00    +0.000 A 
ATOM     13  C   UNL     1       0.712   9.673  19.807  0.00  0.00    +0.000 A 
ATOM     14  N   UNL     1       1.592   8.673  19.317  0.00  0.00    +0.000 N 
ATOM     15  C   UNL     1       2.226   8.747  18.088  0.00  0.00    +0.000 C 
ATOM     16  C   UNL     1       3.174   7.642  17.685  0.00  0.00    +0.000 C 
ATOM     17  O   UNL     1       2.040   9.647  17.264  0.00  0.00    +0.000 OA
ENDBRANCH   4   6
BRANCH   1  18
ATOM     18  C   UNL     1       3.080   3.117  19.323  0.00  0.00    +0.000 C 
BRANCH  18  22
ATOM     19  C   UNL     1       6.276   4.489  16.899  0.00  0.00    +0.000 A 
ATOM     20  C   UNL     1       5.117   4.093  16.256  0.00  0.00    +0.000 A 
ATOM     21  C   UNL     1       4.053   3.635  17.037  0.00  0.00    +0.000 A 
ATOM     22  C   UNL     1       4.187   3.590  18.424  0.00  0.00    +0.000 A 
ATOM     23  C   UNL     1       5.402   3.998  18.968  0.00  0.00    +0.000 A 
ATOM     24  N   UNL     1       6.442   4.453  18.238  0.00  0.00    +0.000 NA
BRANCH  19  26
ATOM     25  C   UNL     1       7.034   4.755  14.711  0.00  0.00    +0.000 C 
ATOM     26  O   UNL     1       7.309   4.930  16.098  0.00  0.00    +0.000 OA
ENDBRANCH  19  26
ENDBRANCH  18  22
ENDBRANCH   1  18
TORSDOF 4
ENDMDL
MODEL 2
REMARK VINA RESULT:      -8.2      1.660      1.888
REMARK  Name = 
REMARK  6 active torsions:
REMARK  status: ('A' for Active; 'I' for Inactive)
REMARK    1  A    between atoms: C_1  and  O_2
REMARK    2  A    between atoms: O_2  and  C_3
REMARK    3  A    between atoms: C_6  and  C_7
REMARK    4  A    between atoms: C_7  and  C_8
REMARK    5  A    between atoms: C_11  and  C_12
REMARK    6  A    between atoms: C_21  and  C_22
REMARK                            x       y       z     vdW  Elec       q    Type
REMARK                         _______ _______ _______ _____ _____    ______ ____
ROOT
ATOM      1  C   UNL     1       2.432   5.472  19.645  0.00  0.00    +0.000 A 
ATOM      2  N   UNL     1       1.473   5.150  20.527  0.00  0.00    +0.000 NA
ATOM      3  O   UNL     1       1.032   6.390  20.985  0.00  0.00    +0.000 OA
ATOM      4  C   UNL     1       1.792   7.333  20.350  0.00  0.00    +0.000 A 
ATOM      5  N   UNL     1       2.655   6.819  19.503  0.00  0.00    +0.000 NA
ENDROOT
BRANCH   4   6
ATOM      6  C   UNL     1       1.592   8.730  20.808  0.00  0.00    +0.000 C 
ATOM      7  C   UNL     1       0.984   8.739  22.226  0.00  0.00    +0.000 C 
ATOM      8  C   UNL     1       0.036   9.887  22.141  0.00  0.00    +0.000 A 
ATOM      9  C   UNL     1      -0.654  10.479  23.189  0.00  0.00    +0.000 A 
ATOM     10  C   UNL     1      -1.529  11.525  22.900  0.00  0.00    +0.000 A 
ATOM     11  C   UNL     1      -1.715  11.945  21.577  0.00  0.00    +0.000 A 
ATOM     12  C   UNL     1      -1.029  11.326  20.527  0.00  0.00    +0.000 A 
ATOM     13  C   UNL     1      -0.145  10.298  20.818  0.00  0.00    +0.000 A 
ATOM     14  N   UNL     1       0.682   9.545  19.943  0.00  0.00    +0.000 N 
ATOM     15  C   UNL     1       0.786   9.797  18.584  0.00  0.00    +0.000 C 
ATOM     16  C   UNL     1       1.727   8.957  17.755  0.00  0.00    +0.000 C 
ATOM     17  O   UNL     1       0.124  10.647  17.983  0.00  0.00    +0.000 OA
ENDBRANCH   4   6
BRANCH   1  18
ATOM     18  C   UNL     1       3.279   4.458  18.973  0.00  0.00    +0.000 C 
BRANCH  18  22
ATOM     19  C   UNL     1       6.660   6.531  17.477  0.00  0.00    +0.000 A 
ATOM     20  C   UNL     1       5.504   6.572  16.719  0.00  0.00    +0.000 A 
ATOM     21  C   UNL     1       4.379   5.894  17.194  0.00  0.00    +0.000 A 
ATOM     22  C   UNL     1       4.452   5.201  18.402  0.00  0.00    +0.000 A 
ATOM     23  C   UNL     1       5.669   5.212  19.078  0.00  0.00    +0.000 A 
ATOM     24  N   UNL     1       6.768   5.867  18.647  0.00  0.00    +0.000 NA
BRANCH  19  26
ATOM     25  C   UNL     1       7.962   8.458  17.627  0.00  0.00    +0.000 C 
ATOM     26  O   UNL     1       7.754   7.208  16.977  0.00  0.00    +0.000 OA
ENDBRANCH  19  26
ENDBRANCH  18  22
ENDBRANCH   1  18
TORSDOF 4
ENDMDL
MODEL 3
REMARK VINA RESULT:      -8.0      0.942      1.044
REMARK  Name = 
REMARK  6 active torsions:
REMARK  status: ('A' for Active; 'I' for Inactive)
REMARK    1  A    between atoms: C_1  and  O_2
REMARK    2  A    between atoms: O_2  and  C_3
REMARK    3  A    between atoms: C_6  and  C_7
REMARK    4  A    between atoms: C_7  and  C_8
REMARK    5  A    between atoms: C_11  and  C_12
REMARK    6  A    between atoms: C_21  and  C_22
REMARK                            x       y       z     vdW  Elec       q    Type
REMARK                         _______ _______ _______ _____ _____    ______ ____
ROOT
ATOM      1  C   UNL     1       2.582   5.111  20.030  0.00  0.00    +0.000 A 
ATOM      2  N   UNL     1       1.336   4.943  20.499  0.00  0.00    +0.000 NA
ATOM      3  O   UNL     1       0.908   6.247  20.741  0.00  0.00    +0.000 OA
ATOM      4  C   UNL     1       1.953   7.067  20.417  0.00  0.00    +0.000 A 
ATOM      5  N   UNL     1       2.999   6.417  19.958  0.00  0.00    +0.000 NA
ENDROOT
BRANCH   4   6
ATOM      6  C   UNL     1       1.767   8.502  20.745  0.00  0.00    +0.000 C 
ATOM      7  C   UNL     1       1.101   8.644  22.129  0.00  0.00    +0.000 C 
ATOM      8  C   UNL     1       0.184   9.799  21.905  0.00  0.00    +0.000 A 
ATOM      9  C   UNL     1      -0.536  10.493  22.868  0.00  0.00    +0.000 A 
ATOM     10  C   UNL     1      -1.374  11.527  22.452  0.00  0.00    +0.000 A 
ATOM     11  C   UNL     1      -1.494  11.835  21.091  0.00  0.00    +0.000 A 
ATOM     12  C   UNL     1      -0.779  11.115  20.129  0.00  0.00    +0.000 A 
ATOM     13  C   UNL     1       0.068  10.098  20.545  0.00  0.00    +0.000 A 
ATOM     14  N   UNL     1       0.913   9.257  19.774  0.00  0.00    +0.000 N 
ATOM     15  C   UNL     1       1.080   9.389  18.405  0.00  0.00    +0.000 C 
ATOM     16  C   UNL     1       2.036   8.462  17.692  0.00  0.00    +0.000 C 
ATOM     17  O   UNL     1       0.464  10.197  17.706  0.00  0.00    +0.000 OA
ENDBRANCH   4   6
BRANCH   1  18
ATOM     18  C   UNL     1       3.489   3.977  19.737  0.00  0.00    +0.000 C 
BRANCH  18  22
ATOM     19  C   UNL     1       6.219   5.339  16.794  0.00  0.00    +0.000 A 
ATOM     20  C   UNL     1       4.928   5.064  16.383  0.00  0.00    +0.000 A 
ATOM     21  C   UNL     1       4.013   4.611  17.337  0.00  0.00    +0.000 A 
ATOM     22  C   UNL     1       4.422   4.451  18.660  0.00  0.00    +0.000 A 
ATOM     23  C   UNL     1       5.749   4.743  18.965  0.00  0.00    +0.000 A 
ATOM     24  N   UNL     1       6.650   5.191  18.065  0.00  0.00    +0.000 NA
BRANCH  19  26
ATOM     25  C   UNL     1       7.077   4.959  14.661  0.00  0.00    +0.000 C 
ATOM     26  O   UNL     1       7.098   5.780  15.826  0.00  0.00    +0.000 OA
ENDBRANCH  19  26
ENDBRANCH  18  22
ENDBRANCH   1  18
TORSDOF 4
ENDMDL
MODEL 4
REMARK VINA RESULT:      -8.0      1.812      2.201
REMARK  Name = 
REMARK  6 active torsions:
REMARK  status: ('A' for Active; 'I' for Inactive)
REMARK    1  A    between atoms: C_1  and  O_2
REMARK    2  A    between atoms: O_2  and  C_3
REMARK    3  A    between atoms: C_6  and  C_7
REMARK    4  A    between atoms: C_7  and  C_8
REMARK    5  A    between atoms: C_11  and  C_12
REMARK    6  A    between atoms: C_21  and  C_22
REMARK                            x       y       z     vdW  Elec       q    Type
REMARK                         _______ _______ _______ _____ _____    ______ ____
ROOT
ATOM      1  C   UNL     1       2.415   5.607  19.137  0.00  0.00    +0.000 A 
ATOM      2  N   UNL     1       1.781   5.139  20.223  0.00  0.00    +0.000 NA
ATOM      3  O   UNL     1       1.369   6.299  20.875  0.00  0.00    +0.000 OA
ATOM      4  C   UNL     1       1.822   7.350  20.127  0.00  0.00    +0.000 A 
ATOM      5  N   UNL     1       2.457   6.976  19.039  0.00  0.00    +0.000 NA
ENDROOT
BRANCH   4   6
ATOM      6  C   UNL     1       1.625   8.694  20.725  0.00  0.00    +0.000 C 
ATOM      7  C   UNL     1       1.037   8.559  22.144  0.00  0.00    +0.000 C 
ATOM      8  C   UNL     1       0.084   9.706  22.186  0.00  0.00    +0.000 A 
ATOM      9  C   UNL     1      -0.594  10.188  23.297  0.00  0.00    +0.000 A 
ATOM     10  C   UNL     1      -1.475  11.254  23.125  0.00  0.00    +0.000 A 
ATOM     11  C   UNL     1      -1.680  11.803  21.853  0.00  0.00    +0.000 A 
ATOM     12  C   UNL     1      -1.006  11.294  20.738  0.00  0.00    +0.000 A 
ATOM     13  C   UNL     1      -0.116  10.246  20.913  0.00  0.00    +0.000 A 
ATOM     14  N   UNL     1       0.701   9.587  19.957  0.00  0.00    +0.000 N 
ATOM     15  C   UNL     1       0.787   9.974  18.629  0.00  0.00    +0.000 C 
ATOM     16  C   UNL     1       1.719   9.224  17.707  0.00  0.00    +0.000 C 
ATOM     17  O   UNL     1       0.114  10.877  18.124  0.00  0.00    +0.000 OA
ENDBRANCH   4   6
BRANCH   1  18
ATOM     18  C   UNL     1       3.132   4.727  18.185  0.00  0.00    +0.000 C 
BRANCH  18  22
ATOM     19  C   UNL     1       6.784   6.661  17.239  0.00  0.00    +0.000 A 
ATOM     20  C   UNL     1       6.724   5.970  18.435  0.00  0.00    +0.000 A 
ATOM     21  C   UNL     1       5.528   5.327  18.767  0.00  0.00    +0.000 A 
ATOM     22  C   UNL     1       4.443   5.400  17.894  0.00  0.00    +0.000 A 
ATOM     23  C   UNL     1       4.606   6.135  16.722  0.00  0.00    +0.000 A 
ATOM     24  N   UNL     1       5.753   6.757  16.374  0.00  0.00    +0.000 NA
BRANCH  19  26
ATOM     25  C   UNL     1       8.131   8.519  17.646  0.00  0.00    +0.000 C 
ATOM     26  O   UNL     1       7.978   7.287  16.945  0.00  0.00    +0.000 OA
ENDBRANCH  19  26
ENDBRANCH  18  22
ENDBRANCH   1  18
TORSDOF 4
ENDMDL
MODEL 5
REMARK VINA RESULT:      -8.0      2.601      8.179
REMARK  Name = 
REMARK  6 active torsions:
REMARK  status: ('A' for Active; 'I' for Inactive)
REMARK    1  A    between atoms: C_1  and  O_2
REMARK    2  A    between atoms: O_2  and  C_3
REMARK    3  A    between atoms: C_6  and  C_7
REMARK    4  A    between atoms: C_7  and  C_8
REMARK    5  A    between atoms: C_11  and  C_12
REMARK    6  A    between atoms: C_21  and  C_22
REMARK                            x       y       z     vdW  Elec       q    Type
REMARK                         _______ _______ _______ _____ _____    ______ ____
ROOT
ATOM      1  C   UNL     1       1.539   8.944  18.877  0.00  0.00    +0.000 A 
ATOM      2  N   UNL     1       1.762   9.194  17.577  0.00  0.00    +0.000 NA
ATOM      3  O   UNL     1       2.665   8.199  17.211  0.00  0.00    +0.000 OA
ATOM      4  C   UNL     1       2.917   7.467  18.338  0.00  0.00    +0.000 A 
ATOM      5  N   UNL     1       2.235   7.875  19.384  0.00  0.00    +0.000 NA
ENDROOT
BRANCH   4   6
ATOM      6  C   UNL     1       3.979   6.439  18.209  0.00  0.00    +0.000 C 
ATOM      7  C   UNL     1       5.226   7.051  17.537  0.00  0.00    +0.000 C 
ATOM      8  C   UNL     1       5.685   5.925  16.672  0.00  0.00    +0.000 A 
ATOM      9  C   UNL     1       6.882   5.843  15.974  0.00  0.00    +0.000 A 
ATOM     10  C   UNL     1       7.113   4.718  15.185  0.00  0.00    +0.000 A 
ATOM     11  C   UNL     1       6.144   3.711  15.090  0.00  0.00    +0.000 A 
ATOM     12  C   UNL     1       4.934   3.815  15.783  0.00  0.00    +0.000 A 
ATOM     13  C   UNL     1       4.713   4.927  16.581  0.00  0.00    +0.000 A 
ATOM     14  N   UNL     1       3.594   5.242  17.397  0.00  0.00    +0.000 N 
ATOM     15  C   UNL     1       2.518   4.389  17.582  0.00  0.00    +0.000 C 
ATOM     16  C   UNL     1       1.399   4.812  18.504  0.00  0.00    +0.000 C 
ATOM     17  O   UNL     1       2.384   3.306  17.007  0.00  0.00    +0.000 OA
ENDBRANCH   4   6
BRANCH   1  18
ATOM     18  C   UNL     1       0.716   9.827  19.735  0.00  0.00    +0.000 C 
BRANCH  18  22
ATOM     19  C   UNL     1      -2.511  11.227  17.369  0.00  0.00    +0.000 A 
ATOM     20  C   UNL     1      -2.474   9.875  17.655  0.00  0.00    +0.000 A 
ATOM     21  C   UNL     1      -1.417   9.392  18.432  0.00  0.00    +0.000 A 
ATOM     22  C   UNL     1      -0.441  10.277  18.890  0.00  0.00    +0.000 A 
ATOM     23  C   UNL     1      -0.566  11.617  18.532  0.00  0.00    +0.000 A 
ATOM     24  N   UNL     1      -1.581  12.110  17.791  0.00  0.00    +0.000 NA
BRANCH  19  26
ATOM     25  C   UNL     1      -3.811  10.820  15.478  0.00  0.00    +0.000 C 
ATOM     26  O   UNL     1      -3.565  11.669  16.595  0.00  0.00    +0.000 OA
ENDBRANCH  19  26
ENDBRANCH  18  22
ENDBRANCH   1  18
TORSDOF 4
ENDMDL
MODEL 6
REMARK VINA RESULT:      -7.9      0.660      1.011
REMARK  Name = 
REMARK  6 active torsions:
REMARK  status: ('A' for Active; 'I' for Inactive)
REMARK    1  A    between atoms: C_1  and  O_2
REMARK    2  A    between atoms: O_2  and  C_3
REMARK    3  A    between atoms: C_6  and  C_7
REMARK    4  A    between atoms: C_7  and  C_8
REMARK    5  A    between atoms: C_11  and  C_12
REMARK    6  A    between atoms: C_21  and  C_22
REMARK                            x       y       z     vdW  Elec       q    Type
REMARK                         _______ _______ _______ _____ _____    ______ ____
ROOT
ATOM      1  C   UNL     1       2.630   4.505  19.696  0.00  0.00    +0.000 A 
ATOM      2  N   UNL     1       1.455   4.365  20.329  0.00  0.00    +0.000 NA
ATOM      3  O   UNL     1       1.097   5.677  20.630  0.00  0.00    +0.000 OA
ATOM      4  C   UNL     1       2.109   6.473  20.171  0.00  0.00    +0.000 A 
ATOM      5  N   UNL     1       3.067   5.801  19.573  0.00  0.00    +0.000 NA
ENDROOT
BRANCH   4   6
ATOM      6  C   UNL     1       2.005   7.910  20.526  0.00  0.00    +0.000 C 
ATOM      7  C   UNL     1       1.019   8.094  21.697  0.00  0.00    +0.000 C 
ATOM      8  C   UNL     1       0.328   9.359  21.315  0.00  0.00    +0.000 A 
ATOM      9  C   UNL     1      -0.537  10.109  22.100  0.00  0.00    +0.000 A 
ATOM     10  C   UNL     1      -1.115  11.250  21.546  0.00  0.00    +0.000 A 
ATOM     11  C   UNL     1      -0.838  11.610  20.221  0.00  0.00    +0.000 A 
ATOM     12  C   UNL     1       0.020  10.835  19.434  0.00  0.00    +0.000 A 
ATOM     13  C   UNL     1       0.608   9.710  19.992  0.00  0.00    +0.000 A 
ATOM     14  N   UNL     1       1.527   8.793  19.416  0.00  0.00    +0.000 N 
ATOM     15  C   UNL     1       2.062   8.943  18.146  0.00  0.00    +0.000 C 
ATOM     16  C   UNL     1       3.061   7.926  17.649  0.00  0.00    +0.000 C 
ATOM     17  O   UNL     1       1.745   9.841  17.361  0.00  0.00    +0.000 OA
ENDBRANCH   4   6
BRANCH   1  18
ATOM     18  C   UNL     1       3.461   3.351  19.280  0.00  0.00    +0.000 C 
BRANCH  18  22
ATOM     19  C   UNL     1       6.270   4.843  16.478  0.00  0.00    +0.000 A 
ATOM     20  C   UNL     1       6.653   4.815  17.807  0.00  0.00    +0.000 A 
ATOM     21  C   UNL     1       5.740   4.329  18.747  0.00  0.00    +0.000 A 
ATOM     22  C   UNL     1       4.485   3.892  18.325  0.00  0.00    +0.000 A 
ATOM     23  C   UNL     1       4.196   3.977  16.965  0.00  0.00    +0.000 A 
ATOM     24  N   UNL     1       5.063   4.433  16.036  0.00  0.00    +0.000 NA
BRANCH  19  26
ATOM     25  C   UNL     1       6.978   4.840  14.258  0.00  0.00    +0.000 C 
ATOM     26  O   UNL     1       7.193   5.333  15.577  0.00  0.00    +0.000 OA
ENDBRANCH  19  26
ENDBRANCH  18  22
ENDBRANCH   1  18
TORSDOF 4
ENDMDL
MODEL 7
REMARK VINA RESULT:      -7.9      4.210      6.778
REMARK  Name = 
REMARK  6 active torsions:
REMARK  status: ('A' for Active; 'I' for Inactive)
REMARK    1  A    between atoms: C_1  and  O_2
REMARK    2  A    between atoms: O_2  and  C_3
REMARK    3  A    between atoms: C_6  and  C_7
REMARK    4  A    between atoms: C_7  and  C_8
REMARK    5  A    between atoms: C_11  and  C_12
REMARK    6  A    between atoms: C_21  and  C_22
REMARK                            x       y       z     vdW  Elec       q    Type
REMARK                         _______ _______ _______ _____ _____    ______ ____
ROOT
ATOM      1  C   UNL     1       6.425   5.047  14.100  0.00  0.00    +0.000 A 
ATOM      2  N   UNL     1       5.693   6.111  14.465  0.00  0.00    +0.000 NA
ATOM      3  O   UNL     1       5.101   5.697  15.656  0.00  0.00    +0.000 OA
ATOM      4  C   UNL     1       5.516   4.413  15.873  0.00  0.00    +0.000 A 
ATOM      5  N   UNL     1       6.345   3.974  14.953  0.00  0.00    +0.000 NA
ENDROOT
BRANCH   4   6
ATOM      6  C   UNL     1       4.877   3.719  17.019  0.00  0.00    +0.000 C 
ATOM      7  C   UNL     1       3.368   3.545  16.756  0.00  0.00    +0.000 C 
ATOM      8  C   UNL     1       2.796   3.783  18.113  0.00  0.00    +0.000 A 
ATOM      9  C   UNL     1       1.484   3.570  18.515  0.00  0.00    +0.000 A 
ATOM     10  C   UNL     1       1.133   3.890  19.826  0.00  0.00    +0.000 A 
ATOM     11  C   UNL     1       2.083   4.433  20.699  0.00  0.00    +0.000 A 
ATOM     12  C   UNL     1       3.396   4.661  20.275  0.00  0.00    +0.000 A 
ATOM     13  C   UNL     1       3.749   4.326  18.977  0.00  0.00    +0.000 A 
ATOM     14  N   UNL     1       5.009   4.430  18.330  0.00  0.00    +0.000 N 
ATOM     15  C   UNL     1       6.166   4.843  18.970  0.00  0.00    +0.000 C 
ATOM     16  C   UNL     1       7.460   4.880  18.193  0.00  0.00    +0.000 C 
ATOM     17  O   UNL     1       6.210   5.230  20.141  0.00  0.00    +0.000 OA
ENDBRANCH   4   6
BRANCH   1  18
ATOM     18  C   UNL     1       7.156   4.977  12.814  0.00  0.00    +0.000 C 
BRANCH  18  22
ATOM     19  C   UNL     1       6.018   1.266  11.109  0.00  0.00    +0.000 A 
ATOM     20  C   UNL     1       7.370   1.552  11.162  0.00  0.00    +0.000 A 
ATOM     21  C   UNL     1       7.766   2.771  11.718  0.00  0.00    +0.000 A 
ATOM     22  C   UNL     1       6.800   3.655  12.197  0.00  0.00    +0.000 A 
ATOM     23  C   UNL     1       5.465   3.275  12.082  0.00  0.00    +0.000 A 
ATOM     24  N   UNL     1       5.056   2.099  11.559  0.00  0.00    +0.000 NA
BRANCH  19  26
ATOM     25  C   UNL     1       6.005  -1.049  11.382  0.00  0.00    +0.000 C 
ATOM     26  O   UNL     1       5.662   0.056  10.550  0.00  0.00    +0.000 OA
ENDBRANCH  19  26
ENDBRANCH  18  22
ENDBRANCH   1  18
TORSDOF 4
ENDMDL
MODEL 8
REMARK VINA RESULT:      -7.9      3.863      6.774
REMARK  Name = 
REMARK  6 active torsions:
REMARK  status: ('A' for Active; 'I' for Inactive)
REMARK    1  A    between atoms: C_1  and  O_2
REMARK    2  A    between atoms: O_2  and  C_3
REMARK    3  A    between atoms: C_6  and  C_7
REMARK    4  A    between atoms: C_7  and  C_8
REMARK    5  A    between atoms: C_11  and  C_12
REMARK    6  A    between atoms: C_21  and  C_22
REMARK                            x       y       z     vdW  Elec       q    Type
REMARK                         _______ _______ _______ _____ _____    ______ ____
ROOT
ATOM      1  C   UNL     1       6.775   4.847  14.348  0.00  0.00    +0.000 A 
ATOM      2  N   UNL     1       7.765   5.231  15.168  0.00  0.00    +0.000 NA
ATOM      3  O   UNL     1       7.264   4.936  16.434  0.00  0.00    +0.000 OA
ATOM      4  C   UNL     1       6.008   4.428  16.248  0.00  0.00    +0.000 A 
ATOM      5  N   UNL     1       5.669   4.337  14.981  0.00  0.00    +0.000 NA
ENDROOT
BRANCH   4   6
ATOM      6  C   UNL     1       5.225   4.187  17.485  0.00  0.00    +0.000 C 
ATOM      7  C   UNL     1       4.736   2.725  17.522  0.00  0.00    +0.000 C 
ATOM      8  C   UNL     1       3.372   2.878  18.107  0.00  0.00    +0.000 A 
ATOM      9  C   UNL     1       2.534   1.863  18.547  0.00  0.00    +0.000 A 
ATOM     10  C   UNL     1       1.273   2.208  19.032  0.00  0.00    +0.000 A 
ATOM     11  C   UNL     1       0.866   3.548  19.050  0.00  0.00    +0.000 A 
ATOM     12  C   UNL     1       1.713   4.559  18.586  0.00  0.00    +0.000 A 
ATOM     13  C   UNL     1       2.973   4.216  18.120  0.00  0.00    +0.000 A 
ATOM     14  N   UNL     1       4.013   5.053  17.634  0.00  0.00    +0.000 N 
ATOM     15  C   UNL     1       3.939   6.436  17.622  0.00  0.00    +0.000 C 
ATOM     16  C   UNL     1       5.121   7.228  17.117  0.00  0.00    +0.000 C 
ATOM     17  O   UNL     1       2.943   7.081  17.962  0.00  0.00    +0.000 OA
ENDBRANCH   4   6
BRANCH   1  18
ATOM     18  C   UNL     1       6.810   5.075  12.885  0.00  0.00    +0.000 C 
BRANCH  18  22
ATOM     19  C   UNL     1       6.261   1.295  11.047  0.00  0.00    +0.000 A 
ATOM     20  C   UNL     1       5.127   1.973  11.454  0.00  0.00    +0.000 A 
ATOM     21  C   UNL     1       5.286   3.220  12.065  0.00  0.00    +0.000 A 
ATOM     22  C   UNL     1       6.568   3.739  12.244  0.00  0.00    +0.000 A 
ATOM     23  C   UNL     1       7.643   2.967  11.810  0.00  0.00    +0.000 A 
ATOM     24  N   UNL     1       7.516   1.765  11.209  0.00  0.00    +0.000 NA
BRANCH  19  26
ATOM     25  C   UNL     1       5.921  -0.982  11.408  0.00  0.00    +0.000 C 
ATOM     26  O   UNL     1       6.069   0.065  10.453  0.00  0.00    +0.000 OA
ENDBRANCH  19  26
ENDBRANCH  18  22
ENDBRANCH   1  18
TORSDOF 4
ENDMDL
MODEL 9
REMARK VINA RESULT:      -7.7      2.283      8.232
REMARK  Name = 
REMARK  6 active torsions:
REMARK  status: ('A' for Active; 'I' for Inactive)
REMARK    1  A    between atoms: C_1  and  O_2
REMARK    2  A    between atoms: O_2  and  C_3
REMARK    3  A    between atoms: C_6  and  C_7
REMARK    4  A    between atoms: C_7  and  C_8
REMARK    5  A    between atoms: C_11  and  C_12
REMARK    6  A    between atoms: C_21  and  C_22
REMARK                            x       y       z     vdW  Elec       q    Type
REMARK                         _______ _______ _______ _____ _____    ______ ____
ROOT
ATOM      1  C   UNL     1       1.628   8.650  18.582  0.00  0.00    +0.000 A 
ATOM      2  N   UNL     1       1.597   8.137  19.821  0.00  0.00    +0.000 NA
ATOM      3  O   UNL     1       2.628   7.200  19.804  0.00  0.00    +0.000 OA
ATOM      4  C   UNL     1       3.157   7.225  18.544  0.00  0.00    +0.000 A 
ATOM      5  N   UNL     1       2.588   8.114  17.761  0.00  0.00    +0.000 NA
ENDROOT
BRANCH   4   6
ATOM      6  C   UNL     1       4.178   6.188  18.257  0.00  0.00    +0.000 C 
ATOM      7  C   UNL     1       5.408   6.829  17.585  0.00  0.00    +0.000 C 
ATOM      8  C   UNL     1       5.786   5.786  16.588  0.00  0.00    +0.000 A 
ATOM      9  C   UNL     1       6.943   5.743  15.822  0.00  0.00    +0.000 A 
ATOM     10  C   UNL     1       7.098   4.697  14.913  0.00  0.00    +0.000 A 
ATOM     11  C   UNL     1       6.093   3.732  14.769  0.00  0.00    +0.000 A 
ATOM     12  C   UNL     1       4.923   3.799  15.532  0.00  0.00    +0.000 A 
ATOM     13  C   UNL     1       4.779   4.829  16.449  0.00  0.00    +0.000 A 
ATOM     14  N   UNL     1       3.713   5.090  17.350  0.00  0.00    +0.000 N 
ATOM     15  C   UNL     1       2.620   4.253  17.506  0.00  0.00    +0.000 C 
ATOM     16  C   UNL     1       1.563   4.611  18.524  0.00  0.00    +0.000 C 
ATOM     17  O   UNL     1       2.422   3.238  16.833  0.00  0.00    +0.000 OA
ENDBRANCH   4   6
BRANCH   1  18
ATOM     18  C   UNL     1       0.624   9.622  18.090  0.00  0.00    +0.000 C 
BRANCH  18  22
ATOM     19  C   UNL     1       0.221  12.497  21.180  0.00  0.00    +0.000 A 
ATOM     20  C   UNL     1      -0.835  11.627  20.981  0.00  0.00    +0.000 A 
ATOM     21  C   UNL     1      -0.723  10.673  19.966  0.00  0.00    +0.000 A 
ATOM     22  C   UNL     1       0.435  10.627  19.191  0.00  0.00    +0.000 A 
ATOM     23  C   UNL     1       1.432  11.559  19.465  0.00  0.00    +0.000 A 
ATOM     24  N   UNL     1       1.353  12.484  20.445  0.00  0.00    +0.000 NA
BRANCH  19  26
ATOM     25  C   UNL     1      -1.063  13.173  23.003  0.00  0.00    +0.000 C 
ATOM     26  O   UNL     1       0.076  13.429  22.186  0.00  0.00    +0.000 OA
ENDBRANCH  19  26
ENDBRANCH  18  22
ENDBRANCH   1  18
TORSDOF 4
ENDMDL
