MODEL 1
REMARK VINA RESULT:      -9.5      0.000      0.000
REMARK  Name = 
REMARK  7 active torsions:
REMARK  status: ('A' for Active; 'I' for Inactive)
REMARK    1  A    between atoms: C_1  and  C_2
REMARK    2  A    between atoms: C_7  and  C_8
REMARK    3  A    between atoms: C_8  and  O_9
REMARK    4  A    between atoms: O_9  and  C_10
REMARK    5  A    between atoms: C_14  and  C_15
REMARK    6  A    between atoms: C_15  and  C_16
REMARK    7  A    between atoms: N_18  and  C_19
REMARK                            x       y       z     vdW  Elec       q    Type
REMARK                         _______ _______ _______ _____ _____    ______ ____
ROOT
ATOM      1  C   UNL     1       7.794   6.556  18.002  0.00  0.00    +0.000 C 
ENDROOT
BRANCH   1   6
ATOM      2  C   UNL     1       5.016   4.224  16.633  0.00  0.00    +0.000 A 
ATOM      3  C   UNL     1       5.449   4.040  15.321  0.00  0.00    +0.000 A 
ATOM      4  C   UNL     1       6.606   4.672  14.872  0.00  0.00    +0.000 A 
ATOM      5  C   UNL     1       7.342   5.540  15.718  0.00  0.00    +0.000 A 
ATOM      6  C   UNL     1       6.878   5.799  17.028  0.00  0.00    +0.000 A 
ATOM      7  C   UNL     1       5.728   5.106  17.473  0.00  0.00    +0.000 A 
BRANCH   2   8
ATOM      8  O   UNL     1       3.903   3.477  16.949  0.00  0.00    +0.000 OA
BRANCH   8   9
ATOM      9  C   UNL     1       2.714   4.149  17.373  0.00  0.00    +0.000 C 
BRANCH   9  16
ATOM     10  C   UNL     1       2.860   6.319  19.519  0.00  0.00    +0.000 C 
ATOM     11  C   UNL     1       2.439   4.918  19.842  0.00  0.00    +0.000 A 
ATOM     12  C   UNL     1       2.042   4.629  21.166  0.00  0.00    +0.000 A 
ATOM     13  C   UNL     1       1.603   3.361  21.523  0.00  0.00    +0.000 A 
ATOM     14  C   UNL     1       1.558   2.358  20.561  0.00  0.00    +0.000 A 
ATOM     15  C   UNL     1       1.964   2.623  19.249  0.00  0.00    +0.000 A 
ATOM     16  C   UNL     1       2.402   3.900  18.854  0.00  0.00    +0.000 A 
ENDBRANCH   9  16
ENDBRANCH   8   9
ENDBRANCH   2   8
ENDBRANCH   1   6
BRANCH   1  17
ATOM     17  C   UNL     1       7.934   8.102  18.071  0.00  0.00    +0.000 C 
ATOM     18  O   UNL     1       7.421   8.793  17.188  0.00  0.00    +0.000 OA
ATOM     19  N   UNL     1       8.769   8.630  19.021  0.00  0.00    +0.000 N 
ATOM     20  H   UNL     1       9.221   7.949  19.618  0.00  0.00    +0.000 HD
BRANCH  19  21
ATOM     21  C   UNL     1       9.214   9.977  19.208  0.00  0.00    +0.000 A 
ATOM     22  C   UNL     1       9.544  10.593  17.989  0.00  0.00    +0.000 A 
ATOM     23  C   UNL     1      10.196  11.810  17.943  0.00  0.00    +0.000 A 
ATOM     24  C   UNL     1      10.493  12.449  19.132  0.00  0.00    +0.000 A 
ATOM     25  C   UNL     1      11.274  13.689  19.067  0.00  0.00    +0.000 A 
ATOM     26  O   UNL     1      12.233  13.807  18.319  0.00  0.00    +0.000 OA
ATOM     27  N   UNL     1      10.790  14.659  19.903  0.00  0.00    +0.000 N 
ATOM     28  C   UNL     1      10.257  14.338  21.130  0.00  0.00    +0.000 A 
ATOM     29  C   UNL     1       9.961  13.060  21.439  0.00  0.00    +0.000 A 
ATOM     30  C   UNL     1       9.960  12.027  20.357  0.00  0.00    +0.000 A 
ATOM     31  C   UNL     1       9.366  10.729  20.404  0.00  0.00    +0.000 A 
ATOM     32  H   UNL     1      10.731  15.596  19.523  0.00  0.00    +0.000 HD
ENDBRANCH  19  21
ENDBRANCH   1  17
TORSDOF 6
ENDMDL
MODEL 2
REMARK VINA RESULT:      -9.4      1.269      2.175
REMARK  Name = 
REMARK  7 active torsions:
REMARK  status: ('A' for Active; 'I' for Inactive)
REMARK    1  A    between atoms: C_1  and  C_2
REMARK    2  A    between atoms: C_7  and  C_8
REMARK    3  A    between atoms: C_8  and  O_9
REMARK    4  A    between atoms: O_9  and  C_10
REMARK    5  A    between atoms: C_14  and  C_15
REMARK    6  A    between atoms: C_15  and  C_16
REMARK    7  A    between atoms: N_18  and  C_19
REMARK                            x       y       z     vdW  Elec       q    Type
REMARK                         _______ _______ _______ _____ _____    ______ ____
ROOT
ATOM      1  C   UNL     1       7.985   7.066  18.346  0.00  0.00    +0.000 C 
ENDROOT
BRANCH   1   6
ATOM      2  C   UNL     1       4.473   5.721  17.408  0.00  0.00    +0.000 A 
ATOM      3  C   UNL     1       4.810   4.537  16.753  0.00  0.00    +0.000 A 
ATOM      4  C   UNL     1       6.148   4.183  16.594  0.00  0.00    +0.000 A 
ATOM      5  C   UNL     1       7.189   5.029  17.056  0.00  0.00    +0.000 A 
ATOM      6  C   UNL     1       6.869   6.269  17.655  0.00  0.00    +0.000 A 
ATOM      7  C   UNL     1       5.503   6.580  17.847  0.00  0.00    +0.000 A 
BRANCH   2   8
ATOM      8  O   UNL     1       3.114   5.894  17.552  0.00  0.00    +0.000 OA
BRANCH   8   9
ATOM      9  C   UNL     1       2.586   6.192  18.847  0.00  0.00    +0.000 C 
BRANCH   9  16
ATOM     10  C   UNL     1       1.148   3.865  17.484  0.00  0.00    +0.000 C 
ATOM     11  C   UNL     1       1.481   3.839  18.945  0.00  0.00    +0.000 A 
ATOM     12  C   UNL     1       1.172   2.674  19.679  0.00  0.00    +0.000 A 
ATOM     13  C   UNL     1       1.489   2.569  21.027  0.00  0.00    +0.000 A 
ATOM     14  C   UNL     1       2.119   3.633  21.664  0.00  0.00    +0.000 A 
ATOM     15  C   UNL     1       2.417   4.801  20.955  0.00  0.00    +0.000 A 
ATOM     16  C   UNL     1       2.119   4.932  19.588  0.00  0.00    +0.000 A 
ENDBRANCH   9  16
ENDBRANCH   8   9
ENDBRANCH   2   8
ENDBRANCH   1   6
BRANCH   1  17
ATOM     17  C   UNL     1       8.180   8.604  18.233  0.00  0.00    +0.000 C 
ATOM     18  O   UNL     1       7.632   9.213  17.312  0.00  0.00    +0.000 OA
ATOM     19  N   UNL     1       9.094   9.198  19.064  0.00  0.00    +0.000 N 
ATOM     20  H   UNL     1       9.562   8.570  19.703  0.00  0.00    +0.000 HD
BRANCH  19  21
ATOM     21  C   UNL     1       9.595  10.539  19.070  0.00  0.00    +0.000 A 
ATOM     22  C   UNL     1       9.447  11.147  20.328  0.00  0.00    +0.000 A 
ATOM     23  C   UNL     1       9.659  12.500  20.510  0.00  0.00    +0.000 A 
ATOM     24  C   UNL     1      10.067  13.259  19.429  0.00  0.00    +0.000 A 
ATOM     25  C   UNL     1      10.190  14.709  19.618  0.00  0.00    +0.000 A 
ATOM     26  O   UNL     1       9.359  15.350  20.244  0.00  0.00    +0.000 OA
ATOM     27  N   UNL     1      11.323  15.218  19.043  0.00  0.00    +0.000 N 
ATOM     28  C   UNL     1      11.807  14.715  17.858  0.00  0.00    +0.000 A 
ATOM     29  C   UNL     1      11.339  13.552  17.361  0.00  0.00    +0.000 A 
ATOM     30  C   UNL     1      10.490  12.676  18.228  0.00  0.00    +0.000 A 
ATOM     31  C   UNL     1      10.184  11.297  18.022  0.00  0.00    +0.000 A 
ATOM     32  H   UNL     1      11.847  15.889  19.592  0.00  0.00    +0.000 HD
ENDBRANCH  19  21
ENDBRANCH   1  17
TORSDOF 6
ENDMDL
MODEL 3
REMARK VINA RESULT:      -9.3      1.221      1.876
REMARK  Name = 
REMARK  7 active torsions:
REMARK  status: ('A' for Active; 'I' for Inactive)
REMARK    1  A    between atoms: C_1  and  C_2
REMARK    2  A    between atoms: C_7  and  C_8
REMARK    3  A    between atoms: C_8  and  O_9
REMARK    4  A    between atoms: O_9  and  C_10
REMARK    5  A    between atoms: C_14  and  C_15
REMARK    6  A    between atoms: C_15  and  C_16
REMARK    7  A    between atoms: N_18  and  C_19
REMARK                            x       y       z     vdW  Elec       q    Type
REMARK                         _______ _______ _______ _____ _____    ______ ____
ROOT
ATOM      1  C   UNL     1       7.851   6.978  18.469  0.00  0.00    +0.000 C 
ENDROOT
BRANCH   1   6
ATOM      2  C   UNL     1       4.692   5.374  16.898  0.00  0.00    +0.000 A 
ATOM      3  C   UNL     1       5.248   4.267  16.259  0.00  0.00    +0.000 A 
ATOM      4  C   UNL     1       6.623   4.048  16.311  0.00  0.00    +0.000 A 
ATOM      5  C   UNL     1       7.484   4.957  16.977  0.00  0.00    +0.000 A 
ATOM      6  C   UNL     1       6.948   6.124  17.567  0.00  0.00    +0.000 A 
ATOM      7  C   UNL     1       5.545   6.296  17.540  0.00  0.00    +0.000 A 
BRANCH   2   8
ATOM      8  O   UNL     1       3.317   5.413  16.820  0.00  0.00    +0.000 OA
BRANCH   8   9
ATOM      9  C   UNL     1       2.569   5.827  17.965  0.00  0.00    +0.000 C 
BRANCH   9  16
ATOM     10  C   UNL     1       1.794   6.050  20.913  0.00  0.00    +0.000 C 
ATOM     11  C   UNL     1       1.703   4.752  20.170  0.00  0.00    +0.000 A 
ATOM     12  C   UNL     1       1.184   3.630  20.850  0.00  0.00    +0.000 A 
ATOM     13  C   UNL     1       1.036   2.407  20.209  0.00  0.00    +0.000 A 
ATOM     14  C   UNL     1       1.411   2.286  18.875  0.00  0.00    +0.000 A 
ATOM     15  C   UNL     1       1.943   3.384  18.192  0.00  0.00    +0.000 A 
ATOM     16  C   UNL     1       2.094   4.638  18.810  0.00  0.00    +0.000 A 
ENDBRANCH   9  16
ENDBRANCH   8   9
ENDBRANCH   2   8
ENDBRANCH   1   6
BRANCH   1  17
ATOM     17  C   UNL     1       8.205   8.470  18.217  0.00  0.00    +0.000 C 
ATOM     18  O   UNL     1       7.923   8.980  17.130  0.00  0.00    +0.000 OA
ATOM     19  N   UNL     1       8.971   9.117  19.153  0.00  0.00    +0.000 N 
ATOM     20  H   UNL     1       9.233   8.555  19.952  0.00  0.00    +0.000 HD
BRANCH  19  21
ATOM     21  C   UNL     1       9.578  10.412  19.108  0.00  0.00    +0.000 A 
ATOM     22  C   UNL     1       9.815  10.923  20.395  0.00  0.00    +0.000 A 
ATOM     23  C   UNL     1      10.192  12.237  20.596  0.00  0.00    +0.000 A 
ATOM     24  C   UNL     1      10.376  13.051  19.494  0.00  0.00    +0.000 A 
ATOM     25  C   UNL     1      10.678  14.467  19.731  0.00  0.00    +0.000 A 
ATOM     26  O   UNL     1      10.098  15.113  20.591  0.00  0.00    +0.000 OA
ATOM     27  N   UNL     1      11.667  14.937  18.909  0.00  0.00    +0.000 N 
ATOM     28  C   UNL     1      11.781  14.499  17.611  0.00  0.00    +0.000 A 
ATOM     29  C   UNL     1      11.095  13.419  17.186  0.00  0.00    +0.000 A 
ATOM     30  C   UNL     1      10.420  12.539  18.191  0.00  0.00    +0.000 A 
ATOM     31  C   UNL     1       9.945  11.208  17.990  0.00  0.00    +0.000 A 
ATOM     32  H   UNL     1      12.374  15.521  19.341  0.00  0.00    +0.000 HD
ENDBRANCH  19  21
ENDBRANCH   1  17
TORSDOF 6
ENDMDL
MODEL 4
REMARK VINA RESULT:      -8.9      6.341      9.932
REMARK  Name = 
REMARK  7 active torsions:
REMARK  status: ('A' for Active; 'I' for Inactive)
REMARK    1  A    between atoms: C_1  and  C_2
REMARK    2  A    between atoms: C_7  and  C_8
REMARK    3  A    between atoms: C_8  and  O_9
REMARK    4  A    between atoms: O_9  and  C_10
REMARK    5  A    between atoms: C_14  and  C_15
REMARK    6  A    between atoms: C_15  and  C_16
REMARK    7  A    between atoms: N_18  and  C_19
REMARK                            x       y       z     vdW  Elec       q    Type
REMARK                         _______ _______ _______ _____ _____    ______ ____
ROOT
ATOM      1  C   UNL     1       2.179   8.929  17.877  0.00  0.00    +0.000 C 
ENDROOT
BRANCH   1   6
ATOM      2  C   UNL     1       3.168   5.307  18.841  0.00  0.00    +0.000 A 
ATOM      3  C   UNL     1       2.593   5.205  20.108  0.00  0.00    +0.000 A 
ATOM      4  C   UNL     1       1.915   6.290  20.657  0.00  0.00    +0.000 A 
ATOM      5  C   UNL     1       1.826   7.525  19.964  0.00  0.00    +0.000 A 
ATOM      6  C   UNL     1       2.467   7.672  18.712  0.00  0.00    +0.000 A 
ATOM      7  C   UNL     1       3.107   6.540  18.158  0.00  0.00    +0.000 A 
BRANCH   2   8
ATOM      8  O   UNL     1       3.738   4.131  18.406  0.00  0.00    +0.000 OA
BRANCH   8   9
ATOM      9  C   UNL     1       5.162   4.013  18.395  0.00  0.00    +0.000 C 
BRANCH   9  16
ATOM     10  C   UNL     1       7.463   5.996  18.056  0.00  0.00    +0.000 C 
ATOM     11  C   UNL     1       6.857   5.284  16.885  0.00  0.00    +0.000 A 
ATOM     12  C   UNL     1       7.419   5.500  15.608  0.00  0.00    +0.000 A 
ATOM     13  C   UNL     1       6.931   4.842  14.487  0.00  0.00    +0.000 A 
ATOM     14  C   UNL     1       5.866   3.957  14.625  0.00  0.00    +0.000 A 
ATOM     15  C   UNL     1       5.286   3.745  15.881  0.00  0.00    +0.000 A 
ATOM     16  C   UNL     1       5.766   4.388  17.035  0.00  0.00    +0.000 A 
ENDBRANCH   9  16
ENDBRANCH   8   9
ENDBRANCH   2   8
ENDBRANCH   1   6
BRANCH   1  17
ATOM     17  C   UNL     1       1.056   9.959  18.179  0.00  0.00    +0.000 C 
ATOM     18  O   UNL     1       1.321  10.958  18.852  0.00  0.00    +0.000 OA
ATOM     19  N   UNL     1      -0.228   9.632  17.827  0.00  0.00    +0.000 N 
ATOM     20  H   UNL     1      -0.331   8.732  17.378  0.00  0.00    +0.000 HD
BRANCH  19  21
ATOM     21  C   UNL     1      -1.461  10.296  18.125  0.00  0.00    +0.000 A 
ATOM     22  C   UNL     1      -2.512   9.836  17.314  0.00  0.00    +0.000 A 
ATOM     23  C   UNL     1      -3.734  10.480  17.275  0.00  0.00    +0.000 A 
ATOM     24  C   UNL     1      -3.930  11.581  18.088  0.00  0.00    +0.000 A 
ATOM     25  C   UNL     1      -5.196  12.310  17.959  0.00  0.00    +0.000 A 
ATOM     26  O   UNL     1      -5.695  12.546  16.869  0.00  0.00    +0.000 OA
ATOM     27  N   UNL     1      -5.729  12.655  19.172  0.00  0.00    +0.000 N 
ATOM     28  C   UNL     1      -4.923  13.016  20.226  0.00  0.00    +0.000 A 
ATOM     29  C   UNL     1      -3.593  12.799  20.181  0.00  0.00    +0.000 A 
ATOM     30  C   UNL     1      -3.031  11.924  19.105  0.00  0.00    +0.000 A 
ATOM     31  C   UNL     1      -1.741  11.312  19.078  0.00  0.00    +0.000 A 
ATOM     32  H   UNL     1      -6.726  12.510  19.286  0.00  0.00    +0.000 HD
ENDBRANCH  19  21
ENDBRANCH   1  17
TORSDOF 6
ENDMDL
MODEL 5
REMARK VINA RESULT:      -8.8      1.307      2.453
REMARK  Name = 
REMARK  7 active torsions:
REMARK  status: ('A' for Active; 'I' for Inactive)
REMARK    1  A    between atoms: C_1  and  C_2
REMARK    2  A    between atoms: C_7  and  C_8
REMARK    3  A    between atoms: C_8  and  O_9
REMARK    4  A    between atoms: O_9  and  C_10
REMARK    5  A    between atoms: C_14  and  C_15
REMARK    6  A    between atoms: C_15  and  C_16
REMARK    7  A    between atoms: N_18  and  C_19
REMARK                            x       y       z     vdW  Elec       q    Type
REMARK                         _______ _______ _______ _____ _____    ______ ____
ROOT
ATOM      1  C   UNL     1       7.896   6.786  18.300  0.00  0.00    +0.000 C 
ENDROOT
BRANCH   1   6
ATOM      2  C   UNL     1       4.810   4.940  16.854  0.00  0.00    +0.000 A 
ATOM      3  C   UNL     1       5.423   4.061  15.962  0.00  0.00    +0.000 A 
ATOM      4  C   UNL     1       6.807   4.073  15.808  0.00  0.00    +0.000 A 
ATOM      5  C   UNL     1       7.614   4.997  16.520  0.00  0.00    +0.000 A 
ATOM      6  C   UNL     1       7.005   5.947  17.372  0.00  0.00    +0.000 A 
ATOM      7  C   UNL     1       5.603   5.879  17.546  0.00  0.00    +0.000 A 
BRANCH   2   8
ATOM      8  O   UNL     1       3.448   4.756  16.949  0.00  0.00    +0.000 OA
BRANCH   8   9
ATOM      9  C   UNL     1       2.871   4.503  18.232  0.00  0.00    +0.000 C 
BRANCH   9  16
ATOM     10  C   UNL     1       2.100   4.668  21.185  0.00  0.00    +0.000 C 
ATOM     11  C   UNL     1       2.048   5.868  20.288  0.00  0.00    +0.000 A 
ATOM     12  C   UNL     1       1.693   7.110  20.856  0.00  0.00    +0.000 A 
ATOM     13  C   UNL     1       1.664   8.268  20.090  0.00  0.00    +0.000 A 
ATOM     14  C   UNL     1       1.986   8.200  18.739  0.00  0.00    +0.000 A 
ATOM     15  C   UNL     1       2.323   6.974  18.157  0.00  0.00    +0.000 A 
ATOM     16  C   UNL     1       2.373   5.787  18.909  0.00  0.00    +0.000 A 
ENDBRANCH   9  16
ENDBRANCH   8   9
ENDBRANCH   2   8
ENDBRANCH   1   6
BRANCH   1  17
ATOM     17  C   UNL     1       8.102   8.322  18.185  0.00  0.00    +0.000 C 
ATOM     18  O   UNL     1       7.697   8.909  17.179  0.00  0.00    +0.000 OA
ATOM     19  N   UNL     1       8.877   8.940  19.132  0.00  0.00    +0.000 N 
ATOM     20  H   UNL     1       9.245   8.328  19.848  0.00  0.00    +0.000 HD
BRANCH  19  21
ATOM     21  C   UNL     1       9.367  10.283  19.185  0.00  0.00    +0.000 A 
ATOM     22  C   UNL     1       9.480  10.747  20.506  0.00  0.00    +0.000 A 
ATOM     23  C   UNL     1       9.725  12.077  20.791  0.00  0.00    +0.000 A 
ATOM     24  C   UNL     1       9.901  12.959  19.741  0.00  0.00    +0.000 A 
ATOM     25  C   UNL     1      10.059  14.382  20.060  0.00  0.00    +0.000 A 
ATOM     26  O   UNL     1       9.373  14.931  20.910  0.00  0.00    +0.000 OA
ATOM     27  N   UNL     1      11.049  14.977  19.326  0.00  0.00    +0.000 N 
ATOM     28  C   UNL     1      11.279  14.618  18.019  0.00  0.00    +0.000 A 
ATOM     29  C   UNL     1      10.720  13.505  17.502  0.00  0.00    +0.000 A 
ATOM     30  C   UNL     1      10.068  12.520  18.421  0.00  0.00    +0.000 A 
ATOM     31  C   UNL     1       9.728  11.165  18.130  0.00  0.00    +0.000 A 
ATOM     32  H   UNL     1      11.674  15.597  19.828  0.00  0.00    +0.000 HD
ENDBRANCH  19  21
ENDBRANCH   1  17
TORSDOF 6
ENDMDL
MODEL 6
REMARK VINA RESULT:      -8.8      1.641      2.336
REMARK  Name = 
REMARK  7 active torsions:
REMARK  status: ('A' for Active; 'I' for Inactive)
REMARK    1  A    between atoms: C_1  and  C_2
REMARK    2  A    between atoms: C_7  and  C_8
REMARK    3  A    between atoms: C_8  and  O_9
REMARK    4  A    between atoms: O_9  and  C_10
REMARK    5  A    between atoms: C_14  and  C_15
REMARK    6  A    between atoms: C_15  and  C_16
REMARK    7  A    between atoms: N_18  and  C_19
REMARK                            x       y       z     vdW  Elec       q    Type
REMARK                         _______ _______ _______ _____ _____    ______ ____
ROOT
ATOM      1  C   UNL     1       8.532   7.715  18.538  0.00  0.00    +0.000 C 
ENDROOT
BRANCH   1   6
ATOM      2  C   UNL     1       6.028   4.758  18.438  0.00  0.00    +0.000 A 
ATOM      3  C   UNL     1       5.502   4.901  17.155  0.00  0.00    +0.000 A 
ATOM      4  C   UNL     1       5.927   5.946  16.337  0.00  0.00    +0.000 A 
ATOM      5  C   UNL     1       6.868   6.901  16.801  0.00  0.00    +0.000 A 
ATOM      6  C   UNL     1       7.357   6.817  18.125  0.00  0.00    +0.000 A 
ATOM      7  C   UNL     1       6.945   5.719  18.915  0.00  0.00    +0.000 A 
BRANCH   2   8
ATOM      8  O   UNL     1       5.565   3.638  19.093  0.00  0.00    +0.000 OA
BRANCH   8   9
ATOM      9  C   UNL     1       4.409   2.967  18.587  0.00  0.00    +0.000 C 
BRANCH   9  16
ATOM     10  C   UNL     1       1.756   4.232  17.751  0.00  0.00    +0.000 C 
ATOM     11  C   UNL     1       1.960   3.661  19.121  0.00  0.00    +0.000 A 
ATOM     12  C   UNL     1       0.866   3.660  20.013  0.00  0.00    +0.000 A 
ATOM     13  C   UNL     1       0.975   3.110  21.283  0.00  0.00    +0.000 A 
ATOM     14  C   UNL     1       2.186   2.556  21.685  0.00  0.00    +0.000 A 
ATOM     15  C   UNL     1       3.285   2.565  20.820  0.00  0.00    +0.000 A 
ATOM     16  C   UNL     1       3.202   3.103  19.523  0.00  0.00    +0.000 A 
ENDBRANCH   9  16
ENDBRANCH   8   9
ENDBRANCH   2   8
ENDBRANCH   1   6
BRANCH   1  17
ATOM     17  C   UNL     1       8.508   9.269  18.536  0.00  0.00    +0.000 C 
ATOM     18  O   UNL     1       7.884   9.859  17.651  0.00  0.00    +0.000 OA
ATOM     19  N   UNL     1       9.322   9.926  19.421  0.00  0.00    +0.000 N 
ATOM     20  H   UNL     1       9.870   9.326  20.023  0.00  0.00    +0.000 HD
BRANCH  19  21
ATOM     21  C   UNL     1       9.626  11.320  19.530  0.00  0.00    +0.000 A 
ATOM     22  C   UNL     1       9.927  11.689  20.852  0.00  0.00    +0.000 A 
ATOM     23  C   UNL     1      10.039  13.013  21.229  0.00  0.00    +0.000 A 
ATOM     24  C   UNL     1       9.889  13.993  20.265  0.00  0.00    +0.000 A 
ATOM     25  C   UNL     1       9.911  15.393  20.702  0.00  0.00    +0.000 A 
ATOM     26  O   UNL     1       9.334  15.761  21.714  0.00  0.00    +0.000 OA
ATOM     27  N   UNL     1      10.652  16.190  19.871  0.00  0.00    +0.000 N 
ATOM     28  C   UNL     1      10.674  15.975  18.513  0.00  0.00    +0.000 A 
ATOM     29  C   UNL     1      10.181  14.835  17.988  0.00  0.00    +0.000 A 
ATOM     30  C   UNL     1       9.858  13.691  18.897  0.00  0.00    +0.000 A 
ATOM     31  C   UNL     1       9.655  12.328  18.528  0.00  0.00    +0.000 A 
ATOM     32  H   UNL     1      11.272  16.856  20.317  0.00  0.00    +0.000 HD
ENDBRANCH  19  21
ENDBRANCH   1  17
TORSDOF 6
ENDMDL
MODEL 7
REMARK VINA RESULT:      -8.8      5.839      8.494
REMARK  Name = 
REMARK  7 active torsions:
REMARK  status: ('A' for Active; 'I' for Inactive)
REMARK    1  A    between atoms: C_1  and  C_2
REMARK    2  A    between atoms: C_7  and  C_8
REMARK    3  A    between atoms: C_8  and  O_9
REMARK    4  A    between atoms: O_9  and  C_10
REMARK    5  A    between atoms: C_14  and  C_15
REMARK    6  A    between atoms: C_15  and  C_16
REMARK    7  A    between atoms: N_18  and  C_19
REMARK                            x       y       z     vdW  Elec       q    Type
REMARK                         _______ _______ _______ _____ _____    ______ ____
ROOT
ATOM      1  C   UNL     1       3.451   7.973  18.044  0.00  0.00    +0.000 C 
ENDROOT
BRANCH   1   6
ATOM      2  C   UNL     1       5.146   4.538  18.635  0.00  0.00    +0.000 A 
ATOM      3  C   UNL     1       5.651   4.270  17.363  0.00  0.00    +0.000 A 
ATOM      4  C   UNL     1       5.433   5.169  16.321  0.00  0.00    +0.000 A 
ATOM      5  C   UNL     1       4.668   6.347  16.519  0.00  0.00    +0.000 A 
ATOM      6  C   UNL     1       4.084   6.598  17.782  0.00  0.00    +0.000 A 
ATOM      7  C   UNL     1       4.362   5.694  18.833  0.00  0.00    +0.000 A 
BRANCH   2   8
ATOM      8  O   UNL     1       5.507   3.595  19.572  0.00  0.00    +0.000 OA
BRANCH   8   9
ATOM      9  C   UNL     1       4.740   2.393  19.678  0.00  0.00    +0.000 C 
BRANCH   9  16
ATOM     10  C   UNL     1       2.729   2.075  17.399  0.00  0.00    +0.000 C 
ATOM     11  C   UNL     1       2.302   2.492  18.774  0.00  0.00    +0.000 A 
ATOM     12  C   UNL     1       0.925   2.675  19.018  0.00  0.00    +0.000 A 
ATOM     13  C   UNL     1       0.459   3.023  20.280  0.00  0.00    +0.000 A 
ATOM     14  C   UNL     1       1.368   3.198  21.318  0.00  0.00    +0.000 A 
ATOM     15  C   UNL     1       2.738   3.037  21.088  0.00  0.00    +0.000 A 
ATOM     16  C   UNL     1       3.238   2.673  19.826  0.00  0.00    +0.000 A 
ENDBRANCH   9  16
ENDBRANCH   8   9
ENDBRANCH   2   8
ENDBRANCH   1   6
BRANCH   1  17
ATOM     17  C   UNL     1       1.928   8.278  17.983  0.00  0.00    +0.000 C 
ATOM     18  O   UNL     1       1.166   7.436  17.502  0.00  0.00    +0.000 OA
ATOM     19  N   UNL     1       1.512   9.542  18.311  0.00  0.00    +0.000 N 
ATOM     20  H   UNL     1       2.250  10.177  18.585  0.00  0.00    +0.000 HD
BRANCH  19  21
ATOM     21  C   UNL     1       0.220  10.145  18.188  0.00  0.00    +0.000 A 
ATOM     22  C   UNL     1       0.126  11.336  18.928  0.00  0.00    +0.000 A 
ATOM     23  C   UNL     1      -1.085  11.971  19.131  0.00  0.00    +0.000 A 
ATOM     24  C   UNL     1      -2.221  11.434  18.554  0.00  0.00    +0.000 A 
ATOM     25  C   UNL     1      -3.508  12.065  18.864  0.00  0.00    +0.000 A 
ATOM     26  O   UNL     1      -3.790  12.432  19.995  0.00  0.00    +0.000 OA
ATOM     27  N   UNL     1      -4.306  12.199  17.759  0.00  0.00    +0.000 N 
ATOM     28  C   UNL     1      -4.317  11.243  16.770  0.00  0.00    +0.000 A 
ATOM     29  C   UNL     1      -3.371  10.284  16.729  0.00  0.00    +0.000 A 
ATOM     30  C   UNL     1      -2.158  10.416  17.595  0.00  0.00    +0.000 A 
ATOM     31  C   UNL     1      -0.922   9.713  17.461  0.00  0.00    +0.000 A 
ATOM     32  H   UNL     1      -4.784  13.086  17.651  0.00  0.00    +0.000 HD
ENDBRANCH  19  21
ENDBRANCH   1  17
TORSDOF 6
ENDMDL
MODEL 8
REMARK VINA RESULT:      -8.8      1.558      2.250
REMARK  Name = 
REMARK  7 active torsions:
REMARK  status: ('A' for Active; 'I' for Inactive)
REMARK    1  A    between atoms: C_1  and  C_2
REMARK    2  A    between atoms: C_7  and  C_8
REMARK    3  A    between atoms: C_8  and  O_9
REMARK    4  A    between atoms: O_9  and  C_10
REMARK    5  A    between atoms: C_14  and  C_15
REMARK    6  A    between atoms: C_15  and  C_16
REMARK    7  A    between atoms: N_18  and  C_19
REMARK                            x       y       z     vdW  Elec       q    Type
REMARK                         _______ _______ _______ _____ _____    ______ ____
ROOT
ATOM      1  C   UNL     1       8.134   7.548  18.114  0.00  0.00    +0.000 C 
ENDROOT
BRANCH   1   6
ATOM      2  C   UNL     1       4.587   6.348  17.110  0.00  0.00    +0.000 A 
ATOM      3  C   UNL     1       4.895   5.418  16.118  0.00  0.00    +0.000 A 
ATOM      4  C   UNL     1       6.221   5.192  15.758  0.00  0.00    +0.000 A 
ATOM      5  C   UNL     1       7.277   5.924  16.360  0.00  0.00    +0.000 A 
ATOM      6  C   UNL     1       6.981   6.925  17.313  0.00  0.00    +0.000 A 
ATOM      7  C   UNL     1       5.630   7.098  17.694  0.00  0.00    +0.000 A 
BRANCH   2   8
ATOM      8  O   UNL     1       3.243   6.404  17.405  0.00  0.00    +0.000 OA
BRANCH   8   9
ATOM      9  C   UNL     1       2.800   5.990  18.700  0.00  0.00    +0.000 C 
BRANCH   9  16
ATOM     10  C   UNL     1       4.933   3.950  19.491  0.00  0.00    +0.000 C 
ATOM     11  C   UNL     1       3.528   3.537  19.171  0.00  0.00    +0.000 A 
ATOM     12  C   UNL     1       3.186   2.175  19.307  0.00  0.00    +0.000 A 
ATOM     13  C   UNL     1       1.892   1.732  19.064  0.00  0.00    +0.000 A 
ATOM     14  C   UNL     1       0.919   2.647  18.676  0.00  0.00    +0.000 A 
ATOM     15  C   UNL     1       1.246   3.998  18.521  0.00  0.00    +0.000 A 
ATOM     16  C   UNL     1       2.544   4.478  18.771  0.00  0.00    +0.000 A 
ENDBRANCH   9  16
ENDBRANCH   8   9
ENDBRANCH   2   8
ENDBRANCH   1   6
BRANCH   1  17
ATOM     17  C   UNL     1       8.361   9.074  18.305  0.00  0.00    +0.000 C 
ATOM     18  O   UNL     1       7.836   9.863  17.516  0.00  0.00    +0.000 OA
ATOM     19  N   UNL     1       9.275   9.475  19.244  0.00  0.00    +0.000 N 
ATOM     20  H   UNL     1       9.723   8.724  19.752  0.00  0.00    +0.000 HD
BRANCH  19  21
ATOM     21  C   UNL     1       9.801  10.778  19.516  0.00  0.00    +0.000 A 
ATOM     22  C   UNL     1       9.466  11.218  20.807  0.00  0.00    +0.000 A 
ATOM     23  C   UNL     1       9.681  12.523  21.208  0.00  0.00    +0.000 A 
ATOM     24  C   UNL     1      10.277  13.400  20.321  0.00  0.00    +0.000 A 
ATOM     25  C   UNL     1      10.404  14.804  20.728  0.00  0.00    +0.000 A 
ATOM     26  O   UNL     1       9.499  15.394  21.298  0.00  0.00    +0.000 OA
ATOM     27  N   UNL     1      11.628  15.332  20.415  0.00  0.00    +0.000 N 
ATOM     28  C   UNL     1      12.285  14.970  19.262  0.00  0.00    +0.000 A 
ATOM     29  C   UNL     1      11.874  13.908  18.541  0.00  0.00    +0.000 A 
ATOM     30  C   UNL     1      10.874  12.964  19.132  0.00  0.00    +0.000 A 
ATOM     31  C   UNL     1      10.571  11.641  18.690  0.00  0.00    +0.000 A 
ATOM     32  H   UNL     1      12.072  15.898  21.128  0.00  0.00    +0.000 HD
ENDBRANCH  19  21
ENDBRANCH   1  17
TORSDOF 6
ENDMDL
MODEL 9
REMARK VINA RESULT:      -8.7      1.599      2.445
REMARK  Name = 
REMARK  7 active torsions:
REMARK  status: ('A' for Active; 'I' for Inactive)
REMARK    1  A    between atoms: C_1  and  C_2
REMARK    2  A    between atoms: C_7  and  C_8
REMARK    3  A    between atoms: C_8  and  O_9
REMARK    4  A    between atoms: O_9  and  C_10
REMARK    5  A    between atoms: C_14  and  C_15
REMARK    6  A    between atoms: C_15  and  C_16
REMARK    7  A    between atoms: N_18  and  C_19
REMARK                            x       y       z     vdW  Elec       q    Type
REMARK                         _______ _______ _______ _____ _____    ______ ____
ROOT
ATOM      1  C   UNL     1       8.119   7.551  18.233  0.00  0.00    +0.000 C 
ENDROOT
BRANCH   1   6
ATOM      2  C   UNL     1       4.712   5.870  17.465  0.00  0.00    +0.000 A 
ATOM      3  C   UNL     1       5.131   4.705  16.823  0.00  0.00    +0.000 A 
ATOM      4  C   UNL     1       6.489   4.470  16.619  0.00  0.00    +0.000 A 
ATOM      5  C   UNL     1       7.464   5.418  17.020  0.00  0.00    +0.000 A 
ATOM      6  C   UNL     1       7.055   6.638  17.604  0.00  0.00    +0.000 A 
ATOM      7  C   UNL     1       5.675   6.829  17.844  0.00  0.00    +0.000 A 
BRANCH   2   8
ATOM      8  O   UNL     1       3.349   5.923  17.659  0.00  0.00    +0.000 OA
BRANCH   8   9
ATOM      9  C   UNL     1       2.574   4.738  17.462  0.00  0.00    +0.000 C 
BRANCH   9  16
ATOM     10  C   UNL     1       2.871   1.747  18.012  0.00  0.00    +0.000 C 
ATOM     11  C   UNL     1       2.348   2.691  19.051  0.00  0.00    +0.000 A 
ATOM     12  C   UNL     1       2.051   2.177  20.331  0.00  0.00    +0.000 A 
ATOM     13  C   UNL     1       1.600   3.004  21.351  0.00  0.00    +0.000 A 
ATOM     14  C   UNL     1       1.434   4.363  21.104  0.00  0.00    +0.000 A 
ATOM     15  C   UNL     1       1.708   4.886  19.836  0.00  0.00    +0.000 A 
ATOM     16  C   UNL     1       2.177   4.076  18.787  0.00  0.00    +0.000 A 
ENDBRANCH   9  16
ENDBRANCH   8   9
ENDBRANCH   2   8
ENDBRANCH   1   6
BRANCH   1  17
ATOM     17  C   UNL     1       8.227   9.083  17.999  0.00  0.00    +0.000 C 
ATOM     18  O   UNL     1       7.475   9.622  17.183  0.00  0.00    +0.000 OA
ATOM     19  N   UNL     1       9.270   9.751  18.586  0.00  0.00    +0.000 N 
ATOM     20  H   UNL     1       9.885   9.176  19.145  0.00  0.00    +0.000 HD
BRANCH  19  21
ATOM     21  C   UNL     1       9.708  11.103  18.415  0.00  0.00    +0.000 A 
ATOM     22  C   UNL     1       8.892  12.010  19.112  0.00  0.00    +0.000 A 
ATOM     23  C   UNL     1       8.994  13.374  18.920  0.00  0.00    +0.000 A 
ATOM     24  C   UNL     1       9.954  13.852  18.047  0.00  0.00    +0.000 A 
ATOM     25  C   UNL     1       9.980  15.294  17.780  0.00  0.00    +0.000 A 
ATOM     26  O   UNL     1       8.954  15.936  17.608  0.00  0.00    +0.000 OA
ATOM     27  N   UNL     1      11.250  15.803  17.771  0.00  0.00    +0.000 N 
ATOM     28  C   UNL     1      12.305  15.073  17.276  0.00  0.00    +0.000 A 
ATOM     29  C   UNL     1      12.172  13.755  17.024  0.00  0.00    +0.000 A 
ATOM     30  C   UNL     1      10.966  13.031  17.533  0.00  0.00    +0.000 A 
ATOM     31  C   UNL     1      10.800  11.619  17.666  0.00  0.00    +0.000 A 
ATOM     32  H   UNL     1      11.389  16.682  18.256  0.00  0.00    +0.000 HD
ENDBRANCH  19  21
ENDBRANCH   1  17
TORSDOF 6
ENDMDL
