MODEL 1
REMARK VINA RESULT:      -8.5      0.000      0.000
REMARK  Name = 
REMARK  6 active torsions:
REMARK  status: ('A' for Active; 'I' for Inactive)
REMARK    1  A    between atoms: C_1  and  C_2
REMARK    2  A    between atoms: C_2  and  C_3
REMARK    3  A    between atoms: C_3  and  C_4
REMARK    4  A    between atoms: C_6  and  C_7
REMARK    5  A    between atoms: N_9  and  C_10
REMARK    6  A    between atoms: N_21  and  C_22
REMARK                            x       y       z     vdW  Elec       q    Type
REMARK                         _______ _______ _______ _____ _____    ______ ____
ROOT
ATOM      1  C   UNL     1       4.405   6.651  17.199  0.00  0.00    +0.000 A 
ATOM      2  N   UNL     1       4.046   7.923  17.273  0.00  0.00    +0.000 NA
ATOM      3  C   UNL     1       2.807   7.883  17.869  0.00  0.00    +0.000 A 
ATOM      4  N   UNL     1       2.384   6.640  18.145  0.00  0.00    +0.000 NA
ATOM      5  N   UNL     1       3.453   5.870  17.841  0.00  0.00    +0.000 N 
ENDROOT
BRANCH   5   6
ATOM      6  C   UNL     1       3.424   4.485  18.130  0.00  0.00    +0.000 A 
ATOM      7  C   UNL     1       2.500   3.663  17.464  0.00  0.00    +0.000 A 
ATOM      8  C   UNL     1       2.489   2.285  17.697  0.00  0.00    +0.000 A 
ATOM      9  C   UNL     1       3.362   1.726  18.629  0.00  0.00    +0.000 A 
ATOM     10  C   UNL     1       4.239   2.547  19.336  0.00  0.00    +0.000 A 
ATOM     11  C   UNL     1       4.270   3.919  19.081  0.00  0.00    +0.000 A 
ATOM     12  F   UNL     1       5.080   4.677  19.832  0.00  0.00    +0.000 F 
ENDBRANCH   5   6
BRANCH   3  13
ATOM     13  C   UNL     1       1.981   9.076  18.167  0.00  0.00    +0.000 C 
ATOM     14  O   UNL     1       2.104  10.108  17.510  0.00  0.00    +0.000 OA
ATOM     15  N   UNL     1       1.108   8.940  19.246  0.00  0.00    +0.000 N 
ATOM     16  H   UNL     1       1.216   8.098  19.817  0.00  0.00    +0.000 HD
BRANCH  15  17
ATOM     17  C   UNL     1       0.212   9.939  19.704  0.00  0.00    +0.000 A 
ATOM     18  C   UNL     1      -0.379  10.882  18.851  0.00  0.00    +0.000 A 
ATOM     19  C   UNL     1      -1.237  11.892  19.332  0.00  0.00    +0.000 A 
ATOM     20  C   UNL     1      -1.545  11.986  20.687  0.00  0.00    +0.000 A 
ATOM     21  C   UNL     1      -0.986  11.050  21.537  0.00  0.00    +0.000 A 
ATOM     22  C   UNL     1      -0.135  10.046  21.046  0.00  0.00    +0.000 A 
ATOM     23  C   UNL     1       0.308   9.264  22.207  0.00  0.00    +0.000 C 
ATOM     24  O   UNL     1       1.078   8.325  22.174  0.00  0.00    +0.000 OA
ATOM     25  N   UNL     1      -0.300   9.805  23.323  0.00  0.00    +0.000 N 
ATOM     26  C   UNL     1      -1.129  10.942  23.016  0.00  0.00    +0.000 C 
ATOM     27  H   UNL     1      -0.105   9.459  24.252  0.00  0.00    +0.000 HD
ENDBRANCH  15  17
ENDBRANCH   3  13
BRANCH   1  28
ATOM     28  C   UNL     1       5.543   6.111  16.394  0.00  0.00    +0.000 C 
BRANCH  28  30
ATOM     29  C   UNL     1       7.554   7.244  17.498  0.00  0.00    +0.000 C 
ATOM     30  C   UNL     1       6.825   5.935  17.215  0.00  0.00    +0.000 C 
ENDBRANCH  28  30
ENDBRANCH   1  28
TORSDOF 5
ENDMDL
MODEL 2
REMARK VINA RESULT:      -8.4      1.766      3.907
REMARK  Name = 
REMARK  6 active torsions:
REMARK  status: ('A' for Active; 'I' for Inactive)
REMARK    1  A    between atoms: C_1  and  C_2
REMARK    2  A    between atoms: C_2  and  C_3
REMARK    3  A    between atoms: C_3  and  C_4
REMARK    4  A    between atoms: C_6  and  C_7
REMARK    5  A    between atoms: N_9  and  C_10
REMARK    6  A    between atoms: N_21  and  C_22
REMARK                            x       y       z     vdW  Elec       q    Type
REMARK                         _______ _______ _______ _____ _____    ______ ____
ROOT
ATOM      1  C   UNL     1       3.574   3.702  19.579  0.00  0.00    +0.000 A 
ATOM      2  N   UNL     1       2.534   4.164  20.255  0.00  0.00    +0.000 NA
ATOM      3  C   UNL     1       2.527   5.509  19.972  0.00  0.00    +0.000 A 
ATOM      4  N   UNL     1       3.530   5.894  19.167  0.00  0.00    +0.000 NA
ATOM      5  N   UNL     1       4.114   4.727  18.814  0.00  0.00    +0.000 N 
ENDROOT
BRANCH   5   6
ATOM      6  C   UNL     1       5.151   4.726  17.851  0.00  0.00    +0.000 A 
ATOM      7  C   UNL     1       4.855   4.377  16.523  0.00  0.00    +0.000 A 
ATOM      8  C   UNL     1       5.855   4.418  15.547  0.00  0.00    +0.000 A 
ATOM      9  C   UNL     1       7.161   4.758  15.896  0.00  0.00    +0.000 A 
ATOM     10  C   UNL     1       7.470   5.047  17.224  0.00  0.00    +0.000 A 
ATOM     11  C   UNL     1       6.466   5.034  18.194  0.00  0.00    +0.000 A 
ATOM     12  F   UNL     1       6.821   5.251  19.467  0.00  0.00    +0.000 F 
ENDBRANCH   5   6
BRANCH   3  13
ATOM     13  C   UNL     1       1.538   6.474  20.507  0.00  0.00    +0.000 C 
ATOM     14  O   UNL     1       0.444   6.092  20.918  0.00  0.00    +0.000 OA
ATOM     15  N   UNL     1       1.931   7.811  20.469  0.00  0.00    +0.000 N 
ATOM     16  H   UNL     1       2.789   8.021  19.953  0.00  0.00    +0.000 HD
BRANCH  15  17
ATOM     17  C   UNL     1       1.159   8.904  20.940  0.00  0.00    +0.000 A 
ATOM     18  C   UNL     1       0.843   9.087  22.294  0.00  0.00    +0.000 A 
ATOM     19  C   UNL     1       0.041  10.159  22.736  0.00  0.00    +0.000 A 
ATOM     20  C   UNL     1      -0.463  11.096  21.837  0.00  0.00    +0.000 A 
ATOM     21  C   UNL     1      -0.141  10.941  20.502  0.00  0.00    +0.000 A 
ATOM     22  C   UNL     1       0.661   9.870  20.073  0.00  0.00    +0.000 A 
ATOM     23  C   UNL     1       0.765   9.980  18.613  0.00  0.00    +0.000 C 
ATOM     24  O   UNL     1       1.361   9.210  17.887  0.00  0.00    +0.000 OA
ATOM     25  N   UNL     1       0.054  11.102  18.234  0.00  0.00    +0.000 N 
ATOM     26  C   UNL     1      -0.567  11.776  19.345  0.00  0.00    +0.000 C 
ATOM     27  H   UNL     1      -0.058  11.354  17.261  0.00  0.00    +0.000 HD
ENDBRANCH  15  17
ENDBRANCH   3  13
BRANCH   1  28
ATOM     28  C   UNL     1       4.196   2.353  19.750  0.00  0.00    +0.000 C 
BRANCH  28  30
ATOM     29  C   UNL     1       2.579   1.807  17.844  0.00  0.00    +0.000 C 
ATOM     30  C   UNL     1       3.799   1.367  18.646  0.00  0.00    +0.000 C 
ENDBRANCH  28  30
ENDBRANCH   1  28
TORSDOF 5
ENDMDL
MODEL 3
REMARK VINA RESULT:      -8.4      1.728      3.110
REMARK  Name = 
REMARK  6 active torsions:
REMARK  status: ('A' for Active; 'I' for Inactive)
REMARK    1  A    between atoms: C_1  and  C_2
REMARK    2  A    between atoms: C_2  and  C_3
REMARK    3  A    between atoms: C_3  and  C_4
REMARK    4  A    between atoms: C_6  and  C_7
REMARK    5  A    between atoms: N_9  and  C_10
REMARK    6  A    between atoms: N_21  and  C_22
REMARK                            x       y       z     vdW  Elec       q    Type
REMARK                         _______ _______ _______ _____ _____    ______ ____
ROOT
ATOM      1  C   UNL     1       3.090   5.832  19.149  0.00  0.00    +0.000 A 
ATOM      2  N   UNL     1       2.129   6.729  19.310  0.00  0.00    +0.000 NA
ATOM      3  C   UNL     1       2.483   7.748  18.457  0.00  0.00    +0.000 A 
ATOM      4  N   UNL     1       3.628   7.521  17.796  0.00  0.00    +0.000 NA
ATOM      5  N   UNL     1       3.942   6.251  18.136  0.00  0.00    +0.000 N 
ENDROOT
BRANCH   5   6
ATOM      6  C   UNL     1       5.042   5.611  17.517  0.00  0.00    +0.000 A 
ATOM      7  C   UNL     1       4.901   5.110  16.213  0.00  0.00    +0.000 A 
ATOM      8  C   UNL     1       5.990   4.520  15.566  0.00  0.00    +0.000 A 
ATOM      9  C   UNL     1       7.208   4.380  16.230  0.00  0.00    +0.000 A 
ATOM     10  C   UNL     1       7.333   4.822  17.547  0.00  0.00    +0.000 A 
ATOM     11  C   UNL     1       6.255   5.438  18.182  0.00  0.00    +0.000 A 
ATOM     12  F   UNL     1       6.399   5.785  19.468  0.00  0.00    +0.000 F 
ENDBRANCH   5   6
BRANCH   3  13
ATOM     13  C   UNL     1       1.710   8.999  18.281  0.00  0.00    +0.000 C 
ATOM     14  O   UNL     1       2.115   9.890  17.536  0.00  0.00    +0.000 OA
ATOM     15  N   UNL     1       0.542   9.088  19.037  0.00  0.00    +0.000 N 
ATOM     16  H   UNL     1       0.398   8.362  19.742  0.00  0.00    +0.000 HD
BRANCH  15  17
ATOM     17  C   UNL     1      -0.362  10.181  19.019  0.00  0.00    +0.000 A 
ATOM     18  C   UNL     1      -1.211  10.451  17.935  0.00  0.00    +0.000 A 
ATOM     19  C   UNL     1      -2.074  11.566  17.921  0.00  0.00    +0.000 A 
ATOM     20  C   UNL     1      -2.129  12.444  19.000  0.00  0.00    +0.000 A 
ATOM     21  C   UNL     1      -1.314  12.178  20.085  0.00  0.00    +0.000 A 
ATOM     22  C   UNL     1      -0.459  11.063  20.089  0.00  0.00    +0.000 A 
ATOM     23  C   UNL     1       0.284  11.107  21.354  0.00  0.00    +0.000 C 
ATOM     24  O   UNL     1       1.138  10.315  21.700  0.00  0.00    +0.000 OA
ATOM     25  N   UNL     1      -0.160  12.212  22.054  0.00  0.00    +0.000 N 
ATOM     26  C   UNL     1      -1.160  12.964  21.341  0.00  0.00    +0.000 C 
ATOM     27  H   UNL     1       0.246  12.475  22.941  0.00  0.00    +0.000 HD
ENDBRANCH  15  17
ENDBRANCH   3  13
BRANCH   1  28
ATOM     28  C   UNL     1       3.340   4.653  20.035  0.00  0.00    +0.000 C 
BRANCH  28  30
ATOM     29  C   UNL     1       1.113   3.502  20.546  0.00  0.00    +0.000 C 
ATOM     30  C   UNL     1       2.219   4.421  21.053  0.00  0.00    +0.000 C 
ENDBRANCH  28  30
ENDBRANCH   1  28
TORSDOF 5
ENDMDL
MODEL 4
REMARK VINA RESULT:      -8.3      1.812      3.263
REMARK  Name = 
REMARK  6 active torsions:
REMARK  status: ('A' for Active; 'I' for Inactive)
REMARK    1  A    between atoms: C_1  and  C_2
REMARK    2  A    between atoms: C_2  and  C_3
REMARK    3  A    between atoms: C_3  and  C_4
REMARK    4  A    between atoms: C_6  and  C_7
REMARK    5  A    between atoms: N_9  and  C_10
REMARK    6  A    between atoms: N_21  and  C_22
REMARK                            x       y       z     vdW  Elec       q    Type
REMARK                         _______ _______ _______ _____ _____    ______ ____
ROOT
ATOM      1  C   UNL     1       3.044   6.050  19.145  0.00  0.00    +0.000 A 
ATOM      2  N   UNL     1       2.100   6.948  19.375  0.00  0.00    +0.000 NA
ATOM      3  C   UNL     1       2.350   7.936  18.452  0.00  0.00    +0.000 A 
ATOM      4  N   UNL     1       3.419   7.690  17.679  0.00  0.00    +0.000 NA
ATOM      5  N   UNL     1       3.778   6.435  18.030  0.00  0.00    +0.000 N 
ENDROOT
BRANCH   5   6
ATOM      6  C   UNL     1       4.810   5.776  17.320  0.00  0.00    +0.000 A 
ATOM      7  C   UNL     1       6.065   6.395  17.199  0.00  0.00    +0.000 A 
ATOM      8  C   UNL     1       7.112   5.739  16.546  0.00  0.00    +0.000 A 
ATOM      9  C   UNL     1       6.902   4.488  15.968  0.00  0.00    +0.000 A 
ATOM     10  C   UNL     1       5.641   3.897  16.034  0.00  0.00    +0.000 A 
ATOM     11  C   UNL     1       4.604   4.539  16.712  0.00  0.00    +0.000 A 
ATOM     12  F   UNL     1       3.393   3.966  16.692  0.00  0.00    +0.000 F 
ENDBRANCH   5   6
BRANCH   3  13
ATOM     13  C   UNL     1       1.553   9.176  18.314  0.00  0.00    +0.000 C 
ATOM     14  O   UNL     1       1.936  10.094  17.591  0.00  0.00    +0.000 OA
ATOM     15  N   UNL     1       0.387   9.222  19.079  0.00  0.00    +0.000 N 
ATOM     16  H   UNL     1       0.262   8.475  19.765  0.00  0.00    +0.000 HD
BRANCH  15  17
ATOM     17  C   UNL     1      -0.538  10.297  19.095  0.00  0.00    +0.000 A 
ATOM     18  C   UNL     1      -1.447  10.538  18.055  0.00  0.00    +0.000 A 
ATOM     19  C   UNL     1      -2.331  11.635  18.073  0.00  0.00    +0.000 A 
ATOM     20  C   UNL     1      -2.346  12.526  19.144  0.00  0.00    +0.000 A 
ATOM     21  C   UNL     1      -1.471  12.290  20.187  0.00  0.00    +0.000 A 
ATOM     22  C   UNL     1      -0.595  11.191  20.159  0.00  0.00    +0.000 A 
ATOM     23  C   UNL     1       0.212  11.265  21.383  0.00  0.00    +0.000 C 
ATOM     24  O   UNL     1       1.098  10.494  21.692  0.00  0.00    +0.000 OA
ATOM     25  N   UNL     1      -0.217  12.370  22.092  0.00  0.00    +0.000 N 
ATOM     26  C   UNL     1      -1.267  13.094  21.424  0.00  0.00    +0.000 C 
ATOM     27  H   UNL     1       0.230  12.652  22.953  0.00  0.00    +0.000 HD
ENDBRANCH  15  17
ENDBRANCH   3  13
BRANCH   1  28
ATOM     28  C   UNL     1       3.399   4.906  20.041  0.00  0.00    +0.000 C 
BRANCH  28  30
ATOM     29  C   UNL     1       1.218   3.633  20.452  0.00  0.00    +0.000 C 
ATOM     30  C   UNL     1       2.285   4.556  21.032  0.00  0.00    +0.000 C 
ENDBRANCH  28  30
ENDBRANCH   1  28
TORSDOF 5
ENDMDL
MODEL 5
REMARK VINA RESULT:      -8.3      1.905      4.079
REMARK  Name = 
REMARK  6 active torsions:
REMARK  status: ('A' for Active; 'I' for Inactive)
REMARK    1  A    between atoms: C_1  and  C_2
REMARK    2  A    between atoms: C_2  and  C_3
REMARK    3  A    between atoms: C_3  and  C_4
REMARK    4  A    between atoms: C_6  and  C_7
REMARK    5  A    between atoms: N_9  and  C_10
REMARK    6  A    between atoms: N_21  and  C_22
REMARK                            x       y       z     vdW  Elec       q    Type
REMARK                         _______ _______ _______ _____ _____    ______ ____
ROOT
ATOM      1  C   UNL     1       3.452   3.699  19.729  0.00  0.00    +0.000 A 
ATOM      2  N   UNL     1       2.353   4.173  20.294  0.00  0.00    +0.000 NA
ATOM      3  C   UNL     1       2.446   5.532  20.109  0.00  0.00    +0.000 A 
ATOM      4  N   UNL     1       3.564   5.912  19.471  0.00  0.00    +0.000 NA
ATOM      5  N   UNL     1       4.136   4.741  19.115  0.00  0.00    +0.000 N 
ENDROOT
BRANCH   5   6
ATOM      6  C   UNL     1       5.292   4.744  18.298  0.00  0.00    +0.000 A 
ATOM      7  C   UNL     1       6.518   5.157  18.843  0.00  0.00    +0.000 A 
ATOM      8  C   UNL     1       7.680   5.119  18.068  0.00  0.00    +0.000 A 
ATOM      9  C   UNL     1       7.619   4.720  16.734  0.00  0.00    +0.000 A 
ATOM     10  C   UNL     1       6.393   4.367  16.172  0.00  0.00    +0.000 A 
ATOM     11  C   UNL     1       5.237   4.376  16.955  0.00  0.00    +0.000 A 
ATOM     12  F   UNL     1       4.072   4.095  16.356  0.00  0.00    +0.000 F 
ENDBRANCH   5   6
BRANCH   3  13
ATOM     13  C   UNL     1       1.440   6.513  20.577  0.00  0.00    +0.000 C 
ATOM     14  O   UNL     1       0.301   6.155  20.873  0.00  0.00    +0.000 OA
ATOM     15  N   UNL     1       1.874   7.838  20.617  0.00  0.00    +0.000 N 
ATOM     16  H   UNL     1       2.782   8.034  20.189  0.00  0.00    +0.000 HD
BRANCH  15  17
ATOM     17  C   UNL     1       1.093   8.942  21.045  0.00  0.00    +0.000 A 
ATOM     18  C   UNL     1       0.705   9.129  22.380  0.00  0.00    +0.000 A 
ATOM     19  C   UNL     1      -0.105  10.212  22.778  0.00  0.00    +0.000 A 
ATOM     20  C   UNL     1      -0.543  11.157  21.854  0.00  0.00    +0.000 A 
ATOM     21  C   UNL     1      -0.150  10.998  20.539  0.00  0.00    +0.000 A 
ATOM     22  C   UNL     1       0.658   9.916  20.153  0.00  0.00    +0.000 A 
ATOM     23  C   UNL     1       0.845  10.026  18.702  0.00  0.00    +0.000 C 
ATOM     24  O   UNL     1       1.470   9.247  18.009  0.00  0.00    +0.000 OA
ATOM     25  N   UNL     1       0.173  11.158  18.285  0.00  0.00    +0.000 N 
ATOM     26  C   UNL     1      -0.498  11.841  19.361  0.00  0.00    +0.000 C 
ATOM     27  H   UNL     1       0.120  11.413  17.309  0.00  0.00    +0.000 HD
ENDBRANCH  15  17
ENDBRANCH   3  13
BRANCH   1  28
ATOM     28  C   UNL     1       3.984   2.309  19.882  0.00  0.00    +0.000 C 
BRANCH  28  30
ATOM     29  C   UNL     1       2.448   1.818  17.896  0.00  0.00    +0.000 C 
ATOM     30  C   UNL     1       3.707   1.425  18.662  0.00  0.00    +0.000 C 
ENDBRANCH  28  30
ENDBRANCH   1  28
TORSDOF 5
ENDMDL
MODEL 6
REMARK VINA RESULT:      -8.2      0.946      1.373
REMARK  Name = 
REMARK  6 active torsions:
REMARK  status: ('A' for Active; 'I' for Inactive)
REMARK    1  A    between atoms: C_1  and  C_2
REMARK    2  A    between atoms: C_2  and  C_3
REMARK    3  A    between atoms: C_3  and  C_4
REMARK    4  A    between atoms: C_6  and  C_7
REMARK    5  A    between atoms: N_9  and  C_10
REMARK    6  A    between atoms: N_21  and  C_22
REMARK                            x       y       z     vdW  Elec       q    Type
REMARK                         _______ _______ _______ _____ _____    ______ ____
ROOT
ATOM      1  C   UNL     1       4.445   6.506  17.127  0.00  0.00    +0.000 A 
ATOM      2  N   UNL     1       4.086   7.780  17.142  0.00  0.00    +0.000 NA
ATOM      3  C   UNL     1       2.908   7.784  17.851  0.00  0.00    +0.000 A 
ATOM      4  N   UNL     1       2.521   6.564  18.255  0.00  0.00    +0.000 NA
ATOM      5  N   UNL     1       3.562   5.774  17.910  0.00  0.00    +0.000 N 
ENDROOT
BRANCH   5   6
ATOM      6  C   UNL     1       3.570   4.413  18.300  0.00  0.00    +0.000 A 
ATOM      7  C   UNL     1       4.428   3.999  19.331  0.00  0.00    +0.000 A 
ATOM      8  C   UNL     1       4.414   2.670  19.766  0.00  0.00    +0.000 A 
ATOM      9  C   UNL     1       3.583   1.739  19.144  0.00  0.00    +0.000 A 
ATOM     10  C   UNL     1       2.774   2.135  18.080  0.00  0.00    +0.000 A 
ATOM     11  C   UNL     1       2.766   3.467  17.666  0.00  0.00    +0.000 A 
ATOM     12  F   UNL     1       2.025   3.788  16.597  0.00  0.00    +0.000 F 
ENDBRANCH   5   6
BRANCH   3  13
ATOM     13  C   UNL     1       2.105   8.995  18.138  0.00  0.00    +0.000 C 
ATOM     14  O   UNL     1       2.334  10.054  17.557  0.00  0.00    +0.000 OA
ATOM     15  N   UNL     1       1.124   8.840  19.116  0.00  0.00    +0.000 N 
ATOM     16  H   UNL     1       1.139   7.964  19.644  0.00  0.00    +0.000 HD
BRANCH  15  17
ATOM     17  C   UNL     1       0.227   9.853  19.543  0.00  0.00    +0.000 A 
ATOM     18  C   UNL     1      -0.419  10.724  18.653  0.00  0.00    +0.000 A 
ATOM     19  C   UNL     1      -1.276  11.750  19.100  0.00  0.00    +0.000 A 
ATOM     20  C   UNL     1      -1.528  11.932  20.458  0.00  0.00    +0.000 A 
ATOM     21  C   UNL     1      -0.915  11.067  21.345  0.00  0.00    +0.000 A 
ATOM     22  C   UNL     1      -0.065  10.047  20.888  0.00  0.00    +0.000 A 
ATOM     23  C   UNL     1       0.442   9.356  22.080  0.00  0.00    +0.000 C 
ATOM     24  O   UNL     1       1.229   8.430  22.078  0.00  0.00    +0.000 OA
ATOM     25  N   UNL     1      -0.129   9.963  23.181  0.00  0.00    +0.000 N 
ATOM     26  C   UNL     1      -0.994  11.060  22.833  0.00  0.00    +0.000 C 
ATOM     27  H   UNL     1       0.112   9.685  24.122  0.00  0.00    +0.000 HD
ENDBRANCH  15  17
ENDBRANCH   3  13
BRANCH   1  28
ATOM     28  C   UNL     1       5.508   5.908  16.261  0.00  0.00    +0.000 C 
BRANCH  28  30
ATOM     29  C   UNL     1       7.466   4.597  17.256  0.00  0.00    +0.000 C 
ATOM     30  C   UNL     1       6.900   5.966  16.897  0.00  0.00    +0.000 C 
ENDBRANCH  28  30
ENDBRANCH   1  28
TORSDOF 5
ENDMDL
MODEL 7
REMARK VINA RESULT:      -8.1      1.098      1.357
REMARK  Name = 
REMARK  6 active torsions:
REMARK  status: ('A' for Active; 'I' for Inactive)
REMARK    1  A    between atoms: C_1  and  C_2
REMARK    2  A    between atoms: C_2  and  C_3
REMARK    3  A    between atoms: C_3  and  C_4
REMARK    4  A    between atoms: C_6  and  C_7
REMARK    5  A    between atoms: N_9  and  C_10
REMARK    6  A    between atoms: N_21  and  C_22
REMARK                            x       y       z     vdW  Elec       q    Type
REMARK                         _______ _______ _______ _____ _____    ______ ____
ROOT
ATOM      1  C   UNL     1       4.162   6.630  17.622  0.00  0.00    +0.000 A 
ATOM      2  N   UNL     1       3.886   7.925  17.608  0.00  0.00    +0.000 NA
ATOM      3  C   UNL     1       2.561   7.984  17.969  0.00  0.00    +0.000 A 
ATOM      4  N   UNL     1       2.009   6.780  18.185  0.00  0.00    +0.000 NA
ATOM      5  N   UNL     1       3.058   5.933  18.093  0.00  0.00    +0.000 N 
ENDROOT
BRANCH   5   6
ATOM      6  C   UNL     1       2.880   4.562  18.395  0.00  0.00    +0.000 A 
ATOM      7  C   UNL     1       2.651   3.652  17.351  0.00  0.00    +0.000 A 
ATOM      8  C   UNL     1       2.524   2.287  17.623  0.00  0.00    +0.000 A 
ATOM      9  C   UNL     1       2.574   1.828  18.938  0.00  0.00    +0.000 A 
ATOM     10  C   UNL     1       2.741   2.736  19.983  0.00  0.00    +0.000 A 
ATOM     11  C   UNL     1       2.898   4.095  19.709  0.00  0.00    +0.000 A 
ATOM     12  F   UNL     1       2.987   4.937  20.746  0.00  0.00    +0.000 F 
ENDBRANCH   5   6
BRANCH   3  13
ATOM     13  C   UNL     1       1.780   9.237  18.092  0.00  0.00    +0.000 C 
ATOM     14  O   UNL     1       2.183  10.283  17.586  0.00  0.00    +0.000 OA
ATOM     15  N   UNL     1       0.607   9.135  18.838  0.00  0.00    +0.000 N 
ATOM     16  H   UNL     1       0.463   8.260  19.348  0.00  0.00    +0.000 HD
BRANCH  15  17
ATOM     17  C   UNL     1      -0.305  10.196  19.076  0.00  0.00    +0.000 A 
ATOM     18  C   UNL     1      -1.038  10.815  18.054  0.00  0.00    +0.000 A 
ATOM     19  C   UNL     1      -1.910  11.893  18.306  0.00  0.00    +0.000 A 
ATOM     20  C   UNL     1      -2.091  12.382  19.598  0.00  0.00    +0.000 A 
ATOM     21  C   UNL     1      -1.391  11.767  20.619  0.00  0.00    +0.000 A 
ATOM     22  C   UNL     1      -0.527  10.692  20.356  0.00  0.00    +0.000 A 
ATOM     23  C   UNL     1       0.078  10.314  21.639  0.00  0.00    +0.000 C 
ATOM     24  O   UNL     1       0.902   9.435  21.800  0.00  0.00    +0.000 OA
ATOM     25  N   UNL     1      -0.453  11.146  22.605  0.00  0.00    +0.000 N 
ATOM     26  C   UNL     1      -1.382  12.107  22.069  0.00  0.00    +0.000 C 
ATOM     27  H   UNL     1      -0.146  11.104  23.567  0.00  0.00    +0.000 HD
ENDBRANCH  15  17
ENDBRANCH   3  13
BRANCH   1  28
ATOM     28  C   UNL     1       5.386   5.993  17.046  0.00  0.00    +0.000 C 
BRANCH  28  30
ATOM     29  C   UNL     1       5.599   4.332  15.110  0.00  0.00    +0.000 C 
ATOM     30  C   UNL     1       5.286   5.764  15.534  0.00  0.00    +0.000 C 
ENDBRANCH  28  30
ENDBRANCH   1  28
TORSDOF 5
ENDMDL
MODEL 8
REMARK VINA RESULT:      -8.1      1.745      2.639
REMARK  Name = 
REMARK  6 active torsions:
REMARK  status: ('A' for Active; 'I' for Inactive)
REMARK    1  A    between atoms: C_1  and  C_2
REMARK    2  A    between atoms: C_2  and  C_3
REMARK    3  A    between atoms: C_3  and  C_4
REMARK    4  A    between atoms: C_6  and  C_7
REMARK    5  A    between atoms: N_9  and  C_10
REMARK    6  A    between atoms: N_21  and  C_22
REMARK                            x       y       z     vdW  Elec       q    Type
REMARK                         _______ _______ _______ _____ _____    ______ ____
ROOT
ATOM      1  C   UNL     1       3.855   6.836  17.465  0.00  0.00    +0.000 A 
ATOM      2  N   UNL     1       3.427   8.046  17.790  0.00  0.00    +0.000 NA
ATOM      3  C   UNL     1       2.350   7.806  18.610  0.00  0.00    +0.000 A 
ATOM      4  N   UNL     1       2.087   6.502  18.785  0.00  0.00    +0.000 NA
ATOM      5  N   UNL     1       3.121   5.888  18.166  0.00  0.00    +0.000 N 
ENDROOT
BRANCH   5   6
ATOM      6  C   UNL     1       3.256   4.482  18.253  0.00  0.00    +0.000 A 
ATOM      7  C   UNL     1       2.320   3.661  17.604  0.00  0.00    +0.000 A 
ATOM      8  C   UNL     1       2.465   2.271  17.636  0.00  0.00    +0.000 A 
ATOM      9  C   UNL     1       3.510   1.691  18.354  0.00  0.00    +0.000 A 
ATOM     10  C   UNL     1       4.405   2.503  19.050  0.00  0.00    +0.000 A 
ATOM     11  C   UNL     1       4.278   3.891  18.993  0.00  0.00    +0.000 A 
ATOM     12  F   UNL     1       5.119   4.628  19.731  0.00  0.00    +0.000 F 
ENDBRANCH   5   6
BRANCH   3  13
ATOM     13  C   UNL     1       1.521   8.863  19.235  0.00  0.00    +0.000 C 
ATOM     14  O   UNL     1       1.365   8.902  20.454  0.00  0.00    +0.000 OA
ATOM     15  N   UNL     1       0.924   9.755  18.345  0.00  0.00    +0.000 N 
ATOM     16  H   UNL     1       0.989   9.522  17.352  0.00  0.00    +0.000 HD
BRANCH  15  17
ATOM     17  C   UNL     1       0.104  10.853  18.714  0.00  0.00    +0.000 A 
ATOM     18  C   UNL     1      -1.237  10.708  19.095  0.00  0.00    +0.000 A 
ATOM     19  C   UNL     1      -2.046  11.816  19.420  0.00  0.00    +0.000 A 
ATOM     20  C   UNL     1      -1.534  13.111  19.389  0.00  0.00    +0.000 A 
ATOM     21  C   UNL     1      -0.207  13.267  19.036  0.00  0.00    +0.000 A 
ATOM     22  C   UNL     1       0.590  12.155  18.716  0.00  0.00    +0.000 A 
ATOM     23  C   UNL     1       1.912  12.677  18.350  0.00  0.00    +0.000 C 
ATOM     24  O   UNL     1       2.860  12.008  17.988  0.00  0.00    +0.000 OA
ATOM     25  N   UNL     1       1.864  14.051  18.482  0.00  0.00    +0.000 N 
ATOM     26  C   UNL     1       0.571  14.530  18.900  0.00  0.00    +0.000 C 
ATOM     27  H   UNL     1       2.651  14.635  18.236  0.00  0.00    +0.000 HD
ENDBRANCH  15  17
ENDBRANCH   3  13
BRANCH   1  28
ATOM     28  C   UNL     1       4.833   6.519  16.378  0.00  0.00    +0.000 C 
BRANCH  28  30
ATOM     29  C   UNL     1       6.855   4.959  16.537  0.00  0.00    +0.000 C 
ATOM     30  C   UNL     1       6.259   6.316  16.899  0.00  0.00    +0.000 C 
ENDBRANCH  28  30
ENDBRANCH   1  28
TORSDOF 5
ENDMDL
MODEL 9
REMARK VINA RESULT:      -8.0      1.714      2.593
REMARK  Name = 
REMARK  6 active torsions:
REMARK  status: ('A' for Active; 'I' for Inactive)
REMARK    1  A    between atoms: C_1  and  C_2
REMARK    2  A    between atoms: C_2  and  C_3
REMARK    3  A    between atoms: C_3  and  C_4
REMARK    4  A    between atoms: C_6  and  C_7
REMARK    5  A    between atoms: N_9  and  C_10
REMARK    6  A    between atoms: N_21  and  C_22
REMARK                            x       y       z     vdW  Elec       q    Type
REMARK                         _______ _______ _______ _____ _____    ______ ____
ROOT
ATOM      1  C   UNL     1       4.051   6.759  17.231  0.00  0.00    +0.000 A 
ATOM      2  N   UNL     1       3.802   8.055  17.337  0.00  0.00    +0.000 NA
ATOM      3  C   UNL     1       2.652   8.110  18.089  0.00  0.00    +0.000 A 
ATOM      4  N   UNL     1       2.176   6.902  18.431  0.00  0.00    +0.000 NA
ATOM      5  N   UNL     1       3.135   6.053  17.999  0.00  0.00    +0.000 N 
ENDROOT
BRANCH   5   6
ATOM      6  C   UNL     1       3.040   4.674  18.304  0.00  0.00    +0.000 A 
ATOM      7  C   UNL     1       4.087   4.050  19.000  0.00  0.00    +0.000 A 
ATOM      8  C   UNL     1       3.989   2.702  19.355  0.00  0.00    +0.000 A 
ATOM      9  C   UNL     1       2.874   1.957  18.976  0.00  0.00    +0.000 A 
ATOM     10  C   UNL     1       1.859   2.559  18.233  0.00  0.00    +0.000 A 
ATOM     11  C   UNL     1       1.943   3.912  17.904  0.00  0.00    +0.000 A 
ATOM     12  F   UNL     1       0.980   4.431  17.131  0.00  0.00    +0.000 F 
ENDBRANCH   5   6
BRANCH   3  13
ATOM     13  C   UNL     1       1.964   9.362  18.479  0.00  0.00    +0.000 C 
ATOM     14  O   UNL     1       2.274  10.436  17.967  0.00  0.00    +0.000 OA
ATOM     15  N   UNL     1       0.993   9.223  19.470  0.00  0.00    +0.000 N 
ATOM     16  H   UNL     1       0.943   8.314  19.936  0.00  0.00    +0.000 HD
BRANCH  15  17
ATOM     17  C   UNL     1       0.198  10.276  19.989  0.00  0.00    +0.000 A 
ATOM     18  C   UNL     1       0.471  10.908  21.211  0.00  0.00    +0.000 A 
ATOM     19  C   UNL     1      -0.355  11.927  21.728  0.00  0.00    +0.000 A 
ATOM     20  C   UNL     1      -1.480  12.361  21.030  0.00  0.00    +0.000 A 
ATOM     21  C   UNL     1      -1.749  11.762  19.814  0.00  0.00    +0.000 A 
ATOM     22  C   UNL     1      -0.918  10.749  19.307  0.00  0.00    +0.000 A 
ATOM     23  C   UNL     1      -1.512  10.312  18.038  0.00  0.00    +0.000 C 
ATOM     24  O   UNL     1      -1.082   9.428  17.325  0.00  0.00    +0.000 OA
ATOM     25  N   UNL     1      -2.641  11.078  17.827  0.00  0.00    +0.000 N 
ATOM     26  C   UNL     1      -2.890  12.017  18.890  0.00  0.00    +0.000 C 
ATOM     27  H   UNL     1      -3.246  10.922  17.033  0.00  0.00    +0.000 HD
ENDBRANCH  15  17
ENDBRANCH   3  13
BRANCH   1  28
ATOM     28  C   UNL     1       5.031   6.133  16.290  0.00  0.00    +0.000 C 
BRANCH  28  30
ATOM     29  C   UNL     1       7.099   4.818  17.026  0.00  0.00    +0.000 C 
ATOM     30  C   UNL     1       6.474   6.191  16.804  0.00  0.00    +0.000 C 
ENDBRANCH  28  30
ENDBRANCH   1  28
TORSDOF 5
ENDMDL
