MODEL 1
REMARK VINA RESULT:      -9.3      0.000      0.000
REMARK  Name = 
REMARK  4 active torsions:
REMARK  status: ('A' for Active; 'I' for Inactive)
REMARK    1  A    between atoms: C_1  and  C_2
REMARK    2  A    between atoms: C_5  and  S_6
REMARK    3  A    between atoms: S_6  and  N_9
REMARK    4  A    between atoms: C_16  and  C_17
REMARK                            x       y       z     vdW  Elec       q    Type
REMARK                         _______ _______ _______ _____ _____    ______ ____
ROOT
ATOM      1  C   UNL     1       1.117   2.877  19.293  0.00  0.00    +0.000 C 
ATOM      2  C   UNL     1       2.268   3.492  18.551  0.00  0.00    +0.000 A 
ATOM      3  C   UNL     1       2.947   2.705  17.606  0.00  0.00    +0.000 A 
ATOM      4  C   UNL     1       3.990   3.222  16.842  0.00  0.00    +0.000 A 
ATOM      5  C   UNL     1       4.374   4.550  17.026  0.00  0.00    +0.000 A 
ATOM      6  C   UNL     1       3.755   5.346  17.996  0.00  0.00    +0.000 A 
ATOM      7  C   UNL     1       2.693   4.821  18.757  0.00  0.00    +0.000 A 
ENDROOT
BRANCH   7   8
ATOM      8  C   UNL     1       1.990   5.749  19.706  0.00  0.00    +0.000 C 
ATOM      9  O   UNL     1       1.278   5.263  20.576  0.00  0.00    +0.000 OA
ATOM     10  N   UNL     1       2.158   7.090  19.465  0.00  0.00    +0.000 N 
ATOM     11  C   UNL     1       1.496   8.041  20.202  0.00  0.00    +0.000 A 
ATOM     12  N   UNL     1       1.074   9.181  19.705  0.00  0.00    +0.000 NA
ATOM     13  C   UNL     1       0.404   9.801  20.730  0.00  0.00    +0.000 A 
ATOM     14  C   UNL     1      -0.365  10.974  20.716  0.00  0.00    +0.000 A 
ATOM     15  C   UNL     1      -0.907  11.440  21.919  0.00  0.00    +0.000 A 
ATOM     16  C   UNL     1      -0.666  10.764  23.117  0.00  0.00    +0.000 A 
ATOM     17  C   UNL     1       0.073   9.573  23.149  0.00  0.00    +0.000 A 
ATOM     18  C   UNL     1       0.559   9.102  21.923  0.00  0.00    +0.000 A 
ATOM     19  N   UNL     1       1.219   7.956  21.547  0.00  0.00    +0.000 N 
ATOM     20  H   UNL     1       2.458   7.405  18.552  0.00  0.00    +0.000 HD
ATOM     21  H   UNL     1       1.466   7.176  22.142  0.00  0.00    +0.000 HD
ENDBRANCH   7   8
BRANCH   5  22
ATOM     22  S   UNL     1       5.734   5.191  16.077  0.00  0.00    +0.000 S 
ATOM     23  O   UNL     1       6.461   4.058  15.547  0.00  0.00    +0.000 OA
ATOM     24  O   UNL     1       5.208   6.216  15.193  0.00  0.00    +0.000 OA
BRANCH  22  25
ATOM     25  N   UNL     1       6.712   5.949  17.219  0.00  0.00    +0.000 NA
ATOM     26  C   UNL     1       7.549   5.116  18.120  0.00  0.00    +0.000 C 
ATOM     27  C   UNL     1       7.931   5.960  19.347  0.00  0.00    +0.000 C 
ATOM     28  O   UNL     1       8.627   7.157  18.958  0.00  0.00    +0.000 OA
ATOM     29  C   UNL     1       7.809   7.960  18.088  0.00  0.00    +0.000 C 
ATOM     30  C   UNL     1       7.434   7.184  16.818  0.00  0.00    +0.000 C 
ENDBRANCH  22  25
ENDBRANCH   5  22
TORSDOF 3
ENDMDL
MODEL 2
REMARK VINA RESULT:      -8.7      2.250      3.281
REMARK  Name = 
REMARK  4 active torsions:
REMARK  status: ('A' for Active; 'I' for Inactive)
REMARK    1  A    between atoms: C_1  and  C_2
REMARK    2  A    between atoms: C_5  and  S_6
REMARK    3  A    between atoms: S_6  and  N_9
REMARK    4  A    between atoms: C_16  and  C_17
REMARK                            x       y       z     vdW  Elec       q    Type
REMARK                         _______ _______ _______ _____ _____    ______ ____
ROOT
ATOM      1  C   UNL     1       1.359   4.062  18.265  0.00  0.00    +0.000 C 
ATOM      2  C   UNL     1       2.746   4.434  17.826  0.00  0.00    +0.000 A 
ATOM      3  C   UNL     1       3.499   3.481  17.120  0.00  0.00    +0.000 A 
ATOM      4  C   UNL     1       4.772   3.771  16.635  0.00  0.00    +0.000 A 
ATOM      5  C   UNL     1       5.314   5.035  16.865  0.00  0.00    +0.000 A 
ATOM      6  C   UNL     1       4.614   5.990  17.611  0.00  0.00    +0.000 A 
ATOM      7  C   UNL     1       3.323   5.695  18.088  0.00  0.00    +0.000 A 
ENDROOT
BRANCH   7   8
ATOM      8  C   UNL     1       2.570   6.790  18.787  0.00  0.00    +0.000 C 
ATOM      9  O   UNL     1       2.261   6.628  19.961  0.00  0.00    +0.000 OA
ATOM     10  N   UNL     1       2.228   7.870  18.010  0.00  0.00    +0.000 N 
ATOM     11  C   UNL     1       1.460   8.896  18.504  0.00  0.00    +0.000 A 
ATOM     12  N   UNL     1       0.588   9.562  17.783  0.00  0.00    +0.000 NA
ATOM     13  C   UNL     1      -0.016  10.434  18.654  0.00  0.00    +0.000 A 
ATOM     14  C   UNL     1      -1.115  11.281  18.451  0.00  0.00    +0.000 A 
ATOM     15  C   UNL     1      -1.513  12.129  19.491  0.00  0.00    +0.000 A 
ATOM     16  C   UNL     1      -0.813  12.150  20.700  0.00  0.00    +0.000 A 
ATOM     17  C   UNL     1       0.268  11.289  20.934  0.00  0.00    +0.000 A 
ATOM     18  C   UNL     1       0.611  10.415  19.895  0.00  0.00    +0.000 A 
ATOM     19  N   UNL     1       1.519   9.387  19.787  0.00  0.00    +0.000 N 
ATOM     20  H   UNL     1       2.206   7.780  17.003  0.00  0.00    +0.000 HD
ATOM     21  H   UNL     1       2.131   9.042  20.514  0.00  0.00    +0.000 HD
ENDBRANCH   7   8
BRANCH   5  22
ATOM     22  S   UNL     1       6.957   5.385  16.281  0.00  0.00    +0.000 S 
ATOM     23  O   UNL     1       7.156   6.815  16.385  0.00  0.00    +0.000 OA
ATOM     24  O   UNL     1       7.863   4.460  16.938  0.00  0.00    +0.000 OA
BRANCH  22  25
ATOM     25  N   UNL     1       6.907   4.984  14.647  0.00  0.00    +0.000 NA
ATOM     26  C   UNL     1       8.057   5.344  13.779  0.00  0.00    +0.000 C 
ATOM     27  C   UNL     1       7.582   5.342  12.317  0.00  0.00    +0.000 C 
ATOM     28  O   UNL     1       7.040   4.061  11.948  0.00  0.00    +0.000 OA
ATOM     29  C   UNL     1       5.925   3.720  12.792  0.00  0.00    +0.000 C 
ATOM     30  C   UNL     1       6.350   3.659  14.264  0.00  0.00    +0.000 C 
ENDBRANCH  22  25
ENDBRANCH   5  22
TORSDOF 3
ENDMDL
MODEL 3
REMARK VINA RESULT:      -8.5      1.826      2.820
REMARK  Name = 
REMARK  4 active torsions:
REMARK  status: ('A' for Active; 'I' for Inactive)
REMARK    1  A    between atoms: C_1  and  C_2
REMARK    2  A    between atoms: C_5  and  S_6
REMARK    3  A    between atoms: S_6  and  N_9
REMARK    4  A    between atoms: C_16  and  C_17
REMARK                            x       y       z     vdW  Elec       q    Type
REMARK                         _______ _______ _______ _____ _____    ______ ____
ROOT
ATOM      1  C   UNL     1       1.447   3.279  18.599  0.00  0.00    +0.000 C 
ATOM      2  C   UNL     1       2.733   3.894  18.128  0.00  0.00    +0.000 A 
ATOM      3  C   UNL     1       3.492   3.201  17.171  0.00  0.00    +0.000 A 
ATOM      4  C   UNL     1       4.668   3.733  16.648  0.00  0.00    +0.000 A 
ATOM      5  C   UNL     1       5.106   4.980  17.093  0.00  0.00    +0.000 A 
ATOM      6  C   UNL     1       4.403   5.673  18.085  0.00  0.00    +0.000 A 
ATOM      7  C   UNL     1       3.209   5.136  18.600  0.00  0.00    +0.000 A 
ENDROOT
BRANCH   7   8
ATOM      8  C   UNL     1       2.435   5.970  19.581  0.00  0.00    +0.000 C 
ATOM      9  O   UNL     1       1.835   5.401  20.485  0.00  0.00    +0.000 OA
ATOM     10  N   UNL     1       2.412   7.320  19.330  0.00  0.00    +0.000 N 
ATOM     11  C   UNL     1       1.665   8.180  20.097  0.00  0.00    +0.000 A 
ATOM     12  N   UNL     1       1.072   9.251  19.619  0.00  0.00    +0.000 NA
ATOM     13  C   UNL     1       0.376   9.784  20.675  0.00  0.00    +0.000 A 
ATOM     14  C   UNL     1      -0.541  10.845  20.695  0.00  0.00    +0.000 A 
ATOM     15  C   UNL     1      -1.083  11.244  21.923  0.00  0.00    +0.000 A 
ATOM     16  C   UNL     1      -0.698  10.615  23.109  0.00  0.00    +0.000 A 
ATOM     17  C   UNL     1       0.193   9.532  23.107  0.00  0.00    +0.000 A 
ATOM     18  C   UNL     1       0.678   9.121  21.860  0.00  0.00    +0.000 A 
ATOM     19  N   UNL     1       1.466   8.069  21.453  0.00  0.00    +0.000 N 
ATOM     20  H   UNL     1       2.624   7.664  18.403  0.00  0.00    +0.000 HD
ATOM     21  H   UNL     1       1.842   7.334  22.037  0.00  0.00    +0.000 HD
ENDBRANCH   7   8
BRANCH   5  22
ATOM     22  S   UNL     1       6.631   5.634  16.454  0.00  0.00    +0.000 S 
ATOM     23  O   UNL     1       6.505   7.076  16.431  0.00  0.00    +0.000 OA
ATOM     24  O   UNL     1       7.719   4.995  17.172  0.00  0.00    +0.000 OA
BRANCH  22  25
ATOM     25  N   UNL     1       6.676   5.091  14.861  0.00  0.00    +0.000 NA
ATOM     26  C   UNL     1       7.863   5.403  14.024  0.00  0.00    +0.000 C 
ATOM     27  C   UNL     1       7.466   5.261  12.546  0.00  0.00    +0.000 C 
ATOM     28  O   UNL     1       6.972   3.941  12.265  0.00  0.00    +0.000 OA
ATOM     29  C   UNL     1       5.820   3.646  13.077  0.00  0.00    +0.000 C 
ATOM     30  C   UNL     1       6.168   3.725  14.569  0.00  0.00    +0.000 C 
ENDBRANCH  22  25
ENDBRANCH   5  22
TORSDOF 3
ENDMDL
MODEL 4
REMARK VINA RESULT:      -8.1      4.988      8.478
REMARK  Name = 
REMARK  4 active torsions:
REMARK  status: ('A' for Active; 'I' for Inactive)
REMARK    1  A    between atoms: C_1  and  C_2
REMARK    2  A    between atoms: C_5  and  S_6
REMARK    3  A    between atoms: S_6  and  N_9
REMARK    4  A    between atoms: C_16  and  C_17
REMARK                            x       y       z     vdW  Elec       q    Type
REMARK                         _______ _______ _______ _____ _____    ______ ____
ROOT
ATOM      1  C   UNL     1      -1.387   9.744  17.567  0.00  0.00    +0.000 C 
ATOM      2  C   UNL     1      -0.603  10.802  18.287  0.00  0.00    +0.000 A 
ATOM      3  C   UNL     1      -1.179  12.076  18.430  0.00  0.00    +0.000 A 
ATOM      4  C   UNL     1      -0.535  13.092  19.132  0.00  0.00    +0.000 A 
ATOM      5  C   UNL     1       0.715  12.841  19.696  0.00  0.00    +0.000 A 
ATOM      6  C   UNL     1       1.341  11.602  19.527  0.00  0.00    +0.000 A 
ATOM      7  C   UNL     1       0.680  10.575  18.828  0.00  0.00    +0.000 A 
ENDROOT
BRANCH   7   8
ATOM      8  C   UNL     1       1.346   9.230  18.769  0.00  0.00    +0.000 C 
ATOM      9  O   UNL     1       1.730   8.816  17.682  0.00  0.00    +0.000 OA
ATOM     10  N   UNL     1       1.405   8.540  19.955  0.00  0.00    +0.000 N 
ATOM     11  C   UNL     1       1.906   7.262  20.019  0.00  0.00    +0.000 A 
ATOM     12  N   UNL     1       1.448   6.343  20.838  0.00  0.00    +0.000 NA
ATOM     13  C   UNL     1       2.151   5.203  20.537  0.00  0.00    +0.000 A 
ATOM     14  C   UNL     1       1.971   3.893  21.005  0.00  0.00    +0.000 A 
ATOM     15  C   UNL     1       2.865   2.900  20.588  0.00  0.00    +0.000 A 
ATOM     16  C   UNL     1       3.932   3.213  19.742  0.00  0.00    +0.000 A 
ATOM     17  C   UNL     1       4.110   4.508  19.238  0.00  0.00    +0.000 A 
ATOM     18  C   UNL     1       3.171   5.469  19.630  0.00  0.00    +0.000 A 
ATOM     19  N   UNL     1       2.960   6.782  19.277  0.00  0.00    +0.000 N 
ATOM     20  H   UNL     1       0.776   8.780  20.710  0.00  0.00    +0.000 HD
ATOM     21  H   UNL     1       3.481   7.317  18.595  0.00  0.00    +0.000 HD
ENDBRANCH   7   8
BRANCH   5  22
ATOM     22  S   UNL     1       1.550  14.156  20.554  0.00  0.00    +0.000 S 
ATOM     23  O   UNL     1       0.542  14.926  21.249  0.00  0.00    +0.000 OA
ATOM     24  O   UNL     1       2.666  13.571  21.276  0.00  0.00    +0.000 OA
BRANCH  22  25
ATOM     25  N   UNL     1       2.181  15.115  19.323  0.00  0.00    +0.000 NA
ATOM     26  C   UNL     1       3.041  14.488  18.287  0.00  0.00    +0.000 C 
ATOM     27  C   UNL     1       3.871  15.591  17.611  0.00  0.00    +0.000 C 
ATOM     28  O   UNL     1       3.024  16.601  17.035  0.00  0.00    +0.000 OA
ATOM     29  C   UNL     1       2.196  17.205  18.045  0.00  0.00    +0.000 C 
ATOM     30  C   UNL     1       1.306  16.157  18.724  0.00  0.00    +0.000 C 
ENDBRANCH  22  25
ENDBRANCH   5  22
TORSDOF 3
ENDMDL
MODEL 5
REMARK VINA RESULT:      -8.1      5.109      8.667
REMARK  Name = 
REMARK  4 active torsions:
REMARK  status: ('A' for Active; 'I' for Inactive)
REMARK    1  A    between atoms: C_1  and  C_2
REMARK    2  A    between atoms: C_5  and  S_6
REMARK    3  A    between atoms: S_6  and  N_9
REMARK    4  A    between atoms: C_16  and  C_17
REMARK                            x       y       z     vdW  Elec       q    Type
REMARK                         _______ _______ _______ _____ _____    ______ ____
ROOT
ATOM      1  C   UNL     1      -1.633  10.040  17.894  0.00  0.00    +0.000 C 
ATOM      2  C   UNL     1      -0.788  11.081  18.569  0.00  0.00    +0.000 A 
ATOM      3  C   UNL     1      -1.337  12.358  18.768  0.00  0.00    +0.000 A 
ATOM      4  C   UNL     1      -0.633  13.359  19.433  0.00  0.00    +0.000 A 
ATOM      5  C   UNL     1       0.651  13.087  19.904  0.00  0.00    +0.000 A 
ATOM      6  C   UNL     1       1.249  11.843  19.676  0.00  0.00    +0.000 A 
ATOM      7  C   UNL     1       0.528  10.832  19.014  0.00  0.00    +0.000 A 
ENDROOT
BRANCH   7   8
ATOM      8  C   UNL     1       1.173   9.481  18.891  0.00  0.00    +0.000 C 
ATOM      9  O   UNL     1       1.480   9.081  17.775  0.00  0.00    +0.000 OA
ATOM     10  N   UNL     1       1.300   8.772  20.060  0.00  0.00    +0.000 N 
ATOM     11  C   UNL     1       1.788   7.488  20.072  0.00  0.00    +0.000 A 
ATOM     12  N   UNL     1       1.373   6.561  20.905  0.00  0.00    +0.000 NA
ATOM     13  C   UNL     1       2.041   5.418  20.541  0.00  0.00    +0.000 A 
ATOM     14  C   UNL     1       1.876   4.103  21.000  0.00  0.00    +0.000 A 
ATOM     15  C   UNL     1       2.729   3.107  20.511  0.00  0.00    +0.000 A 
ATOM     16  C   UNL     1       3.743   3.421  19.603  0.00  0.00    +0.000 A 
ATOM     17  C   UNL     1       3.904   4.723  19.108  0.00  0.00    +0.000 A 
ATOM     18  C   UNL     1       3.004   5.688  19.575  0.00  0.00    +0.000 A 
ATOM     19  N   UNL     1       2.786   7.008  19.256  0.00  0.00    +0.000 N 
ATOM     20  H   UNL     1       0.724   9.007  20.858  0.00  0.00    +0.000 HD
ATOM     21  H   UNL     1       3.269   7.548  18.550  0.00  0.00    +0.000 HD
ENDBRANCH   7   8
BRANCH   5  22
ATOM     22  S   UNL     1       1.561  14.382  20.715  0.00  0.00    +0.000 S 
ATOM     23  O   UNL     1       0.614  15.152  21.492  0.00  0.00    +0.000 OA
ATOM     24  O   UNL     1       2.720  13.776  21.346  0.00  0.00    +0.000 OA
BRANCH  22  25
ATOM     25  N   UNL     1       2.110  15.352  19.454  0.00  0.00    +0.000 NA
ATOM     26  C   UNL     1       1.710  16.782  19.415  0.00  0.00    +0.000 C 
ATOM     27  C   UNL     1       1.893  17.299  17.979  0.00  0.00    +0.000 C 
ATOM     28  O   UNL     1       3.251  17.132  17.535  0.00  0.00    +0.000 OA
ATOM     29  C   UNL     1       3.631  15.744  17.574  0.00  0.00    +0.000 C 
ATOM     30  C   UNL     1       3.514  15.183  18.997  0.00  0.00    +0.000 C 
ENDBRANCH  22  25
ENDBRANCH   5  22
TORSDOF 3
ENDMDL
MODEL 6
REMARK VINA RESULT:      -8.0      2.387      3.647
REMARK  Name = 
REMARK  4 active torsions:
REMARK  status: ('A' for Active; 'I' for Inactive)
REMARK    1  A    between atoms: C_1  and  C_2
REMARK    2  A    between atoms: C_5  and  S_6
REMARK    3  A    between atoms: S_6  and  N_9
REMARK    4  A    between atoms: C_16  and  C_17
REMARK                            x       y       z     vdW  Elec       q    Type
REMARK                         _______ _______ _______ _____ _____    ______ ____
ROOT
ATOM      1  C   UNL     1       1.563   5.151  18.786  0.00  0.00    +0.000 C 
ATOM      2  C   UNL     1       2.947   5.293  18.222  0.00  0.00    +0.000 A 
ATOM      3  C   UNL     1       3.732   4.135  18.084  0.00  0.00    +0.000 A 
ATOM      4  C   UNL     1       5.004   4.181  17.520  0.00  0.00    +0.000 A 
ATOM      5  C   UNL     1       5.514   5.406  17.092  0.00  0.00    +0.000 A 
ATOM      6  C   UNL     1       4.782   6.585  17.263  0.00  0.00    +0.000 A 
ATOM      7  C   UNL     1       3.491   6.531  17.822  0.00  0.00    +0.000 A 
ENDROOT
BRANCH   7   8
ATOM      8  C   UNL     1       2.703   7.809  17.883  0.00  0.00    +0.000 C 
ATOM      9  O   UNL     1       2.815   8.608  16.961  0.00  0.00    +0.000 OA
ATOM     10  N   UNL     1       1.965   8.001  19.025  0.00  0.00    +0.000 N 
ATOM     11  C   UNL     1       1.274   9.168  19.246  0.00  0.00    +0.000 A 
ATOM     12  N   UNL     1       1.114   9.703  20.434  0.00  0.00    +0.000 NA
ATOM     13  C   UNL     1       0.447  10.882  20.216  0.00  0.00    +0.000 A 
ATOM     14  C   UNL     1       0.143  11.916  21.114  0.00  0.00    +0.000 A 
ATOM     15  C   UNL     1      -0.607  13.006  20.658  0.00  0.00    +0.000 A 
ATOM     16  C   UNL     1      -1.069  13.051  19.340  0.00  0.00    +0.000 A 
ATOM     17  C   UNL     1      -0.750  12.044  18.419  0.00  0.00    +0.000 A 
ATOM     18  C   UNL     1       0.046  10.993  18.889  0.00  0.00    +0.000 A 
ATOM     19  N   UNL     1       0.631   9.907  18.280  0.00  0.00    +0.000 N 
ATOM     20  H   UNL     1       2.192   7.485  19.865  0.00  0.00    +0.000 HD
ATOM     21  H   UNL     1       0.603   9.677  17.295  0.00  0.00    +0.000 HD
ENDBRANCH   7   8
BRANCH   5  22
ATOM     22  S   UNL     1       7.156   5.463  16.412  0.00  0.00    +0.000 S 
ATOM     23  O   UNL     1       7.583   6.846  16.432  0.00  0.00    +0.000 OA
ATOM     24  O   UNL     1       7.941   4.434  17.072  0.00  0.00    +0.000 OA
BRANCH  22  25
ATOM     25  N   UNL     1       6.954   5.004  14.806  0.00  0.00    +0.000 NA
ATOM     26  C   UNL     1       8.068   5.217  13.847  0.00  0.00    +0.000 C 
ATOM     27  C   UNL     1       7.494   5.203  12.422  0.00  0.00    +0.000 C 
ATOM     28  O   UNL     1       6.809   3.968  12.149  0.00  0.00    +0.000 OA
ATOM     29  C   UNL     1       5.728   3.770  13.080  0.00  0.00    +0.000 C 
ATOM     30  C   UNL     1       6.249   3.727  14.522  0.00  0.00    +0.000 C 
ENDBRANCH  22  25
ENDBRANCH   5  22
TORSDOF 3
ENDMDL
MODEL 7
REMARK VINA RESULT:      -8.0      2.186      3.283
REMARK  Name = 
REMARK  4 active torsions:
REMARK  status: ('A' for Active; 'I' for Inactive)
REMARK    1  A    between atoms: C_1  and  C_2
REMARK    2  A    between atoms: C_5  and  S_6
REMARK    3  A    between atoms: S_6  and  N_9
REMARK    4  A    between atoms: C_16  and  C_17
REMARK                            x       y       z     vdW  Elec       q    Type
REMARK                         _______ _______ _______ _____ _____    ______ ____
ROOT
ATOM      1  C   UNL     1       1.593   4.452  18.756  0.00  0.00    +0.000 C 
ATOM      2  C   UNL     1       2.961   4.688  18.186  0.00  0.00    +0.000 A 
ATOM      3  C   UNL     1       3.710   3.575  17.769  0.00  0.00    +0.000 A 
ATOM      4  C   UNL     1       4.965   3.720  17.182  0.00  0.00    +0.000 A 
ATOM      5  C   UNL     1       5.493   4.999  17.013  0.00  0.00    +0.000 A 
ATOM      6  C   UNL     1       4.798   6.126  17.467  0.00  0.00    +0.000 A 
ATOM      7  C   UNL     1       3.525   5.974  18.048  0.00  0.00    +0.000 A 
ENDROOT
BRANCH   7   8
ATOM      8  C   UNL     1       2.773   7.221  18.417  0.00  0.00    +0.000 C 
ATOM      9  O   UNL     1       2.965   8.235  17.757  0.00  0.00    +0.000 OA
ATOM     10  N   UNL     1       1.972   7.129  19.529  0.00  0.00    +0.000 N 
ATOM     11  C   UNL     1       1.304   8.222  20.026  0.00  0.00    +0.000 A 
ATOM     12  N   UNL     1       1.088   8.421  21.306  0.00  0.00    +0.000 NA
ATOM     13  C   UNL     1       0.471   9.644  21.386  0.00  0.00    +0.000 A 
ATOM     14  C   UNL     1       0.144  10.407  22.517  0.00  0.00    +0.000 A 
ATOM     15  C   UNL     1      -0.544  11.613  22.340  0.00  0.00    +0.000 A 
ATOM     16  C   UNL     1      -0.922  12.036  21.063  0.00  0.00    +0.000 A 
ATOM     17  C   UNL     1      -0.578  11.304  19.918  0.00  0.00    +0.000 A 
ATOM     18  C   UNL     1       0.156  10.129  20.121  0.00  0.00    +0.000 A 
ATOM     19  N   UNL     1       0.745   9.225  19.269  0.00  0.00    +0.000 N 
ATOM     20  H   UNL     1       2.131   6.394  20.205  0.00  0.00    +0.000 HD
ATOM     21  H   UNL     1       0.769   9.273  18.258  0.00  0.00    +0.000 HD
ENDBRANCH   7   8
BRANCH   5  22
ATOM     22  S   UNL     1       7.113   5.174  16.302  0.00  0.00    +0.000 S 
ATOM     23  O   UNL     1       7.429   6.586  16.293  0.00  0.00    +0.000 OA
ATOM     24  O   UNL     1       7.988   4.222  16.963  0.00  0.00    +0.000 OA
BRANCH  22  25
ATOM     25  N   UNL     1       6.919   4.674  14.707  0.00  0.00    +0.000 NA
ATOM     26  C   UNL     1       5.569   4.272  14.235  0.00  0.00    +0.000 C 
ATOM     27  C   UNL     1       5.732   3.410  12.973  0.00  0.00    +0.000 C 
ATOM     28  O   UNL     1       6.446   4.120  11.946  0.00  0.00    +0.000 OA
ATOM     29  C   UNL     1       7.753   4.503  12.410  0.00  0.00    +0.000 C 
ATOM     30  C   UNL     1       7.654   5.408  13.644  0.00  0.00    +0.000 C 
ENDBRANCH  22  25
ENDBRANCH   5  22
TORSDOF 3
ENDMDL
MODEL 8
REMARK VINA RESULT:      -7.9      1.145      1.394
REMARK  Name = 
REMARK  4 active torsions:
REMARK  status: ('A' for Active; 'I' for Inactive)
REMARK    1  A    between atoms: C_1  and  C_2
REMARK    2  A    between atoms: C_5  and  S_6
REMARK    3  A    between atoms: S_6  and  N_9
REMARK    4  A    between atoms: C_16  and  C_17
REMARK                            x       y       z     vdW  Elec       q    Type
REMARK                         _______ _______ _______ _____ _____    ______ ____
ROOT
ATOM      1  C   UNL     1       0.791   4.115  20.043  0.00  0.00    +0.000 C 
ATOM      2  C   UNL     1       1.984   4.413  19.183  0.00  0.00    +0.000 A 
ATOM      3  C   UNL     1       2.602   3.347  18.508  0.00  0.00    +0.000 A 
ATOM      4  C   UNL     1       3.680   3.554  17.651  0.00  0.00    +0.000 A 
ATOM      5  C   UNL     1       4.163   4.849  17.468  0.00  0.00    +0.000 A 
ATOM      6  C   UNL     1       3.607   5.926  18.165  0.00  0.00    +0.000 A 
ATOM      7  C   UNL     1       2.509   5.713  19.020  0.00  0.00    +0.000 A 
ENDROOT
BRANCH   7   8
ATOM      8  C   UNL     1       1.879   6.917  19.660  0.00  0.00    +0.000 C 
ATOM      9  O   UNL     1       1.467   6.818  20.809  0.00  0.00    +0.000 OA
ATOM     10  N   UNL     1       1.755   8.024  18.857  0.00  0.00    +0.000 N 
ATOM     11  C   UNL     1       1.114   9.159  19.291  0.00  0.00    +0.000 A 
ATOM     12  N   UNL     1       0.403   9.936  18.507  0.00  0.00    +0.000 NA
ATOM     13  C   UNL     1      -0.125  10.899  19.330  0.00  0.00    +0.000 A 
ATOM     14  C   UNL     1      -1.070  11.896  19.046  0.00  0.00    +0.000 A 
ATOM     15  C   UNL     1      -1.412  12.807  20.052  0.00  0.00    +0.000 A 
ATOM     16  C   UNL     1      -0.803  12.742  21.309  0.00  0.00    +0.000 A 
ATOM     17  C   UNL     1       0.120  11.734  21.622  0.00  0.00    +0.000 A 
ATOM     18  C   UNL     1       0.402  10.805  20.614  0.00  0.00    +0.000 A 
ATOM     19  N   UNL     1       1.154   9.654  20.574  0.00  0.00    +0.000 N 
ATOM     20  H   UNL     1       1.792   7.925  17.851  0.00  0.00    +0.000 HD
ATOM     21  H   UNL     1       1.655   9.232  21.344  0.00  0.00    +0.000 HD
ENDBRANCH   7   8
BRANCH   5  22
ATOM     22  S   UNL     1       5.567   5.101  16.406  0.00  0.00    +0.000 S 
ATOM     23  O   UNL     1       6.162   3.804  16.163  0.00  0.00    +0.000 OA
ATOM     24  O   UNL     1       5.138   5.939  15.301  0.00  0.00    +0.000 OA
BRANCH  22  25
ATOM     25  N   UNL     1       6.639   5.997  17.345  0.00  0.00    +0.000 NA
ATOM     26  C   UNL     1       7.581   5.284  18.245  0.00  0.00    +0.000 C 
ATOM     27  C   UNL     1       8.067   6.270  19.320  0.00  0.00    +0.000 C 
ATOM     28  O   UNL     1       8.693   7.420  18.726  0.00  0.00    +0.000 OA
ATOM     29  C   UNL     1       7.774   8.107  17.857  0.00  0.00    +0.000 C 
ATOM     30  C   UNL     1       7.290   7.184  16.731  0.00  0.00    +0.000 C 
ENDBRANCH  22  25
ENDBRANCH   5  22
TORSDOF 3
ENDMDL
MODEL 9
REMARK VINA RESULT:      -7.9      5.132      8.848
REMARK  Name = 
REMARK  4 active torsions:
REMARK  status: ('A' for Active; 'I' for Inactive)
REMARK    1  A    between atoms: C_1  and  C_2
REMARK    2  A    between atoms: C_5  and  S_6
REMARK    3  A    between atoms: S_6  and  N_9
REMARK    4  A    between atoms: C_16  and  C_17
REMARK                            x       y       z     vdW  Elec       q    Type
REMARK                         _______ _______ _______ _____ _____    ______ ____
ROOT
ATOM      1  C   UNL     1      -1.352   9.864  17.569  0.00  0.00    +0.000 C 
ATOM      2  C   UNL     1      -0.638  10.957  18.309  0.00  0.00    +0.000 A 
ATOM      3  C   UNL     1      -1.206  12.242  18.311  0.00  0.00    +0.000 A 
ATOM      4  C   UNL     1      -0.630  13.293  19.020  0.00  0.00    +0.000 A 
ATOM      5  C   UNL     1       0.545  13.066  19.736  0.00  0.00    +0.000 A 
ATOM      6  C   UNL     1       1.167  11.813  19.712  0.00  0.00    +0.000 A 
ATOM      7  C   UNL     1       0.573  10.751  19.005  0.00  0.00    +0.000 A 
ENDROOT
BRANCH   7   8
ATOM      8  C   UNL     1       1.221   9.400  19.101  0.00  0.00    +0.000 C 
ATOM      9  O   UNL     1       1.126   8.780  20.153  0.00  0.00    +0.000 OA
ATOM     10  N   UNL     1       1.938   9.001  17.999  0.00  0.00    +0.000 N 
ATOM     11  C   UNL     1       2.653   7.829  17.993  0.00  0.00    +0.000 A 
ATOM     12  N   UNL     1       3.791   7.676  17.355  0.00  0.00    +0.000 NA
ATOM     13  C   UNL     1       4.214   6.407  17.662  0.00  0.00    +0.000 A 
ATOM     14  C   UNL     1       5.431   5.776  17.367  0.00  0.00    +0.000 A 
ATOM     15  C   UNL     1       5.605   4.439  17.742  0.00  0.00    +0.000 A 
ATOM     16  C   UNL     1       4.576   3.738  18.376  0.00  0.00    +0.000 A 
ATOM     17  C   UNL     1       3.364   4.360  18.708  0.00  0.00    +0.000 A 
ATOM     18  C   UNL     1       3.238   5.711  18.367  0.00  0.00    +0.000 A 
ATOM     19  N   UNL     1       2.272   6.660  18.609  0.00  0.00    +0.000 N 
ATOM     20  H   UNL     1       2.257   9.689  17.329  0.00  0.00    +0.000 HD
ATOM     21  H   UNL     1       1.422   6.535  19.142  0.00  0.00    +0.000 HD
ENDBRANCH   7   8
BRANCH   5  22
ATOM     22  S   UNL     1       1.298  14.423  20.603  0.00  0.00    +0.000 S 
ATOM     23  O   UNL     1       0.236  15.167  21.245  0.00  0.00    +0.000 OA
ATOM     24  O   UNL     1       2.404  13.889  21.379  0.00  0.00    +0.000 OA
BRANCH  22  25
ATOM     25  N   UNL     1       1.944  15.385  19.382  0.00  0.00    +0.000 NA
ATOM     26  C   UNL     1       1.646  16.840  19.374  0.00  0.00    +0.000 C 
ATOM     27  C   UNL     1       1.898  17.381  17.958  0.00  0.00    +0.000 C 
ATOM     28  O   UNL     1       3.251  17.130  17.539  0.00  0.00    +0.000 OA
ATOM     29  C   UNL     1       3.532  15.719  17.546  0.00  0.00    +0.000 C 
ATOM     30  C   UNL     1       3.343  15.130  18.950  0.00  0.00    +0.000 C 
ENDBRANCH  22  25
ENDBRANCH   5  22
TORSDOF 3
ENDMDL
