MODEL 1
REMARK VINA RESULT:      -8.6      0.000      0.000
REMARK  Name = 
REMARK  5 active torsions:
REMARK  status: ('A' for Active; 'I' for Inactive)
REMARK    1  A    between atoms: C_1  and  C_2
REMARK    2  A    between atoms: C_2  and  N_3
REMARK    3  A    between atoms: C_7  and  C_8
REMARK    4  A    between atoms: C_8  and  C_9
REMARK    5  A    between atoms: C_21  and  C_22
REMARK                            x       y       z     vdW  Elec       q    Type
REMARK                         _______ _______ _______ _____ _____    ______ ____
ROOT
ATOM      1  C   UNL     1       3.876   5.205  18.987  0.00  0.00    +0.000 A 
ATOM      2  C   UNL     1       4.584   5.383  17.800  0.00  0.00    +0.000 A 
ATOM      3  C   UNL     1       4.382   6.548  17.085  0.00  0.00    +0.000 A 
ATOM      4  N   UNL     1       3.538   7.528  17.470  0.00  0.00    +0.000 NA
ATOM      5  C   UNL     1       2.862   7.386  18.624  0.00  0.00    +0.000 A 
ATOM      6  N   UNL     1       2.016   8.430  19.057  0.00  0.00    +0.000 N 
ATOM      7  C   UNL     1       1.343   8.399  20.336  0.00  0.00    +0.000 C 
ATOM      8  C   UNL     1       0.638   9.714  20.395  0.00  0.00    +0.000 A 
ATOM      9  C   UNL     1       0.882  10.418  19.217  0.00  0.00    +0.000 A 
ATOM     10  C   UNL     1       0.346  11.671  18.981  0.00  0.00    +0.000 A 
ATOM     11  C   UNL     1      -0.464  12.225  19.972  0.00  0.00    +0.000 A 
ATOM     12  C   UNL     1      -0.710  11.527  21.170  0.00  0.00    +0.000 A 
ATOM     13  C   UNL     1      -0.156  10.252  21.402  0.00  0.00    +0.000 A 
ATOM     14  C   UNL     1       1.770   9.612  18.357  0.00  0.00    +0.000 C 
ATOM     15  O   UNL     1       2.139  10.013  17.267  0.00  0.00    +0.000 OA
ATOM     16  C   UNL     1       3.010   6.233  19.401  0.00  0.00    +0.000 A 
ENDROOT
BRANCH  13  17
ATOM     17  C   UNL     1      -0.415   9.537  22.702  0.00  0.00    +0.000 C 
ATOM     18  F   UNL     1      -1.269  10.204  23.528  0.00  0.00    +0.000 F 
ATOM     19  F   UNL     1      -0.967   8.306  22.518  0.00  0.00    +0.000 F 
ATOM     20  F   UNL     1       0.720   9.339  23.424  0.00  0.00    +0.000 F 
ENDBRANCH  13  17
BRANCH   1  21
ATOM     21  C   UNL     1       4.106   3.982  19.845  0.00  0.00    +0.000 C 
BRANCH  21  26
ATOM     22  N   UNL     1       1.759   2.955  19.909  0.00  0.00    +0.000 N 
ATOM     23  C   UNL     1       0.961   2.489  20.914  0.00  0.00    +0.000 A 
ATOM     24  N   UNL     1       1.550   2.676  22.069  0.00  0.00    +0.000 NA
ATOM     25  N   UNL     1       2.761   3.273  21.822  0.00  0.00    +0.000 NA
ATOM     26  C   UNL     1       2.891   3.434  20.519  0.00  0.00    +0.000 A 
BRANCH  22  28
ATOM     27  C   UNL     1       2.418   2.033  17.716  0.00  0.00    +0.000 C 
ATOM     28  C   UNL     1       1.430   2.878  18.505  0.00  0.00    +0.000 C 
ENDBRANCH  22  28
ENDBRANCH  21  26
ENDBRANCH   1  21
TORSDOF 4
ENDMDL
MODEL 2
REMARK VINA RESULT:      -8.0      0.968      1.755
REMARK  Name = 
REMARK  5 active torsions:
REMARK  status: ('A' for Active; 'I' for Inactive)
REMARK    1  A    between atoms: C_1  and  C_2
REMARK    2  A    between atoms: C_2  and  N_3
REMARK    3  A    between atoms: C_7  and  C_8
REMARK    4  A    between atoms: C_8  and  C_9
REMARK    5  A    between atoms: C_21  and  C_22
REMARK                            x       y       z     vdW  Elec       q    Type
REMARK                         _______ _______ _______ _____ _____    ______ ____
ROOT
ATOM      1  C   UNL     1       3.763   5.698  18.926  0.00  0.00    +0.000 A 
ATOM      2  C   UNL     1       4.448   5.932  17.736  0.00  0.00    +0.000 A 
ATOM      3  C   UNL     1       4.195   7.108  17.055  0.00  0.00    +0.000 A 
ATOM      4  N   UNL     1       3.324   8.046  17.477  0.00  0.00    +0.000 NA
ATOM      5  C   UNL     1       2.669   7.851  18.635  0.00  0.00    +0.000 A 
ATOM      6  N   UNL     1       1.793   8.853  19.107  0.00  0.00    +0.000 N 
ATOM      7  C   UNL     1       1.139   8.765  20.392  0.00  0.00    +0.000 C 
ATOM      8  C   UNL     1       0.389  10.052  20.495  0.00  0.00    +0.000 A 
ATOM      9  C   UNL     1       0.592  10.794  19.333  0.00  0.00    +0.000 A 
ATOM     10  C   UNL     1       0.009  12.034  19.138  0.00  0.00    +0.000 A 
ATOM     11  C   UNL     1      -0.806  12.533  20.154  0.00  0.00    +0.000 A 
ATOM     12  C   UNL     1      -1.010  11.795  21.335  0.00  0.00    +0.000 A 
ATOM     13  C   UNL     1      -0.409  10.535  21.527  0.00  0.00    +0.000 A 
ATOM     14  C   UNL     1       1.496  10.043  18.441  0.00  0.00    +0.000 C 
ATOM     15  O   UNL     1       1.836  10.486  17.358  0.00  0.00    +0.000 OA
ATOM     16  C   UNL     1       2.867   6.684  19.379  0.00  0.00    +0.000 A 
ENDROOT
BRANCH  13  17
ATOM     17  C   UNL     1      -0.626   9.778  22.811  0.00  0.00    +0.000 C 
ATOM     18  F   UNL     1      -1.055   8.499  22.621  0.00  0.00    +0.000 F 
ATOM     19  F   UNL     1       0.510   9.679  23.554  0.00  0.00    +0.000 F 
ATOM     20  F   UNL     1      -1.554  10.366  23.612  0.00  0.00    +0.000 F 
ENDBRANCH  13  17
BRANCH   1  21
ATOM     21  C   UNL     1       4.047   4.462  19.749  0.00  0.00    +0.000 C 
BRANCH  21  26
ATOM     22  N   UNL     1       2.231   2.678  19.459  0.00  0.00    +0.000 N 
ATOM     23  C   UNL     1       2.129   1.551  18.695  0.00  0.00    +0.000 A 
ATOM     24  N   UNL     1       3.243   1.368  18.029  0.00  0.00    +0.000 NA
ATOM     25  N   UNL     1       4.093   2.394  18.356  0.00  0.00    +0.000 NA
ATOM     26  C   UNL     1       3.480   3.190  19.212  0.00  0.00    +0.000 A 
BRANCH  22  28
ATOM     27  C   UNL     1       1.340   2.819  21.758  0.00  0.00    +0.000 C 
ATOM     28  C   UNL     1       1.172   3.194  20.294  0.00  0.00    +0.000 C 
ENDBRANCH  22  28
ENDBRANCH  21  26
ENDBRANCH   1  21
TORSDOF 4
ENDMDL
MODEL 3
REMARK VINA RESULT:      -7.9      3.107      7.709
REMARK  Name = 
REMARK  5 active torsions:
REMARK  status: ('A' for Active; 'I' for Inactive)
REMARK    1  A    between atoms: C_1  and  C_2
REMARK    2  A    between atoms: C_2  and  N_3
REMARK    3  A    between atoms: C_7  and  C_8
REMARK    4  A    between atoms: C_8  and  C_9
REMARK    5  A    between atoms: C_21  and  C_22
REMARK                            x       y       z     vdW  Elec       q    Type
REMARK                         _______ _______ _______ _____ _____    ______ ____
ROOT
ATOM      1  C   UNL     1       0.646  10.016  19.954  0.00  0.00    +0.000 A 
ATOM      2  C   UNL     1       0.958  10.833  18.870  0.00  0.00    +0.000 A 
ATOM      3  C   UNL     1       1.806  10.338  17.898  0.00  0.00    +0.000 A 
ATOM      4  N   UNL     1       2.350   9.104  17.935  0.00  0.00    +0.000 NA
ATOM      5  C   UNL     1       2.043   8.290  18.961  0.00  0.00    +0.000 A 
ATOM      6  N   UNL     1       2.570   6.980  18.979  0.00  0.00    +0.000 N 
ATOM      7  C   UNL     1       2.200   6.013  19.988  0.00  0.00    +0.000 C 
ATOM      8  C   UNL     1       2.926   4.776  19.573  0.00  0.00    +0.000 A 
ATOM      9  C   UNL     1       3.669   5.044  18.425  0.00  0.00    +0.000 A 
ATOM     10  C   UNL     1       4.457   4.085  17.815  0.00  0.00    +0.000 A 
ATOM     11  C   UNL     1       4.491   2.815  18.389  0.00  0.00    +0.000 A 
ATOM     12  C   UNL     1       3.736   2.530  19.543  0.00  0.00    +0.000 A 
ATOM     13  C   UNL     1       2.934   3.513  20.156  0.00  0.00    +0.000 A 
ATOM     14  C   UNL     1       3.442   6.447  18.030  0.00  0.00    +0.000 C 
ATOM     15  O   UNL     1       3.979   6.928  17.046  0.00  0.00    +0.000 OA
ATOM     16  C   UNL     1       1.196   8.721  19.986  0.00  0.00    +0.000 A 
ENDROOT
BRANCH  13  17
ATOM     17  C   UNL     1       2.119   3.175  21.376  0.00  0.00    +0.000 C 
ATOM     18  F   UNL     1       2.400   1.947  21.895  0.00  0.00    +0.000 F 
ATOM     19  F   UNL     1       2.313   4.058  22.393  0.00  0.00    +0.000 F 
ATOM     20  F   UNL     1       0.782   3.175  21.126  0.00  0.00    +0.000 F 
ENDBRANCH  13  17
BRANCH   1  21
ATOM     21  C   UNL     1      -0.328  10.479  21.013  0.00  0.00    +0.000 C 
BRANCH  21  26
ATOM     22  N   UNL     1      -1.154  12.738  21.898  0.00  0.00    +0.000 N 
ATOM     23  C   UNL     1      -0.525  13.889  22.276  0.00  0.00    +0.000 A 
ATOM     24  N   UNL     1       0.765  13.774  22.076  0.00  0.00    +0.000 NA
ATOM     25  N   UNL     1       0.992  12.522  21.562  0.00  0.00    +0.000 NA
ATOM     26  C   UNL     1      -0.164  11.893  21.461  0.00  0.00    +0.000 A 
BRANCH  22  28
ATOM     27  C   UNL     1      -3.029  12.339  23.454  0.00  0.00    +0.000 C 
ATOM     28  C   UNL     1      -2.575  12.510  22.013  0.00  0.00    +0.000 C 
ENDBRANCH  22  28
ENDBRANCH  21  26
ENDBRANCH   1  21
TORSDOF 4
ENDMDL
MODEL 4
REMARK VINA RESULT:      -7.9      3.093      7.612
REMARK  Name = 
REMARK  5 active torsions:
REMARK  status: ('A' for Active; 'I' for Inactive)
REMARK    1  A    between atoms: C_1  and  C_2
REMARK    2  A    between atoms: C_2  and  N_3
REMARK    3  A    between atoms: C_7  and  C_8
REMARK    4  A    between atoms: C_8  and  C_9
REMARK    5  A    between atoms: C_21  and  C_22
REMARK                            x       y       z     vdW  Elec       q    Type
REMARK                         _______ _______ _______ _____ _____    ______ ____
ROOT
ATOM      1  C   UNL     1       0.854   9.958  19.993  0.00  0.00    +0.000 A 
ATOM      2  C   UNL     1       1.174  10.761  18.901  0.00  0.00    +0.000 A 
ATOM      3  C   UNL     1       1.960  10.222  17.899  0.00  0.00    +0.000 A 
ATOM      4  N   UNL     1       2.433   8.960  17.915  0.00  0.00    +0.000 NA
ATOM      5  C   UNL     1       2.116   8.160  18.949  0.00  0.00    +0.000 A 
ATOM      6  N   UNL     1       2.567   6.822  18.947  0.00  0.00    +0.000 N 
ATOM      7  C   UNL     1       2.178   5.873  19.966  0.00  0.00    +0.000 C 
ATOM      8  C   UNL     1       2.818   4.599  19.523  0.00  0.00    +0.000 A 
ATOM      9  C   UNL     1       3.536   4.830  18.351  0.00  0.00    +0.000 A 
ATOM     10  C   UNL     1       4.247   3.830  17.712  0.00  0.00    +0.000 A 
ATOM     11  C   UNL     1       4.228   2.557  18.282  0.00  0.00    +0.000 A 
ATOM     12  C   UNL     1       3.498   2.311  19.461  0.00  0.00    +0.000 A 
ATOM     13  C   UNL     1       2.774   3.335  20.103  0.00  0.00    +0.000 A 
ATOM     14  C   UNL     1       3.376   6.245  17.967  0.00  0.00    +0.000 C 
ATOM     15  O   UNL     1       3.905   6.699  16.967  0.00  0.00    +0.000 OA
ATOM     16  C   UNL     1       1.330   8.634  20.004  0.00  0.00    +0.000 A 
ENDROOT
BRANCH  13  17
ATOM     17  C   UNL     1       1.983   3.039  21.349  0.00  0.00    +0.000 C 
ATOM     18  F   UNL     1       2.156   1.770  21.814  0.00  0.00    +0.000 F 
ATOM     19  F   UNL     1       2.315   3.859  22.383  0.00  0.00    +0.000 F 
ATOM     20  F   UNL     1       0.644   3.186  21.163  0.00  0.00    +0.000 F 
ENDBRANCH  13  17
BRANCH   1  21
ATOM     21  C   UNL     1      -0.057  10.471  21.086  0.00  0.00    +0.000 C 
BRANCH  21  26
ATOM     22  N   UNL     1      -1.285  12.676  20.644  0.00  0.00    +0.000 N 
ATOM     23  C   UNL     1      -1.045  13.974  20.988  0.00  0.00    +0.000 A 
ATOM     24  N   UNL     1       0.090  14.056  21.638  0.00  0.00    +0.000 NA
ATOM     25  N   UNL     1       0.606  12.788  21.727  0.00  0.00    +0.000 NA
ATOM     26  C   UNL     1      -0.227  11.953  21.135  0.00  0.00    +0.000 A 
BRANCH  22  28
ATOM     27  C   UNL     1      -2.210  11.942  18.475  0.00  0.00    +0.000 C 
ATOM     28  C   UNL     1      -2.466  12.223  19.947  0.00  0.00    +0.000 C 
ENDBRANCH  22  28
ENDBRANCH  21  26
ENDBRANCH   1  21
TORSDOF 4
ENDMDL
MODEL 5
REMARK VINA RESULT:      -7.7      3.316      7.781
REMARK  Name = 
REMARK  5 active torsions:
REMARK  status: ('A' for Active; 'I' for Inactive)
REMARK    1  A    between atoms: C_1  and  C_2
REMARK    2  A    between atoms: C_2  and  N_3
REMARK    3  A    between atoms: C_7  and  C_8
REMARK    4  A    between atoms: C_8  and  C_9
REMARK    5  A    between atoms: C_21  and  C_22
REMARK                            x       y       z     vdW  Elec       q    Type
REMARK                         _______ _______ _______ _____ _____    ______ ____
ROOT
ATOM      1  C   UNL     1       0.076  10.579  20.730  0.00  0.00    +0.000 A 
ATOM      2  C   UNL     1       0.232  11.572  19.766  0.00  0.00    +0.000 A 
ATOM      3  C   UNL     1       1.007  11.293  18.657  0.00  0.00    +0.000 A 
ATOM      4  N   UNL     1       1.622  10.111  18.450  0.00  0.00    +0.000 NA
ATOM      5  C   UNL     1       1.466   9.130  19.357  0.00  0.00    +0.000 A 
ATOM      6  N   UNL     1       2.066   7.874  19.121  0.00  0.00    +0.000 N 
ATOM      7  C   UNL     1       1.854   6.740  19.993  0.00  0.00    +0.000 C 
ATOM      8  C   UNL     1       2.606   5.637  19.324  0.00  0.00    +0.000 A 
ATOM      9  C   UNL     1       3.217   6.131  18.173  0.00  0.00    +0.000 A 
ATOM     10  C   UNL     1       3.995   5.335  17.351  0.00  0.00    +0.000 A 
ATOM     11  C   UNL     1       4.158   3.998  17.711  0.00  0.00    +0.000 A 
ATOM     12  C   UNL     1       3.538   3.487  18.868  0.00  0.00    +0.000 A 
ATOM     13  C   UNL     1       2.745   4.304  19.697  0.00  0.00    +0.000 A 
ATOM     14  C   UNL     1       2.871   7.557  18.026  0.00  0.00    +0.000 C 
ATOM     15  O   UNL     1       3.279   8.220  17.088  0.00  0.00    +0.000 OA
ATOM     16  C   UNL     1       0.700   9.338  20.508  0.00  0.00    +0.000 A 
ENDROOT
BRANCH  13  17
ATOM     17  C   UNL     1       2.074   3.726  20.915  0.00  0.00    +0.000 C 
ATOM     18  F   UNL     1       2.321   2.398  21.092  0.00  0.00    +0.000 F 
ATOM     19  F   UNL     1       2.473   4.333  22.066  0.00  0.00    +0.000 F 
ATOM     20  F   UNL     1       0.720   3.849  20.871  0.00  0.00    +0.000 F 
ENDBRANCH  13  17
BRANCH   1  21
ATOM     21  C   UNL     1      -0.815  10.803  21.931  0.00  0.00    +0.000 C 
BRANCH  21  26
ATOM     22  N   UNL     1      -2.058  13.044  21.918  0.00  0.00    +0.000 N 
ATOM     23  C   UNL     1      -1.880  14.224  22.580  0.00  0.00    +0.000 A 
ATOM     24  N   UNL     1      -0.805  14.154  23.327  0.00  0.00    +0.000 NA
ATOM     25  N   UNL     1      -0.267  12.903  23.158  0.00  0.00    +0.000 NA
ATOM     26  C   UNL     1      -1.026  12.230  22.315  0.00  0.00    +0.000 A 
BRANCH  22  28
ATOM     27  C   UNL     1      -4.498  12.703  21.761  0.00  0.00    +0.000 C 
ATOM     28  C   UNL     1      -3.165  12.765  21.033  0.00  0.00    +0.000 C 
ENDBRANCH  22  28
ENDBRANCH  21  26
ENDBRANCH   1  21
TORSDOF 4
ENDMDL
MODEL 6
REMARK VINA RESULT:      -7.7      3.301      4.798
REMARK  Name = 
REMARK  5 active torsions:
REMARK  status: ('A' for Active; 'I' for Inactive)
REMARK    1  A    between atoms: C_1  and  C_2
REMARK    2  A    between atoms: C_2  and  N_3
REMARK    3  A    between atoms: C_7  and  C_8
REMARK    4  A    between atoms: C_8  and  C_9
REMARK    5  A    between atoms: C_21  and  C_22
REMARK                            x       y       z     vdW  Elec       q    Type
REMARK                         _______ _______ _______ _____ _____    ______ ____
ROOT
ATOM      1  C   UNL     1       3.244   7.066  17.980  0.00  0.00    +0.000 A 
ATOM      2  C   UNL     1       3.214   5.925  18.778  0.00  0.00    +0.000 A 
ATOM      3  C   UNL     1       2.502   5.971  19.962  0.00  0.00    +0.000 A 
ATOM      4  N   UNL     1       1.830   7.059  20.390  0.00  0.00    +0.000 NA
ATOM      5  C   UNL     1       1.826   8.164  19.624  0.00  0.00    +0.000 A 
ATOM      6  N   UNL     1       1.083   9.289  20.044  0.00  0.00    +0.000 N 
ATOM      7  C   UNL     1       0.943  10.472  19.225  0.00  0.00    +0.000 C 
ATOM      8  C   UNL     1       0.033  11.347  20.023  0.00  0.00    +0.000 A 
ATOM      9  C   UNL     1      -0.289  10.704  21.217  0.00  0.00    +0.000 A 
ATOM     10  C   UNL     1      -1.111  11.282  22.167  0.00  0.00    +0.000 A 
ATOM     11  C   UNL     1      -1.620  12.552  21.896  0.00  0.00    +0.000 A 
ATOM     12  C   UNL     1      -1.308  13.206  20.689  0.00  0.00    +0.000 A 
ATOM     13  C   UNL     1      -0.473  12.608  19.725  0.00  0.00    +0.000 A 
ATOM     14  C   UNL     1       0.368   9.383  21.238  0.00  0.00    +0.000 C 
ATOM     15  O   UNL     1       0.236   8.620  22.179  0.00  0.00    +0.000 OA
ATOM     16  C   UNL     1       2.528   8.197  18.415  0.00  0.00    +0.000 A 
ENDROOT
BRANCH  13  17
ATOM     17  C   UNL     1      -0.175  13.319  18.432  0.00  0.00    +0.000 C 
ATOM     18  F   UNL     1       1.136  13.255  18.066  0.00  0.00    +0.000 F 
ATOM     19  F   UNL     1      -0.876  12.808  17.383  0.00  0.00    +0.000 F 
ATOM     20  F   UNL     1      -0.481  14.643  18.483  0.00  0.00    +0.000 F 
ENDBRANCH  13  17
BRANCH   1  21
ATOM     21  C   UNL     1       3.950   7.054  16.643  0.00  0.00    +0.000 C 
BRANCH  21  26
ATOM     22  N   UNL     1       5.906   5.454  16.218  0.00  0.00    +0.000 N 
ATOM     23  C   UNL     1       7.257   5.552  16.384  0.00  0.00    +0.000 A 
ATOM     24  N   UNL     1       7.553   6.709  16.923  0.00  0.00    +0.000 NA
ATOM     25  N   UNL     1       6.376   7.389  17.111  0.00  0.00    +0.000 NA
ATOM     26  C   UNL     1       5.382   6.636  16.679  0.00  0.00    +0.000 A 
BRANCH  22  28
ATOM     27  C   UNL     1       5.644   4.095  14.173  0.00  0.00    +0.000 C 
ATOM     28  C   UNL     1       5.238   4.321  15.621  0.00  0.00    +0.000 C 
ENDBRANCH  22  28
ENDBRANCH  21  26
ENDBRANCH   1  21
TORSDOF 4
ENDMDL
MODEL 7
REMARK VINA RESULT:      -7.7      4.117      8.400
REMARK  Name = 
REMARK  5 active torsions:
REMARK  status: ('A' for Active; 'I' for Inactive)
REMARK    1  A    between atoms: C_1  and  C_2
REMARK    2  A    between atoms: C_2  and  N_3
REMARK    3  A    between atoms: C_7  and  C_8
REMARK    4  A    between atoms: C_8  and  C_9
REMARK    5  A    between atoms: C_21  and  C_22
REMARK                            x       y       z     vdW  Elec       q    Type
REMARK                         _______ _______ _______ _____ _____    ______ ____
ROOT
ATOM      1  C   UNL     1       0.752  10.541  20.042  0.00  0.00    +0.000 A 
ATOM      2  C   UNL     1       0.018  10.294  21.200  0.00  0.00    +0.000 A 
ATOM      3  C   UNL     1       0.025   9.014  21.720  0.00  0.00    +0.000 A 
ATOM      4  N   UNL     1       0.704   7.985  21.172  0.00  0.00    +0.000 NA
ATOM      5  C   UNL     1       1.437   8.207  20.066  0.00  0.00    +0.000 A 
ATOM      6  N   UNL     1       2.190   7.146  19.517  0.00  0.00    +0.000 N 
ATOM      7  C   UNL     1       3.085   7.333  18.398  0.00  0.00    +0.000 C 
ATOM      8  C   UNL     1       3.706   5.987  18.215  0.00  0.00    +0.000 A 
ATOM      9  C   UNL     1       3.172   5.106  19.153  0.00  0.00    +0.000 A 
ATOM     10  C   UNL     1       3.552   3.777  19.218  0.00  0.00    +0.000 A 
ATOM     11  C   UNL     1       4.503   3.331  18.300  0.00  0.00    +0.000 A 
ATOM     12  C   UNL     1       5.055   4.216  17.354  0.00  0.00    +0.000 A 
ATOM     13  C   UNL     1       4.664   5.568  17.298  0.00  0.00    +0.000 A 
ATOM     14  C   UNL     1       2.209   5.837  19.998  0.00  0.00    +0.000 C 
ATOM     15  O   UNL     1       1.608   5.285  20.904  0.00  0.00    +0.000 OA
ATOM     16  C   UNL     1       1.477   9.475  19.479  0.00  0.00    +0.000 A 
ENDROOT
BRANCH  13  17
ATOM     17  C   UNL     1       5.289   6.498  16.292  0.00  0.00    +0.000 C 
ATOM     18  F   UNL     1       4.377   7.197  15.559  0.00  0.00    +0.000 F 
ATOM     19  F   UNL     1       6.088   7.433  16.874  0.00  0.00    +0.000 F 
ATOM     20  F   UNL     1       6.067   5.843  15.389  0.00  0.00    +0.000 F 
ENDBRANCH  13  17
BRANCH   1  21
ATOM     21  C   UNL     1       0.837  11.936  19.466  0.00  0.00    +0.000 C 
BRANCH  21  26
ATOM     22  N   UNL     1       2.739  13.642  19.661  0.00  0.00    +0.000 N 
ATOM     23  C   UNL     1       3.224  14.401  20.687  0.00  0.00    +0.000 A 
ATOM     24  N   UNL     1       2.574  14.119  21.790  0.00  0.00    +0.000 NA
ATOM     25  N   UNL     1       1.641  13.161  21.484  0.00  0.00    +0.000 NA
ATOM     26  C   UNL     1       1.733  12.878  20.199  0.00  0.00    +0.000 A 
BRANCH  22  28
ATOM     27  C   UNL     1       3.647  15.124  17.907  0.00  0.00    +0.000 C 
ATOM     28  C   UNL     1       3.207  13.722  18.297  0.00  0.00    +0.000 C 
ENDBRANCH  22  28
ENDBRANCH  21  26
ENDBRANCH   1  21
TORSDOF 4
ENDMDL
MODEL 8
REMARK VINA RESULT:      -7.6      3.180      4.809
REMARK  Name = 
REMARK  5 active torsions:
REMARK  status: ('A' for Active; 'I' for Inactive)
REMARK    1  A    between atoms: C_1  and  C_2
REMARK    2  A    between atoms: C_2  and  N_3
REMARK    3  A    between atoms: C_7  and  C_8
REMARK    4  A    between atoms: C_8  and  C_9
REMARK    5  A    between atoms: C_21  and  C_22
REMARK                            x       y       z     vdW  Elec       q    Type
REMARK                         _______ _______ _______ _____ _____    ______ ____
ROOT
ATOM      1  C   UNL     1       3.591   6.908  17.705  0.00  0.00    +0.000 A 
ATOM      2  C   UNL     1       3.600   5.727  18.443  0.00  0.00    +0.000 A 
ATOM      3  C   UNL     1       2.884   5.687  19.625  0.00  0.00    +0.000 A 
ATOM      4  N   UNL     1       2.173   6.727  20.106  0.00  0.00    +0.000 NA
ATOM      5  C   UNL     1       2.132   7.869  19.396  0.00  0.00    +0.000 A 
ATOM      6  N   UNL     1       1.348   8.944  19.870  0.00  0.00    +0.000 N 
ATOM      7  C   UNL     1       1.167  10.161  19.111  0.00  0.00    +0.000 C 
ATOM      8  C   UNL     1       0.224  10.962  19.949  0.00  0.00    +0.000 A 
ATOM      9  C   UNL     1      -0.077  10.248  21.107  0.00  0.00    +0.000 A 
ATOM     10  C   UNL     1      -0.922  10.747  22.083  0.00  0.00    +0.000 A 
ATOM     11  C   UNL     1      -1.475  12.011  21.874  0.00  0.00    +0.000 A 
ATOM     12  C   UNL     1      -1.184  12.736  20.703  0.00  0.00    +0.000 A 
ATOM     13  C   UNL     1      -0.325  12.217  19.713  0.00  0.00    +0.000 A 
ATOM     14  C   UNL     1       0.627   8.952  21.064  0.00  0.00    +0.000 C 
ATOM     15  O   UNL     1       0.520   8.138  21.965  0.00  0.00    +0.000 OA
ATOM     16  C   UNL     1       2.834   7.988  18.193  0.00  0.00    +0.000 A 
ENDROOT
BRANCH  13  17
ATOM     17  C   UNL     1      -0.050  13.004  18.459  0.00  0.00    +0.000 C 
ATOM     18  F   UNL     1       1.245  12.928  18.044  0.00  0.00    +0.000 F 
ATOM     19  F   UNL     1      -0.800  12.582  17.405  0.00  0.00    +0.000 F 
ATOM     20  F   UNL     1      -0.316  14.330  18.606  0.00  0.00    +0.000 F 
ENDBRANCH  13  17
BRANCH   1  21
ATOM     21  C   UNL     1       4.300   6.989  16.372  0.00  0.00    +0.000 C 
BRANCH  21  26
ATOM     22  N   UNL     1       6.589   5.869  16.642  0.00  0.00    +0.000 N 
ATOM     23  C   UNL     1       7.119   4.689  16.207  0.00  0.00    +0.000 A 
ATOM     24  N   UNL     1       6.245   4.062  15.458  0.00  0.00    +0.000 NA
ATOM     25  N   UNL     1       5.117   4.841  15.403  0.00  0.00    +0.000 NA
ATOM     26  C   UNL     1       5.320   5.927  16.123  0.00  0.00    +0.000 A 
BRANCH  22  28
ATOM     27  C   UNL     1       7.734   6.149  18.812  0.00  0.00    +0.000 C 
ATOM     28  C   UNL     1       7.271   6.795  17.516  0.00  0.00    +0.000 C 
ENDBRANCH  22  28
ENDBRANCH  21  26
ENDBRANCH   1  21
TORSDOF 4
ENDMDL
MODEL 9
REMARK VINA RESULT:      -7.6      3.077      7.631
REMARK  Name = 
REMARK  5 active torsions:
REMARK  status: ('A' for Active; 'I' for Inactive)
REMARK    1  A    between atoms: C_1  and  C_2
REMARK    2  A    between atoms: C_2  and  N_3
REMARK    3  A    between atoms: C_7  and  C_8
REMARK    4  A    between atoms: C_8  and  C_9
REMARK    5  A    between atoms: C_21  and  C_22
REMARK                            x       y       z     vdW  Elec       q    Type
REMARK                         _______ _______ _______ _____ _____    ______ ____
ROOT
ATOM      1  C   UNL     1       0.845  10.222  19.843  0.00  0.00    +0.000 A 
ATOM      2  C   UNL     1       1.222  11.060  18.796  0.00  0.00    +0.000 A 
ATOM      3  C   UNL     1       2.041  10.547  17.808  0.00  0.00    +0.000 A 
ATOM      4  N   UNL     1       2.496   9.278  17.795  0.00  0.00    +0.000 NA
ATOM      5  C   UNL     1       2.125   8.445  18.784  0.00  0.00    +0.000 A 
ATOM      6  N   UNL     1       2.558   7.101  18.750  0.00  0.00    +0.000 N 
ATOM      7  C   UNL     1       2.113   6.121  19.715  0.00  0.00    +0.000 C 
ATOM      8  C   UNL     1       2.753   4.854  19.251  0.00  0.00    +0.000 A 
ATOM      9  C   UNL     1       3.523   5.118  18.119  0.00  0.00    +0.000 A 
ATOM     10  C   UNL     1       4.247   4.132  17.472  0.00  0.00    +0.000 A 
ATOM     11  C   UNL     1       4.186   2.839  17.993  0.00  0.00    +0.000 A 
ATOM     12  C   UNL     1       3.404   2.560  19.130  0.00  0.00    +0.000 A 
ATOM     13  C   UNL     1       2.668   3.571  19.780  0.00  0.00    +0.000 A 
ATOM     14  C   UNL     1       3.398   6.549  17.782  0.00  0.00    +0.000 C 
ATOM     15  O   UNL     1       3.975   7.031  16.823  0.00  0.00    +0.000 OA
ATOM     16  C   UNL     1       1.302   8.891  19.822  0.00  0.00    +0.000 A 
ENDROOT
BRANCH  13  17
ATOM     17  C   UNL     1       1.821   3.240  20.980  0.00  0.00    +0.000 C 
ATOM     18  F   UNL     1       1.782   1.909  21.268  0.00  0.00    +0.000 F 
ATOM     19  F   UNL     1       2.265   3.850  22.114  0.00  0.00    +0.000 F 
ATOM     20  F   UNL     1       0.526   3.625  20.826  0.00  0.00    +0.000 F 
ENDBRANCH  13  17
BRANCH   1  21
ATOM     21  C   UNL     1      -0.103  10.707  20.915  0.00  0.00    +0.000 C 
BRANCH  21  26
ATOM     22  N   UNL     1      -2.115  12.283  21.102  0.00  0.00    +0.000 N 
ATOM     23  C   UNL     1      -3.087  12.680  20.229  0.00  0.00    +0.000 A 
ATOM     24  N   UNL     1      -2.936  12.053  19.087  0.00  0.00    +0.000 NA
ATOM     25  N   UNL     1      -1.844  11.232  19.209  0.00  0.00    +0.000 NA
ATOM     26  C   UNL     1      -1.343  11.376  20.421  0.00  0.00    +0.000 A 
BRANCH  22  28
ATOM     27  C   UNL     1      -2.985  12.227  23.412  0.00  0.00    +0.000 C 
ATOM     28  C   UNL     1      -1.964  12.800  22.442  0.00  0.00    +0.000 C 
ENDBRANCH  22  28
ENDBRANCH  21  26
ENDBRANCH   1  21
TORSDOF 4
ENDMDL
