MODEL 1
REMARK VINA RESULT:      -8.6      0.000      0.000
REMARK  Name = 
REMARK  4 active torsions:
REMARK  status: ('A' for Active; 'I' for Inactive)
REMARK    1  A    between atoms: C_2  and  C_16
REMARK    2  A    between atoms: N_3  and  C_4
REMARK    3  A    between atoms: C_8  and  N_9
REMARK    4  A    between atoms: C_19  and  C_20
REMARK                            x       y       z     vdW  Elec       q    Type
REMARK                         _______ _______ _______ _____ _____    ______ ____
ROOT
ATOM      1  O   UNL     1       2.725   6.048  18.699  0.00  0.00    +0.000 OA
ATOM      2  C   UNL     1       3.056   7.146  18.259  0.00  0.00    +0.000 C 
ATOM      3  N   UNL     1       4.268   7.371  17.601  0.00  0.00    +0.000 N 
ATOM      4  H   UNL     1       4.485   8.331  17.364  0.00  0.00    +0.000 HD
ENDROOT
BRANCH   3   5
ATOM      5  C   UNL     1       5.232   6.360  17.273  0.00  0.00    +0.000 A 
ATOM      6  C   UNL     1       6.033   5.740  18.238  0.00  0.00    +0.000 A 
ATOM      7  C   UNL     1       6.963   4.766  17.888  0.00  0.00    +0.000 A 
ATOM      8  C   UNL     1       7.116   4.387  16.560  0.00  0.00    +0.000 A 
ATOM      9  C   UNL     1       6.346   4.971  15.548  0.00  0.00    +0.000 A 
ATOM     10  C   UNL     1       5.389   5.951  15.931  0.00  0.00    +0.000 A 
BRANCH   9  11
ATOM     11  N   UNL     1       6.537   4.587  14.184  0.00  0.00    +0.000 N 
ATOM     12  C   UNL     1       5.590   3.781  13.455  0.00  0.00    +0.000 C 
ATOM     13  C   UNL     1       6.333   3.352  12.204  0.00  0.00    +0.000 C 
ATOM     14  C   UNL     1       7.283   4.500  11.940  0.00  0.00    +0.000 C 
ATOM     15  C   UNL     1       7.548   5.057  13.317  0.00  0.00    +0.000 C 
ATOM     16  O   UNL     1       8.477   5.819  13.539  0.00  0.00    +0.000 OA
ENDBRANCH   9  11
ENDBRANCH   3   5
BRANCH   2  17
ATOM     17  C   UNL     1       2.133   8.267  18.431  0.00  0.00    +0.000 A 
ATOM     18  C   UNL     1       1.297   8.793  17.462  0.00  0.00    +0.000 A 
ATOM     19  C   UNL     1       0.551   9.821  18.061  0.00  0.00    +0.000 A 
ATOM     20  C   UNL     1       0.930   9.889  19.394  0.00  0.00    +0.000 A 
ATOM     21  O   UNL     1       1.931   8.940  19.613  0.00  0.00    +0.000 OA
BRANCH  20  22
ATOM     22  C   UNL     1       0.385  10.791  20.387  0.00  0.00    +0.000 A 
ATOM     23  N   UNL     1      -0.571  10.441  21.225  0.00  0.00    +0.000 NA
ATOM     24  C   UNL     1      -0.932  11.517  22.028  0.00  0.00    +0.000 A 
ATOM     25  C   UNL     1      -1.935  11.534  23.029  0.00  0.00    +0.000 A 
ATOM     26  C   UNL     1      -2.212  12.720  23.724  0.00  0.00    +0.000 A 
ATOM     27  C   UNL     1      -1.498  13.881  23.446  0.00  0.00    +0.000 A 
ATOM     28  C   UNL     1      -0.487  13.880  22.481  0.00  0.00    +0.000 A 
ATOM     29  C   UNL     1      -0.219  12.692  21.784  0.00  0.00    +0.000 A 
ATOM     30  S   UNL     1       0.947  12.401  20.549  0.00  0.00    +0.000 S 
ENDBRANCH  20  22
ENDBRANCH   2  17
TORSDOF 4
ENDMDL
MODEL 2
REMARK VINA RESULT:      -8.3      6.286      8.490
REMARK  Name = 
REMARK  4 active torsions:
REMARK  status: ('A' for Active; 'I' for Inactive)
REMARK    1  A    between atoms: C_2  and  C_16
REMARK    2  A    between atoms: N_3  and  C_4
REMARK    3  A    between atoms: C_8  and  N_9
REMARK    4  A    between atoms: C_19  and  C_20
REMARK                            x       y       z     vdW  Elec       q    Type
REMARK                         _______ _______ _______ _____ _____    ______ ____
ROOT
ATOM      1  O   UNL     1       7.954   7.238  16.345  0.00  0.00    +0.000 OA
ATOM      2  C   UNL     1       7.536   7.637  17.429  0.00  0.00    +0.000 C 
ATOM      3  N   UNL     1       6.463   7.042  18.098  0.00  0.00    +0.000 N 
ATOM      4  H   UNL     1       6.137   7.507  18.937  0.00  0.00    +0.000 HD
ENDROOT
BRANCH   3   5
ATOM      5  C   UNL     1       5.774   5.858  17.672  0.00  0.00    +0.000 A 
ATOM      6  C   UNL     1       6.106   5.175  16.496  0.00  0.00    +0.000 A 
ATOM      7  C   UNL     1       5.417   4.030  16.107  0.00  0.00    +0.000 A 
ATOM      8  C   UNL     1       4.374   3.541  16.885  0.00  0.00    +0.000 A 
ATOM      9  C   UNL     1       3.994   4.179  18.069  0.00  0.00    +0.000 A 
ATOM     10  C   UNL     1       4.725   5.336  18.458  0.00  0.00    +0.000 A 
BRANCH   9  11
ATOM     11  N   UNL     1       2.901   3.675  18.842  0.00  0.00    +0.000 N 
ATOM     12  C   UNL     1       3.046   3.216  20.201  0.00  0.00    +0.000 C 
ATOM     13  C   UNL     1       1.753   2.480  20.498  0.00  0.00    +0.000 C 
ATOM     14  C   UNL     1       0.728   3.202  19.650  0.00  0.00    +0.000 C 
ATOM     15  C   UNL     1       1.537   3.707  18.480  0.00  0.00    +0.000 C 
ATOM     16  O   UNL     1       1.008   4.103  17.452  0.00  0.00    +0.000 OA
ENDBRANCH   9  11
ENDBRANCH   3   5
BRANCH   2  17
ATOM     17  C   UNL     1       8.197   8.786  18.045  0.00  0.00    +0.000 A 
ATOM     18  C   UNL     1       8.849   8.794  19.266  0.00  0.00    +0.000 A 
ATOM     19  C   UNL     1       9.379  10.082  19.451  0.00  0.00    +0.000 A 
ATOM     20  C   UNL     1       9.060  10.830  18.328  0.00  0.00    +0.000 A 
ATOM     21  O   UNL     1       8.303  10.030  17.470  0.00  0.00    +0.000 OA
BRANCH  20  22
ATOM     22  C   UNL     1       9.440  12.207  18.088  0.00  0.00    +0.000 A 
ATOM     23  N   UNL     1       8.636  13.224  18.327  0.00  0.00    +0.000 NA
ATOM     24  C   UNL     1       9.242  14.420  17.956  0.00  0.00    +0.000 A 
ATOM     25  C   UNL     1       8.683  15.719  18.042  0.00  0.00    +0.000 A 
ATOM     26  C   UNL     1       9.409  16.826  17.579  0.00  0.00    +0.000 A 
ATOM     27  C   UNL     1      10.683  16.659  17.047  0.00  0.00    +0.000 A 
ATOM     28  C   UNL     1      11.264  15.390  16.977  0.00  0.00    +0.000 A 
ATOM     29  C   UNL     1      10.529  14.285  17.435  0.00  0.00    +0.000 A 
ATOM     30  S   UNL     1      10.980  12.622  17.463  0.00  0.00    +0.000 S 
ENDBRANCH  20  22
ENDBRANCH   2  17
TORSDOF 4
ENDMDL
MODEL 3
REMARK VINA RESULT:      -8.2      2.560      3.006
REMARK  Name = 
REMARK  4 active torsions:
REMARK  status: ('A' for Active; 'I' for Inactive)
REMARK    1  A    between atoms: C_2  and  C_16
REMARK    2  A    between atoms: N_3  and  C_4
REMARK    3  A    between atoms: C_8  and  N_9
REMARK    4  A    between atoms: C_19  and  C_20
REMARK                            x       y       z     vdW  Elec       q    Type
REMARK                         _______ _______ _______ _____ _____    ______ ____
ROOT
ATOM      1  O   UNL     1       2.309   6.284  17.963  0.00  0.00    +0.000 OA
ATOM      2  C   UNL     1       2.871   7.364  17.799  0.00  0.00    +0.000 C 
ATOM      3  N   UNL     1       4.223   7.478  17.464  0.00  0.00    +0.000 N 
ATOM      4  H   UNL     1       4.609   8.414  17.446  0.00  0.00    +0.000 HD
ENDROOT
BRANCH   3   5
ATOM      5  C   UNL     1       5.101   6.380  17.181  0.00  0.00    +0.000 A 
ATOM      6  C   UNL     1       5.758   5.661  18.186  0.00  0.00    +0.000 A 
ATOM      7  C   UNL     1       6.608   4.602  17.880  0.00  0.00    +0.000 A 
ATOM      8  C   UNL     1       6.824   4.237  16.556  0.00  0.00    +0.000 A 
ATOM      9  C   UNL     1       6.199   4.918  15.506  0.00  0.00    +0.000 A 
ATOM     10  C   UNL     1       5.320   5.984  15.844  0.00  0.00    +0.000 A 
BRANCH   9  11
ATOM     11  N   UNL     1       6.456   4.544  14.150  0.00  0.00    +0.000 N 
ATOM     12  C   UNL     1       5.542   3.748  13.368  0.00  0.00    +0.000 C 
ATOM     13  C   UNL     1       6.345   3.326  12.153  0.00  0.00    +0.000 C 
ATOM     14  C   UNL     1       7.311   4.472  11.945  0.00  0.00    +0.000 C 
ATOM     15  C   UNL     1       7.510   5.017  13.339  0.00  0.00    +0.000 C 
ATOM     16  O   UNL     1       8.430   5.773  13.612  0.00  0.00    +0.000 OA
ENDBRANCH   9  11
ENDBRANCH   3   5
BRANCH   2  17
ATOM     17  C   UNL     1       2.083   8.584  17.960  0.00  0.00    +0.000 A 
ATOM     18  C   UNL     1       2.578   9.876  18.013  0.00  0.00    +0.000 A 
ATOM     19  C   UNL     1       1.480  10.744  18.126  0.00  0.00    +0.000 A 
ATOM     20  C   UNL     1       0.331   9.967  18.117  0.00  0.00    +0.000 A 
ATOM     21  O   UNL     1       0.711   8.626  18.041  0.00  0.00    +0.000 OA
BRANCH  20  22
ATOM     22  C   UNL     1      -1.029  10.461  18.180  0.00  0.00    +0.000 A 
ATOM     23  N   UNL     1      -1.896  10.300  17.200  0.00  0.00    +0.000 NA
ATOM     24  C   UNL     1      -3.102  10.917  17.512  0.00  0.00    +0.000 A 
ATOM     25  C   UNL     1      -4.262  10.978  16.700  0.00  0.00    +0.000 A 
ATOM     26  C   UNL     1      -5.391  11.684  17.141  0.00  0.00    +0.000 A 
ATOM     27  C   UNL     1      -5.385  12.315  18.380  0.00  0.00    +0.000 A 
ATOM     28  C   UNL     1      -4.261  12.246  19.208  0.00  0.00    +0.000 A 
ATOM     29  C   UNL     1      -3.132  11.544  18.758  0.00  0.00    +0.000 A 
ATOM     30  S   UNL     1      -1.620  11.303  19.549  0.00  0.00    +0.000 S 
ENDBRANCH  20  22
ENDBRANCH   2  17
TORSDOF 4
ENDMDL
MODEL 4
REMARK VINA RESULT:      -8.2      6.326      8.604
REMARK  Name = 
REMARK  4 active torsions:
REMARK  status: ('A' for Active; 'I' for Inactive)
REMARK    1  A    between atoms: C_2  and  C_16
REMARK    2  A    between atoms: N_3  and  C_4
REMARK    3  A    between atoms: C_8  and  N_9
REMARK    4  A    between atoms: C_19  and  C_20
REMARK                            x       y       z     vdW  Elec       q    Type
REMARK                         _______ _______ _______ _____ _____    ______ ____
ROOT
ATOM      1  O   UNL     1       8.148   7.265  16.561  0.00  0.00    +0.000 OA
ATOM      2  C   UNL     1       7.523   7.925  17.388  0.00  0.00    +0.000 C 
ATOM      3  N   UNL     1       6.222   7.611  17.788  0.00  0.00    +0.000 N 
ATOM      4  H   UNL     1       5.763   8.274  18.401  0.00  0.00    +0.000 HD
ENDROOT
BRANCH   3   5
ATOM      5  C   UNL     1       5.484   6.454  17.373  0.00  0.00    +0.000 A 
ATOM      6  C   UNL     1       5.718   5.807  16.154  0.00  0.00    +0.000 A 
ATOM      7  C   UNL     1       4.983   4.687  15.777  0.00  0.00    +0.000 A 
ATOM      8  C   UNL     1       3.989   4.187  16.611  0.00  0.00    +0.000 A 
ATOM      9  C   UNL     1       3.706   4.790  17.840  0.00  0.00    +0.000 A 
ATOM     10  C   UNL     1       4.483   5.921  18.214  0.00  0.00    +0.000 A 
BRANCH   9  11
ATOM     11  N   UNL     1       2.662   4.276  18.672  0.00  0.00    +0.000 N 
ATOM     12  C   UNL     1       1.991   5.072  19.670  0.00  0.00    +0.000 C 
ATOM     13  C   UNL     1       1.226   4.067  20.511  0.00  0.00    +0.000 C 
ATOM     14  C   UNL     1       0.894   2.960  19.533  0.00  0.00    +0.000 C 
ATOM     15  C   UNL     1       2.028   3.023  18.539  0.00  0.00    +0.000 C 
ATOM     16  O   UNL     1       2.252   2.110  17.757  0.00  0.00    +0.000 OA
ENDBRANCH   9  11
ENDBRANCH   3   5
BRANCH   2  17
ATOM     17  C   UNL     1       8.177   9.091  17.979  0.00  0.00    +0.000 A 
ATOM     18  C   UNL     1       8.917   9.106  19.148  0.00  0.00    +0.000 A 
ATOM     19  C   UNL     1       9.403  10.413  19.323  0.00  0.00    +0.000 A 
ATOM     20  C   UNL     1       8.969  11.167  18.243  0.00  0.00    +0.000 A 
ATOM     21  O   UNL     1       8.186  10.349  17.425  0.00  0.00    +0.000 OA
BRANCH  20  22
ATOM     22  C   UNL     1       9.270  12.563  18.005  0.00  0.00    +0.000 A 
ATOM     23  N   UNL     1      10.460  12.984  17.625  0.00  0.00    +0.000 NA
ATOM     24  C   UNL     1      10.475  14.371  17.523  0.00  0.00    +0.000 A 
ATOM     25  C   UNL     1      11.577  15.186  17.164  0.00  0.00    +0.000 A 
ATOM     26  C   UNL     1      11.443  16.582  17.154  0.00  0.00    +0.000 A 
ATOM     27  C   UNL     1      10.227  17.174  17.481  0.00  0.00    +0.000 A 
ATOM     28  C   UNL     1       9.121  16.388  17.814  0.00  0.00    +0.000 A 
ATOM     29  C   UNL     1       9.264  14.992  17.829  0.00  0.00    +0.000 A 
ATOM     30  S   UNL     1       8.090  13.788  18.207  0.00  0.00    +0.000 S 
ENDBRANCH  20  22
ENDBRANCH   2  17
TORSDOF 4
ENDMDL
MODEL 5
REMARK VINA RESULT:      -8.1      3.342      4.583
REMARK  Name = 
REMARK  4 active torsions:
REMARK  status: ('A' for Active; 'I' for Inactive)
REMARK    1  A    between atoms: C_2  and  C_16
REMARK    2  A    between atoms: N_3  and  C_4
REMARK    3  A    between atoms: C_8  and  N_9
REMARK    4  A    between atoms: C_19  and  C_20
REMARK                            x       y       z     vdW  Elec       q    Type
REMARK                         _______ _______ _______ _____ _____    ______ ____
ROOT
ATOM      1  O   UNL     1       1.607   8.398  18.040  0.00  0.00    +0.000 OA
ATOM      2  C   UNL     1       1.577   8.638  19.244  0.00  0.00    +0.000 C 
ATOM      3  N   UNL     1       1.898   7.690  20.219  0.00  0.00    +0.000 N 
ATOM      4  H   UNL     1       1.749   7.962  21.183  0.00  0.00    +0.000 HD
ENDROOT
BRANCH   3   5
ATOM      5  C   UNL     1       2.383   6.365  19.958  0.00  0.00    +0.000 A 
ATOM      6  C   UNL     1       1.846   5.230  20.576  0.00  0.00    +0.000 A 
ATOM      7  C   UNL     1       2.340   3.958  20.305  0.00  0.00    +0.000 A 
ATOM      8  C   UNL     1       3.389   3.789  19.409  0.00  0.00    +0.000 A 
ATOM      9  C   UNL     1       3.970   4.884  18.761  0.00  0.00    +0.000 A 
ATOM     10  C   UNL     1       3.436   6.173  19.038  0.00  0.00    +0.000 A 
BRANCH   9  11
ATOM     11  N   UNL     1       5.067   4.692  17.863  0.00  0.00    +0.000 N 
ATOM     12  C   UNL     1       4.907   4.631  16.431  0.00  0.00    +0.000 C 
ATOM     13  C   UNL     1       6.231   4.095  15.920  0.00  0.00    +0.000 C 
ATOM     14  C   UNL     1       7.238   4.609  16.926  0.00  0.00    +0.000 C 
ATOM     15  C   UNL     1       6.437   4.707  18.202  0.00  0.00    +0.000 C 
ATOM     16  O   UNL     1       6.972   4.826  19.294  0.00  0.00    +0.000 OA
ENDBRANCH   9  11
ENDBRANCH   3   5
BRANCH   2  17
ATOM     17  C   UNL     1       1.191   9.981  19.672  0.00  0.00    +0.000 A 
ATOM     18  C   UNL     1       0.644  10.323  20.897  0.00  0.00    +0.000 A 
ATOM     19  C   UNL     1       0.471  11.717  20.907  0.00  0.00    +0.000 A 
ATOM     20  C   UNL     1       0.938  12.204  19.696  0.00  0.00    +0.000 A 
ATOM     21  O   UNL     1       1.359  11.121  18.922  0.00  0.00    +0.000 OA
BRANCH  20  22
ATOM     22  C   UNL     1       0.978  13.596  19.299  0.00  0.00    +0.000 A 
ATOM     23  N   UNL     1      -0.105  14.342  19.194  0.00  0.00    +0.000 NA
ATOM     24  C   UNL     1       0.226  15.617  18.747  0.00  0.00    +0.000 A 
ATOM     25  C   UNL     1      -0.668  16.687  18.493  0.00  0.00    +0.000 A 
ATOM     26  C   UNL     1      -0.180  17.905  17.996  0.00  0.00    +0.000 A 
ATOM     27  C   UNL     1       1.181  18.074  17.763  0.00  0.00    +0.000 A 
ATOM     28  C   UNL     1       2.082  17.040  18.031  0.00  0.00    +0.000 A 
ATOM     29  C   UNL     1       1.587  15.822  18.521  0.00  0.00    +0.000 A 
ATOM     30  S   UNL     1       2.451  14.387  18.926  0.00  0.00    +0.000 S 
ENDBRANCH  20  22
ENDBRANCH   2  17
TORSDOF 4
ENDMDL
MODEL 6
REMARK VINA RESULT:      -8.1      2.572      3.164
REMARK  Name = 
REMARK  4 active torsions:
REMARK  status: ('A' for Active; 'I' for Inactive)
REMARK    1  A    between atoms: C_2  and  C_16
REMARK    2  A    between atoms: N_3  and  C_4
REMARK    3  A    between atoms: C_8  and  N_9
REMARK    4  A    between atoms: C_19  and  C_20
REMARK                            x       y       z     vdW  Elec       q    Type
REMARK                         _______ _______ _______ _____ _____    ______ ____
ROOT
ATOM      1  O   UNL     1       2.750   6.065  18.012  0.00  0.00    +0.000 OA
ATOM      2  C   UNL     1       3.271   7.177  18.016  0.00  0.00    +0.000 C 
ATOM      3  N   UNL     1       4.628   7.385  17.752  0.00  0.00    +0.000 N 
ATOM      4  H   UNL     1       4.975   8.328  17.876  0.00  0.00    +0.000 HD
ENDROOT
BRANCH   3   5
ATOM      5  C   UNL     1       5.560   6.368  17.359  0.00  0.00    +0.000 A 
ATOM      6  C   UNL     1       6.412   5.732  18.269  0.00  0.00    +0.000 A 
ATOM      7  C   UNL     1       7.309   4.752  17.856  0.00  0.00    +0.000 A 
ATOM      8  C   UNL     1       7.378   4.384  16.517  0.00  0.00    +0.000 A 
ATOM      9  C   UNL     1       6.555   4.983  15.559  0.00  0.00    +0.000 A 
ATOM     10  C   UNL     1       5.632   5.969  16.007  0.00  0.00    +0.000 A 
BRANCH   9  11
ATOM     11  N   UNL     1       6.661   4.610  14.182  0.00  0.00    +0.000 N 
ATOM     12  C   UNL     1       5.675   3.798  13.511  0.00  0.00    +0.000 C 
ATOM     13  C   UNL     1       6.340   3.385  12.212  0.00  0.00    +0.000 C 
ATOM     14  C   UNL     1       7.259   4.545  11.894  0.00  0.00    +0.000 C 
ATOM     15  C   UNL     1       7.607   5.096  13.255  0.00  0.00    +0.000 C 
ATOM     16  O   UNL     1       8.542   5.866  13.420  0.00  0.00    +0.000 OA
ENDBRANCH   9  11
ENDBRANCH   3   5
BRANCH   2  17
ATOM     17  C   UNL     1       2.428   8.334  18.309  0.00  0.00    +0.000 A 
ATOM     18  C   UNL     1       1.199   8.309  18.945  0.00  0.00    +0.000 A 
ATOM     19  C   UNL     1       0.759   9.637  19.065  0.00  0.00    +0.000 A 
ATOM     20  C   UNL     1       1.740  10.452  18.520  0.00  0.00    +0.000 A 
ATOM     21  O   UNL     1       2.762   9.638  18.028  0.00  0.00    +0.000 OA
BRANCH  20  22
ATOM     22  C   UNL     1       1.708  11.899  18.465  0.00  0.00    +0.000 A 
ATOM     23  N   UNL     1       2.721  12.621  18.027  0.00  0.00    +0.000 NA
ATOM     24  C   UNL     1       2.433  13.977  18.135  0.00  0.00    +0.000 A 
ATOM     25  C   UNL     1       3.282  15.057  17.787  0.00  0.00    +0.000 A 
ATOM     26  C   UNL     1       2.860  16.378  18.002  0.00  0.00    +0.000 A 
ATOM     27  C   UNL     1       1.605  16.636  18.542  0.00  0.00    +0.000 A 
ATOM     28  C   UNL     1       0.742  15.586  18.868  0.00  0.00    +0.000 A 
ATOM     29  C   UNL     1       1.173  14.267  18.658  0.00  0.00    +0.000 A 
ATOM     30  S   UNL     1       0.338  12.792  18.973  0.00  0.00    +0.000 S 
ENDBRANCH  20  22
ENDBRANCH   2  17
TORSDOF 4
ENDMDL
MODEL 7
REMARK VINA RESULT:      -8.1      3.100     11.907
REMARK  Name = 
REMARK  4 active torsions:
REMARK  status: ('A' for Active; 'I' for Inactive)
REMARK    1  A    between atoms: C_2  and  C_16
REMARK    2  A    between atoms: N_3  and  C_4
REMARK    3  A    between atoms: C_8  and  N_9
REMARK    4  A    between atoms: C_19  and  C_20
REMARK                            x       y       z     vdW  Elec       q    Type
REMARK                         _______ _______ _______ _____ _____    ______ ____
ROOT
ATOM      1  O   UNL     1      -0.365  10.915  19.522  0.00  0.00    +0.000 OA
ATOM      2  C   UNL     1       0.097  10.420  20.547  0.00  0.00    +0.000 C 
ATOM      3  N   UNL     1      -0.055  10.998  21.809  0.00  0.00    +0.000 N 
ATOM      4  H   UNL     1       0.445  10.561  22.573  0.00  0.00    +0.000 HD
ENDROOT
BRANCH   3   5
ATOM      5  C   UNL     1      -0.830  12.172  22.095  0.00  0.00    +0.000 A 
ATOM      6  C   UNL     1      -0.277  13.458  22.099  0.00  0.00    +0.000 A 
ATOM      7  C   UNL     1      -1.054  14.577  22.383  0.00  0.00    +0.000 A 
ATOM      8  C   UNL     1      -2.406  14.437  22.674  0.00  0.00    +0.000 A 
ATOM      9  C   UNL     1      -3.016  13.179  22.688  0.00  0.00    +0.000 A 
ATOM     10  C   UNL     1      -2.208  12.051  22.375  0.00  0.00    +0.000 A 
BRANCH   9  11
ATOM     11  N   UNL     1      -4.403  13.053  23.016  0.00  0.00    +0.000 N 
ATOM     12  C   UNL     1      -5.453  13.136  22.031  0.00  0.00    +0.000 C 
ATOM     13  C   UNL     1      -6.727  13.285  22.841  0.00  0.00    +0.000 C 
ATOM     14  C   UNL     1      -6.429  12.532  24.119  0.00  0.00    +0.000 C 
ATOM     15  C   UNL     1      -4.934  12.672  24.267  0.00  0.00    +0.000 C 
ATOM     16  O   UNL     1      -4.363  12.428  25.319  0.00  0.00    +0.000 OA
ENDBRANCH   9  11
ENDBRANCH   3   5
BRANCH   2  17
ATOM     17  C   UNL     1       0.838   9.165  20.435  0.00  0.00    +0.000 A 
ATOM     18  C   UNL     1       0.836   8.131  21.355  0.00  0.00    +0.000 A 
ATOM     19  C   UNL     1       1.639   7.102  20.835  0.00  0.00    +0.000 A 
ATOM     20  C   UNL     1       2.097   7.518  19.594  0.00  0.00    +0.000 A 
ATOM     21  O   UNL     1       1.619   8.809  19.362  0.00  0.00    +0.000 OA
BRANCH  20  22
ATOM     22  C   UNL     1       2.932   6.748  18.695  0.00  0.00    +0.000 A 
ATOM     23  N   UNL     1       3.637   7.298  17.726  0.00  0.00    +0.000 NA
ATOM     24  C   UNL     1       4.301   6.320  16.993  0.00  0.00    +0.000 A 
ATOM     25  C   UNL     1       5.134   6.522  15.865  0.00  0.00    +0.000 A 
ATOM     26  C   UNL     1       5.695   5.420  15.203  0.00  0.00    +0.000 A 
ATOM     27  C   UNL     1       5.450   4.128  15.655  0.00  0.00    +0.000 A 
ATOM     28  C   UNL     1       4.652   3.908  16.781  0.00  0.00    +0.000 A 
ATOM     29  C   UNL     1       4.087   5.014  17.435  0.00  0.00    +0.000 A 
ATOM     30  S   UNL     1       3.066   5.046  18.823  0.00  0.00    +0.000 S 
ENDBRANCH  20  22
ENDBRANCH   2  17
TORSDOF 4
ENDMDL
MODEL 8
REMARK VINA RESULT:      -8.0      2.807      3.956
REMARK  Name = 
REMARK  4 active torsions:
REMARK  status: ('A' for Active; 'I' for Inactive)
REMARK    1  A    between atoms: C_2  and  C_16
REMARK    2  A    between atoms: N_3  and  C_4
REMARK    3  A    between atoms: C_8  and  N_9
REMARK    4  A    between atoms: C_19  and  C_20
REMARK                            x       y       z     vdW  Elec       q    Type
REMARK                         _______ _______ _______ _____ _____    ______ ____
ROOT
ATOM      1  O   UNL     1       2.295   7.784  19.040  0.00  0.00    +0.000 OA
ATOM      2  C   UNL     1       1.794   7.639  20.152  0.00  0.00    +0.000 C 
ATOM      3  N   UNL     1       1.826   6.430  20.851  0.00  0.00    +0.000 N 
ATOM      4  H   UNL     1       1.301   6.392  21.716  0.00  0.00    +0.000 HD
ENDROOT
BRANCH   3   5
ATOM      5  C   UNL     1       2.509   5.243  20.423  0.00  0.00    +0.000 A 
ATOM      6  C   UNL     1       2.281   3.990  21.003  0.00  0.00    +0.000 A 
ATOM      7  C   UNL     1       2.963   2.858  20.568  0.00  0.00    +0.000 A 
ATOM      8  C   UNL     1       3.894   2.951  19.541  0.00  0.00    +0.000 A 
ATOM      9  C   UNL     1       4.167   4.175  18.921  0.00  0.00    +0.000 A 
ATOM     10  C   UNL     1       3.445   5.315  19.368  0.00  0.00    +0.000 A 
BRANCH   9  11
ATOM     11  N   UNL     1       5.149   4.255  17.883  0.00  0.00    +0.000 N 
ATOM     12  C   UNL     1       4.819   4.163  16.482  0.00  0.00    +0.000 C 
ATOM     13  C   UNL     1       6.151   3.961  15.787  0.00  0.00    +0.000 C 
ATOM     14  C   UNL     1       7.133   4.697  16.673  0.00  0.00    +0.000 C 
ATOM     15  C   UNL     1       6.509   4.595  18.044  0.00  0.00    +0.000 C 
ATOM     16  O   UNL     1       7.142   4.835  19.062  0.00  0.00    +0.000 OA
ENDBRANCH   9  11
ENDBRANCH   3   5
BRANCH   2  17
ATOM     17  C   UNL     1       1.138   8.790  20.769  0.00  0.00    +0.000 A 
ATOM     18  C   UNL     1       0.658   8.857  22.066  0.00  0.00    +0.000 A 
ATOM     19  C   UNL     1       0.149  10.152  22.260  0.00  0.00    +0.000 A 
ATOM     20  C   UNL     1       0.349  10.860  21.084  0.00  0.00    +0.000 A 
ATOM     21  O   UNL     1       0.939  10.002  20.153  0.00  0.00    +0.000 OA
BRANCH  20  22
ATOM     22  C   UNL     1       0.002  12.248  20.858  0.00  0.00    +0.000 A 
ATOM     23  N   UNL     1       0.144  12.839  19.688  0.00  0.00    +0.000 NA
ATOM     24  C   UNL     1      -0.217  14.180  19.775  0.00  0.00    +0.000 A 
ATOM     25  C   UNL     1      -0.177  15.140  18.734  0.00  0.00    +0.000 A 
ATOM     26  C   UNL     1      -0.532  16.472  18.996  0.00  0.00    +0.000 A 
ATOM     27  C   UNL     1      -0.936  16.855  20.271  0.00  0.00    +0.000 A 
ATOM     28  C   UNL     1      -1.007  15.918  21.305  0.00  0.00    +0.000 A 
ATOM     29  C   UNL     1      -0.644  14.588  21.039  0.00  0.00    +0.000 A 
ATOM     30  S   UNL     1      -0.623  13.237  22.108  0.00  0.00    +0.000 S 
ENDBRANCH  20  22
ENDBRANCH   2  17
TORSDOF 4
ENDMDL
MODEL 9
REMARK VINA RESULT:      -8.0      6.531      8.456
REMARK  Name = 
REMARK  4 active torsions:
REMARK  status: ('A' for Active; 'I' for Inactive)
REMARK    1  A    between atoms: C_2  and  C_16
REMARK    2  A    between atoms: N_3  and  C_4
REMARK    3  A    between atoms: C_8  and  N_9
REMARK    4  A    between atoms: C_19  and  C_20
REMARK                            x       y       z     vdW  Elec       q    Type
REMARK                         _______ _______ _______ _____ _____    ______ ____
ROOT
ATOM      1  O   UNL     1       6.205   8.614  16.972  0.00  0.00    +0.000 OA
ATOM      2  C   UNL     1       7.251   8.244  17.498  0.00  0.00    +0.000 C 
ATOM      3  N   UNL     1       7.631   6.902  17.579  0.00  0.00    +0.000 N 
ATOM      4  H   UNL     1       8.464   6.698  18.117  0.00  0.00    +0.000 HD
ENDROOT
BRANCH   3   5
ATOM      5  C   UNL     1       6.918   5.803  16.995  0.00  0.00    +0.000 A 
ATOM      6  C   UNL     1       7.335   5.175  15.815  0.00  0.00    +0.000 A 
ATOM      7  C   UNL     1       6.619   4.113  15.271  0.00  0.00    +0.000 A 
ATOM      8  C   UNL     1       5.465   3.652  15.893  0.00  0.00    +0.000 A 
ATOM      9  C   UNL     1       4.996   4.239  17.073  0.00  0.00    +0.000 A 
ATOM     10  C   UNL     1       5.753   5.310  17.622  0.00  0.00    +0.000 A 
BRANCH   9  11
ATOM     11  N   UNL     1       3.791   3.768  17.683  0.00  0.00    +0.000 N 
ATOM     12  C   UNL     1       3.641   2.428  18.195  0.00  0.00    +0.000 C 
ATOM     13  C   UNL     1       2.152   2.271  18.431  0.00  0.00    +0.000 C 
ATOM     14  C   UNL     1       1.693   3.673  18.773  0.00  0.00    +0.000 C 
ATOM     15  C   UNL     1       2.667   4.550  18.025  0.00  0.00    +0.000 C 
ATOM     16  O   UNL     1       2.453   5.739  17.838  0.00  0.00    +0.000 OA
ENDBRANCH   9  11
ENDBRANCH   3   5
BRANCH   2  17
ATOM     17  C   UNL     1       8.138   9.260  18.061  0.00  0.00    +0.000 A 
ATOM     18  C   UNL     1       8.975   9.099  19.152  0.00  0.00    +0.000 A 
ATOM     19  C   UNL     1       9.681  10.301  19.322  0.00  0.00    +0.000 A 
ATOM     20  C   UNL     1       9.278  11.167  18.317  0.00  0.00    +0.000 A 
ATOM     21  O   UNL     1       8.301  10.527  17.553  0.00  0.00    +0.000 OA
BRANCH  20  22
ATOM     22  C   UNL     1       9.780  12.509  18.100  0.00  0.00    +0.000 A 
ATOM     23  N   UNL     1       9.020  13.582  18.199  0.00  0.00    +0.000 NA
ATOM     24  C   UNL     1       9.751  14.724  17.888  0.00  0.00    +0.000 A 
ATOM     25  C   UNL     1       9.273  16.058  17.862  0.00  0.00    +0.000 A 
ATOM     26  C   UNL     1      10.130  17.101  17.480  0.00  0.00    +0.000 A 
ATOM     27  C   UNL     1      11.452  16.837  17.138  0.00  0.00    +0.000 A 
ATOM     28  C   UNL     1      11.949  15.532  17.181  0.00  0.00    +0.000 A 
ATOM     29  C   UNL     1      11.086  14.491  17.558  0.00  0.00    +0.000 A 
ATOM     30  S   UNL     1      11.416  12.805  17.689  0.00  0.00    +0.000 S 
ENDBRANCH  20  22
ENDBRANCH   2  17
TORSDOF 4
ENDMDL
