MODEL 1
REMARK VINA RESULT:      -8.8      0.000      0.000
REMARK  Name = 
REMARK  4 active torsions:
REMARK  status: ('A' for Active; 'I' for Inactive)
REMARK    1  A    between atoms: C_9  and  S_10
REMARK    2  A    between atoms: S_10  and  N_13
REMARK    3  A    between atoms: N_13  and  C_14
REMARK    4  A    between atoms: C_19  and  C_20
REMARK                            x       y       z     vdW  Elec       q    Type
REMARK                         _______ _______ _______ _____ _____    ______ ____
ROOT
ATOM      1  S   UNL     1       1.835   4.389  20.730  0.00  0.00    +0.000 S 
ATOM      2  O   UNL     1       0.447   4.499  20.347  0.00  0.00    +0.000 OA
ATOM      3  O   UNL     1       2.282   3.402  21.693  0.00  0.00    +0.000 OA
ENDROOT
BRANCH   1  12
ATOM      4  O   UNL     1       6.637   3.918  14.176  0.00  0.00    +0.000 OA
ATOM      5  C   UNL     1       6.221   4.188  15.302  0.00  0.00    +0.000 C 
ATOM      6  C   UNL     1       6.980   5.058  16.241  0.00  0.00    +0.000 C 
ATOM      7  C   UNL     1       7.350   4.369  17.506  0.00  0.00    +0.000 C 
ATOM      8  O   UNL     1       8.519   4.212  17.854  0.00  0.00    +0.000 OA
ATOM      9  N   UNL     1       6.345   4.031  18.361  0.00  0.00    +0.000 N 
ATOM     10  C   UNL     1       4.957   4.064  18.151  0.00  0.00    +0.000 A 
ATOM     11  C   UNL     1       4.184   4.142  19.318  0.00  0.00    +0.000 A 
ATOM     12  C   UNL     1       2.787   4.136  19.245  0.00  0.00    +0.000 A 
ATOM     13  C   UNL     1       2.146   4.022  18.013  0.00  0.00    +0.000 A 
ATOM     14  C   UNL     1       2.912   3.899  16.853  0.00  0.00    +0.000 A 
ATOM     15  C   UNL     1       4.318   3.950  16.900  0.00  0.00    +0.000 A 
ATOM     16  N   UNL     1       4.966   3.800  15.664  0.00  0.00    +0.000 N 
ATOM     17  H   UNL     1       6.692   3.795  19.286  0.00  0.00    +0.000 HD
ATOM     18  H   UNL     1       4.442   3.418  14.884  0.00  0.00    +0.000 HD
ENDBRANCH   1  12
BRANCH   1  19
ATOM     19  N   UNL     1       2.379   5.882  21.299  0.00  0.00    +0.000 N 
ATOM     20  H   UNL     1       3.391   5.914  21.408  0.00  0.00    +0.000 HD
BRANCH  19  21
ATOM     21  C   UNL     1       1.705   7.060  20.887  0.00  0.00    +0.000 A 
ATOM     22  C   UNL     1       0.809   7.675  21.751  0.00  0.00    +0.000 A 
ATOM     23  C   UNL     1       0.209   8.876  21.371  0.00  0.00    +0.000 A 
ATOM     24  C   UNL     1       0.485   9.456  20.125  0.00  0.00    +0.000 A 
ATOM     25 CL   UNL     1      -0.326  10.938  19.781  0.00  0.00    +0.000 Cl
ATOM     26  C   UNL     1       1.379   8.840  19.241  0.00  0.00    +0.000 A 
ATOM     27  C   UNL     1       1.997   7.638  19.651  0.00  0.00    +0.000 A 
BRANCH  26  28
ATOM     28  C   UNL     1       1.733   9.369  17.872  0.00  0.00    +0.000 C 
ATOM     29  F   UNL     1       0.698   9.590  17.022  0.00  0.00    +0.000 F 
ATOM     30  F   UNL     1       2.400  10.557  17.949  0.00  0.00    +0.000 F 
ATOM     31  F   UNL     1       2.572   8.522  17.209  0.00  0.00    +0.000 F 
ENDBRANCH  26  28
ENDBRANCH  19  21
ENDBRANCH   1  19
TORSDOF 4
ENDMDL
MODEL 2
REMARK VINA RESULT:      -8.8      1.599      2.090
REMARK  Name = 
REMARK  4 active torsions:
REMARK  status: ('A' for Active; 'I' for Inactive)
REMARK    1  A    between atoms: C_9  and  S_10
REMARK    2  A    between atoms: S_10  and  N_13
REMARK    3  A    between atoms: N_13  and  C_14
REMARK    4  A    between atoms: C_19  and  C_20
REMARK                            x       y       z     vdW  Elec       q    Type
REMARK                         _______ _______ _______ _____ _____    ______ ____
ROOT
ATOM      1  S   UNL     1       1.815   4.089  20.643  0.00  0.00    +0.000 S 
ATOM      2  O   UNL     1       0.431   4.196  20.245  0.00  0.00    +0.000 OA
ATOM      3  O   UNL     1       2.263   3.064  21.566  0.00  0.00    +0.000 OA
ENDROOT
BRANCH   1  12
ATOM      4  O   UNL     1       6.711   4.011  14.143  0.00  0.00    +0.000 OA
ATOM      5  C   UNL     1       6.273   4.225  15.272  0.00  0.00    +0.000 C 
ATOM      6  C   UNL     1       6.994   5.080  16.254  0.00  0.00    +0.000 C 
ATOM      7  C   UNL     1       7.368   4.355  17.497  0.00  0.00    +0.000 C 
ATOM      8  O   UNL     1       8.537   4.219  17.855  0.00  0.00    +0.000 OA
ATOM      9  N   UNL     1       6.363   3.954  18.325  0.00  0.00    +0.000 N 
ATOM     10  C   UNL     1       4.977   3.954  18.097  0.00  0.00    +0.000 A 
ATOM     11  C   UNL     1       4.187   3.965  19.255  0.00  0.00    +0.000 A 
ATOM     12  C   UNL     1       2.792   3.921  19.163  0.00  0.00    +0.000 A 
ATOM     13  C   UNL     1       2.171   3.835  17.919  0.00  0.00    +0.000 A 
ATOM     14  C   UNL     1       2.955   3.780  16.765  0.00  0.00    +0.000 A 
ATOM     15  C   UNL     1       4.357   3.870  16.834  0.00  0.00    +0.000 A 
ATOM     16  N   UNL     1       5.025   3.787  15.602  0.00  0.00    +0.000 N 
ATOM     17  H   UNL     1       6.705   3.694  19.245  0.00  0.00    +0.000 HD
ATOM     18  H   UNL     1       4.523   3.420  14.801  0.00  0.00    +0.000 HD
ENDBRANCH   1  12
BRANCH   1  19
ATOM     19  N   UNL     1       2.326   5.561  21.291  0.00  0.00    +0.000 N 
ATOM     20  H   UNL     1       3.225   5.489  21.764  0.00  0.00    +0.000 HD
BRANCH  19  21
ATOM     21  C   UNL     1       2.023   6.759  20.595  0.00  0.00    +0.000 A 
ATOM     22  C   UNL     1       2.491   6.936  19.300  0.00  0.00    +0.000 A 
ATOM     23  C   UNL     1       2.125   8.082  18.592  0.00  0.00    +0.000 A 
ATOM     24  C   UNL     1       1.308   9.059  19.178  0.00  0.00    +0.000 A 
ATOM     25 CL   UNL     1       0.933  10.425  18.195  0.00  0.00    +0.000 Cl
ATOM     26  C   UNL     1       0.838   8.896  20.487  0.00  0.00    +0.000 A 
ATOM     27  C   UNL     1       1.198   7.720  21.181  0.00  0.00    +0.000 A 
BRANCH  26  28
ATOM     28  C   UNL     1      -0.030   9.893  21.216  0.00  0.00    +0.000 C 
ATOM     29  F   UNL     1      -1.154  10.302  20.574  0.00  0.00    +0.000 F 
ATOM     30  F   UNL     1      -0.454   9.407  22.418  0.00  0.00    +0.000 F 
ATOM     31  F   UNL     1       0.656  11.036  21.507  0.00  0.00    +0.000 F 
ENDBRANCH  26  28
ENDBRANCH  19  21
ENDBRANCH   1  19
TORSDOF 4
ENDMDL
MODEL 3
REMARK VINA RESULT:      -8.6      3.444      6.421
REMARK  Name = 
REMARK  4 active torsions:
REMARK  status: ('A' for Active; 'I' for Inactive)
REMARK    1  A    between atoms: C_9  and  S_10
REMARK    2  A    between atoms: S_10  and  N_13
REMARK    3  A    between atoms: N_13  and  C_14
REMARK    4  A    between atoms: C_19  and  C_20
REMARK                            x       y       z     vdW  Elec       q    Type
REMARK                         _______ _______ _______ _____ _____    ______ ____
ROOT
ATOM      1  S   UNL     1       2.297   3.144  19.559  0.00  0.00    +0.000 S 
ATOM      2  O   UNL     1       2.151   2.872  20.970  0.00  0.00    +0.000 OA
ATOM      3  O   UNL     1       1.417   2.546  18.574  0.00  0.00    +0.000 OA
ENDROOT
BRANCH   1  12
ATOM      4  O   UNL     1       1.193  11.191  19.046  0.00  0.00    +0.000 OA
ATOM      5  C   UNL     1       1.151  10.030  19.451  0.00  0.00    +0.000 C 
ATOM      6  C   UNL     1       0.357   9.634  20.645  0.00  0.00    +0.000 C 
ATOM      7  C   UNL     1       1.187   9.048  21.731  0.00  0.00    +0.000 C 
ATOM      8  O   UNL     1       1.262   9.553  22.850  0.00  0.00    +0.000 OA
ATOM      9  N   UNL     1       1.767   7.837  21.502  0.00  0.00    +0.000 N 
ATOM     10  C   UNL     1       1.860   7.113  20.302  0.00  0.00    +0.000 A 
ATOM     11  C   UNL     1       2.052   5.733  20.456  0.00  0.00    +0.000 A 
ATOM     12  C   UNL     1       2.206   4.909  19.336  0.00  0.00    +0.000 A 
ATOM     13  C   UNL     1       2.199   5.454  18.054  0.00  0.00    +0.000 A 
ATOM     14  C   UNL     1       2.052   6.833  17.898  0.00  0.00    +0.000 A 
ATOM     15  C   UNL     1       1.850   7.674  19.008  0.00  0.00    +0.000 A 
ATOM     16  N   UNL     1       1.730   9.041  18.713  0.00  0.00    +0.000 N 
ATOM     17  H   UNL     1       2.102   7.405  22.358  0.00  0.00    +0.000 HD
ATOM     18  H   UNL     1       2.043   9.372  17.807  0.00  0.00    +0.000 HD
ENDBRANCH   1  12
BRANCH   1  19
ATOM     19  N   UNL     1       3.869   2.764  19.077  0.00  0.00    +0.000 N 
ATOM     20  H   UNL     1       3.932   1.848  18.637  0.00  0.00    +0.000 HD
BRANCH  19  21
ATOM     21  C   UNL     1       4.711   3.802  18.603  0.00  0.00    +0.000 A 
ATOM     22  C   UNL     1       5.458   4.546  19.506  0.00  0.00    +0.000 A 
ATOM     23  C   UNL     1       6.342   5.514  19.028  0.00  0.00    +0.000 A 
ATOM     24  C   UNL     1       6.471   5.753  17.653  0.00  0.00    +0.000 A 
ATOM     25 CL   UNL     1       7.598   6.977  17.198  0.00  0.00    +0.000 Cl
ATOM     26  C   UNL     1       5.716   5.017  16.732  0.00  0.00    +0.000 A 
ATOM     27  C   UNL     1       4.844   4.025  17.232  0.00  0.00    +0.000 A 
BRANCH  26  28
ATOM     28  C   UNL     1       5.766   5.207  15.235  0.00  0.00    +0.000 C 
ATOM     29  F   UNL     1       6.998   5.211  14.666  0.00  0.00    +0.000 F 
ATOM     30  F   UNL     1       5.066   4.236  14.581  0.00  0.00    +0.000 F 
ATOM     31  F   UNL     1       5.191   6.386  14.861  0.00  0.00    +0.000 F 
ENDBRANCH  26  28
ENDBRANCH  19  21
ENDBRANCH   1  19
TORSDOF 4
ENDMDL
MODEL 4
REMARK VINA RESULT:      -8.5      3.812      6.683
REMARK  Name = 
REMARK  4 active torsions:
REMARK  status: ('A' for Active; 'I' for Inactive)
REMARK    1  A    between atoms: C_9  and  S_10
REMARK    2  A    between atoms: S_10  and  N_13
REMARK    3  A    between atoms: N_13  and  C_14
REMARK    4  A    between atoms: C_19  and  C_20
REMARK                            x       y       z     vdW  Elec       q    Type
REMARK                         _______ _______ _______ _____ _____    ______ ____
ROOT
ATOM      1  S   UNL     1       1.847   3.303  19.738  0.00  0.00    +0.000 S 
ATOM      2  O   UNL     1       1.282   3.107  21.052  0.00  0.00    +0.000 OA
ATOM      3  O   UNL     1       1.247   2.717  18.556  0.00  0.00    +0.000 OA
ENDROOT
BRANCH   1  12
ATOM      4  O   UNL     1       1.597  11.391  18.865  0.00  0.00    +0.000 OA
ATOM      5  C   UNL     1       1.401  10.257  19.299  0.00  0.00    +0.000 C 
ATOM      6  C   UNL     1       0.457   9.988  20.417  0.00  0.00    +0.000 C 
ATOM      7  C   UNL     1       1.113   9.369  21.600  0.00  0.00    +0.000 C 
ATOM      8  O   UNL     1       1.125   9.910  22.705  0.00  0.00    +0.000 OA
ATOM      9  N   UNL     1       1.590   8.101  21.470  0.00  0.00    +0.000 N 
ATOM     10  C   UNL     1       1.731   7.324  20.309  0.00  0.00    +0.000 A 
ATOM     11  C   UNL     1       1.770   5.939  20.524  0.00  0.00    +0.000 A 
ATOM     12  C   UNL     1       1.953   5.059  19.452  0.00  0.00    +0.000 A 
ATOM     13  C   UNL     1       2.128   5.550  18.160  0.00  0.00    +0.000 A 
ATOM     14  C   UNL     1       2.134   6.929  17.947  0.00  0.00    +0.000 A 
ATOM     15  C   UNL     1       1.905   7.829  19.004  0.00  0.00    +0.000 A 
ATOM     16  N   UNL     1       1.951   9.188  18.656  0.00  0.00    +0.000 N 
ATOM     17  H   UNL     1       1.794   7.674  22.368  0.00  0.00    +0.000 HD
ATOM     18  H   UNL     1       2.384   9.451  17.777  0.00  0.00    +0.000 HD
ENDBRANCH   1  12
BRANCH   1  19
ATOM     19  N   UNL     1       3.460   2.805  19.743  0.00  0.00    +0.000 N 
ATOM     20  H   UNL     1       3.567   1.832  20.022  0.00  0.00    +0.000 HD
BRANCH  19  21
ATOM     21  C   UNL     1       4.343   3.329  18.765  0.00  0.00    +0.000 A 
ATOM     22  C   UNL     1       4.092   3.096  17.419  0.00  0.00    +0.000 A 
ATOM     23  C   UNL     1       4.920   3.678  16.459  0.00  0.00    +0.000 A 
ATOM     24  C   UNL     1       6.007   4.478  16.836  0.00  0.00    +0.000 A 
ATOM     25 CL   UNL     1       6.950   5.135  15.550  0.00  0.00    +0.000 Cl
ATOM     26  C   UNL     1       6.277   4.713  18.190  0.00  0.00    +0.000 A 
ATOM     27  C   UNL     1       5.415   4.136  19.149  0.00  0.00    +0.000 A 
BRANCH  26  28
ATOM     28  C   UNL     1       7.429   5.542  18.704  0.00  0.00    +0.000 C 
ATOM     29  F   UNL     1       7.622   6.746  18.108  0.00  0.00    +0.000 F 
ATOM     30  F   UNL     1       7.301   5.811  20.035  0.00  0.00    +0.000 F 
ATOM     31  F   UNL     1       8.617   4.882  18.578  0.00  0.00    +0.000 F 
ENDBRANCH  26  28
ENDBRANCH  19  21
ENDBRANCH   1  19
TORSDOF 4
ENDMDL
MODEL 5
REMARK VINA RESULT:      -8.3      3.152      4.338
REMARK  Name = 
REMARK  4 active torsions:
REMARK  status: ('A' for Active; 'I' for Inactive)
REMARK    1  A    between atoms: C_9  and  S_10
REMARK    2  A    between atoms: S_10  and  N_13
REMARK    3  A    between atoms: N_13  and  C_14
REMARK    4  A    between atoms: C_19  and  C_20
REMARK                            x       y       z     vdW  Elec       q    Type
REMARK                         _______ _______ _______ _____ _____    ______ ____
ROOT
ATOM      1  S   UNL     1       0.841   9.087  21.378  0.00  0.00    +0.000 S 
ATOM      2  O   UNL     1      -0.479   8.571  21.657  0.00  0.00    +0.000 OA
ATOM      3  O   UNL     1       1.805   9.323  22.435  0.00  0.00    +0.000 OA
ENDROOT
BRANCH   1  12
ATOM      4  O   UNL     1       4.907   3.865  16.642  0.00  0.00    +0.000 OA
ATOM      5  C   UNL     1       4.451   4.428  17.636  0.00  0.00    +0.000 C 
ATOM      6  C   UNL     1       4.835   4.032  19.018  0.00  0.00    +0.000 C 
ATOM      7  C   UNL     1       3.680   3.576  19.838  0.00  0.00    +0.000 C 
ATOM      8  O   UNL     1       3.615   2.443  20.311  0.00  0.00    +0.000 OA
ATOM      9  N   UNL     1       2.741   4.501  20.179  0.00  0.00    +0.000 N 
ATOM     10  C   UNL     1       2.586   5.817  19.715  0.00  0.00    +0.000 A 
ATOM     11  C   UNL     1       1.874   6.667  20.573  0.00  0.00    +0.000 A 
ATOM     12  C   UNL     1       1.613   7.991  20.204  0.00  0.00    +0.000 A 
ATOM     13  C   UNL     1       2.031   8.473  18.966  0.00  0.00    +0.000 A 
ATOM     14  C   UNL     1       2.701   7.617  18.090  0.00  0.00    +0.000 A 
ATOM     15  C   UNL     1       3.014   6.296  18.460  0.00  0.00    +0.000 A 
ATOM     16  N   UNL     1       3.676   5.539  17.482  0.00  0.00    +0.000 N 
ATOM     17  H   UNL     1       2.134   4.173  20.924  0.00  0.00    +0.000 HD
ATOM     18  H   UNL     1       3.661   5.865  16.521  0.00  0.00    +0.000 HD
ENDBRANCH   1  12
BRANCH   1  19
ATOM     19  N   UNL     1       0.706  10.541  20.532  0.00  0.00    +0.000 N 
ATOM     20  H   UNL     1       1.560  10.784  20.033  0.00  0.00    +0.000 HD
BRANCH  19  21
ATOM     21  C   UNL     1      -0.540  10.880  19.945  0.00  0.00    +0.000 A 
ATOM     22  C   UNL     1      -1.385  11.769  20.596  0.00  0.00    +0.000 A 
ATOM     23  C   UNL     1      -2.573  12.159  19.977  0.00  0.00    +0.000 A 
ATOM     24  C   UNL     1      -2.930  11.652  18.720  0.00  0.00    +0.000 A 
ATOM     25 CL   UNL     1      -4.425  12.214  18.070  0.00  0.00    +0.000 Cl
ATOM     26  C   UNL     1      -2.091  10.747  18.058  0.00  0.00    +0.000 A 
ATOM     27  C   UNL     1      -0.880  10.382  18.687  0.00  0.00    +0.000 A 
BRANCH  26  28
ATOM     28  C   UNL     1      -2.388  10.129  16.713  0.00  0.00    +0.000 C 
ATOM     29  F   UNL     1      -2.538  10.986  15.672  0.00  0.00    +0.000 F 
ATOM     30  F   UNL     1      -1.408   9.261  16.331  0.00  0.00    +0.000 F 
ATOM     31  F   UNL     1      -3.536   9.391  16.743  0.00  0.00    +0.000 F 
ENDBRANCH  26  28
ENDBRANCH  19  21
ENDBRANCH   1  19
TORSDOF 4
ENDMDL
MODEL 6
REMARK VINA RESULT:      -8.2      0.920      1.177
REMARK  Name = 
REMARK  4 active torsions:
REMARK  status: ('A' for Active; 'I' for Inactive)
REMARK    1  A    between atoms: C_9  and  S_10
REMARK    2  A    between atoms: S_10  and  N_13
REMARK    3  A    between atoms: N_13  and  C_14
REMARK    4  A    between atoms: C_19  and  C_20
REMARK                            x       y       z     vdW  Elec       q    Type
REMARK                         _______ _______ _______ _____ _____    ______ ____
ROOT
ATOM      1  S   UNL     1       1.908   4.484  20.813  0.00  0.00    +0.000 S 
ATOM      2  O   UNL     1       0.555   4.569  20.315  0.00  0.00    +0.000 OA
ATOM      3  O   UNL     1       2.270   3.567  21.876  0.00  0.00    +0.000 OA
ENDROOT
BRANCH   1  12
ATOM      4  O   UNL     1       6.663   3.651  14.261  0.00  0.00    +0.000 OA
ATOM      5  C   UNL     1       6.045   4.152  15.198  0.00  0.00    +0.000 C 
ATOM      6  C   UNL     1       5.981   5.623  15.411  0.00  0.00    +0.000 C 
ATOM      7  C   UNL     1       6.552   6.051  16.716  0.00  0.00    +0.000 C 
ATOM      8  O   UNL     1       7.514   6.813  16.797  0.00  0.00    +0.000 OA
ATOM      9  N   UNL     1       5.888   5.686  17.848  0.00  0.00    +0.000 N 
ATOM     10  C   UNL     1       4.819   4.788  17.996  0.00  0.00    +0.000 A 
ATOM     11  C   UNL     1       4.039   4.981  19.145  0.00  0.00    +0.000 A 
ATOM     12  C   UNL     1       2.971   4.123  19.429  0.00  0.00    +0.000 A 
ATOM     13  C   UNL     1       2.688   3.048  18.590  0.00  0.00    +0.000 A 
ATOM     14  C   UNL     1       3.489   2.826  17.469  0.00  0.00    +0.000 A 
ATOM     15  C   UNL     1       4.539   3.704  17.139  0.00  0.00    +0.000 A 
ATOM     16  N   UNL     1       5.274   3.358  15.995  0.00  0.00    +0.000 N 
ATOM     17  H   UNL     1       6.198   6.212  18.660  0.00  0.00    +0.000 HD
ATOM     18  H   UNL     1       5.198   2.413  15.635  0.00  0.00    +0.000 HD
ENDBRANCH   1  12
BRANCH   1  19
ATOM     19  N   UNL     1       2.417   6.012  21.316  0.00  0.00    +0.000 N 
ATOM     20  H   UNL     1       3.432   6.087  21.371  0.00  0.00    +0.000 HD
BRANCH  19  21
ATOM     21  C   UNL     1       1.676   7.150  20.909  0.00  0.00    +0.000 A 
ATOM     22  C   UNL     1       0.739   7.702  21.772  0.00  0.00    +0.000 A 
ATOM     23  C   UNL     1       0.068   8.867  21.398  0.00  0.00    +0.000 A 
ATOM     24  C   UNL     1       0.317   9.474  20.159  0.00  0.00    +0.000 A 
ATOM     25 CL   UNL     1      -0.580  10.908  19.821  0.00  0.00    +0.000 Cl
ATOM     26  C   UNL     1       1.253   8.922  19.276  0.00  0.00    +0.000 A 
ATOM     27  C   UNL     1       1.940   7.756  19.680  0.00  0.00    +0.000 A 
BRANCH  26  28
ATOM     28  C   UNL     1       1.583   9.484  17.914  0.00  0.00    +0.000 C 
ATOM     29  F   UNL     1       2.453   8.768  17.158  0.00  0.00    +0.000 F 
ATOM     30  F   UNL     1       0.465   9.628  17.146  0.00  0.00    +0.000 F 
ATOM     31  F   UNL     1       2.125  10.733  18.006  0.00  0.00    +0.000 F 
ENDBRANCH  26  28
ENDBRANCH  19  21
ENDBRANCH   1  19
TORSDOF 4
ENDMDL
MODEL 7
REMARK VINA RESULT:      -8.1      0.977      1.041
REMARK  Name = 
REMARK  4 active torsions:
REMARK  status: ('A' for Active; 'I' for Inactive)
REMARK    1  A    between atoms: C_9  and  S_10
REMARK    2  A    between atoms: S_10  and  N_13
REMARK    3  A    between atoms: N_13  and  C_14
REMARK    4  A    between atoms: C_19  and  C_20
REMARK                            x       y       z     vdW  Elec       q    Type
REMARK                         _______ _______ _______ _____ _____    ______ ____
ROOT
ATOM      1  S   UNL     1       1.777   4.416  20.689  0.00  0.00    +0.000 S 
ATOM      2  O   UNL     1       0.536   4.533  19.960  0.00  0.00    +0.000 OA
ATOM      3  O   UNL     1       1.986   3.371  21.672  0.00  0.00    +0.000 OA
ENDROOT
BRANCH   1  12
ATOM      4  O   UNL     1       7.839   4.645  15.264  0.00  0.00    +0.000 OA
ATOM      5  C   UNL     1       7.074   4.961  16.173  0.00  0.00    +0.000 C 
ATOM      6  C   UNL     1       7.124   6.298  16.824  0.00  0.00    +0.000 C 
ATOM      7  C   UNL     1       7.410   6.228  18.282  0.00  0.00    +0.000 C 
ATOM      8  O   UNL     1       8.403   6.752  18.785  0.00  0.00    +0.000 OA
ATOM      9  N   UNL     1       6.459   5.681  19.089  0.00  0.00    +0.000 N 
ATOM     10  C   UNL     1       5.293   4.984  18.734  0.00  0.00    +0.000 A 
ATOM     11  C   UNL     1       4.287   4.978  19.711  0.00  0.00    +0.000 A 
ATOM     12  C   UNL     1       3.094   4.280  19.496  0.00  0.00    +0.000 A 
ATOM     13  C   UNL     1       2.903   3.556  18.321  0.00  0.00    +0.000 A 
ATOM     14  C   UNL     1       3.919   3.523  17.365  0.00  0.00    +0.000 A 
ATOM     15  C   UNL     1       5.108   4.256  17.541  0.00  0.00    +0.000 A 
ATOM     16  N   UNL     1       6.053   4.124  16.512  0.00  0.00    +0.000 N 
ATOM     17  H   UNL     1       6.622   5.891  20.069  0.00  0.00    +0.000 HD
ATOM     18  H   UNL     1       5.960   3.350  15.863  0.00  0.00    +0.000 HD
ENDBRANCH   1  12
BRANCH   1  19
ATOM     19  N   UNL     1       2.104   5.874  21.475  0.00  0.00    +0.000 N 
ATOM     20  H   UNL     1       3.057   5.920  21.832  0.00  0.00    +0.000 HD
BRANCH  19  21
ATOM     21  C   UNL     1       1.505   7.063  20.990  0.00  0.00    +0.000 A 
ATOM     22  C   UNL     1       0.564   7.724  21.770  0.00  0.00    +0.000 A 
ATOM     23  C   UNL     1       0.035   8.935  21.322  0.00  0.00    +0.000 A 
ATOM     24  C   UNL     1       0.428   9.481  20.093  0.00  0.00    +0.000 A 
ATOM     25 CL   UNL     1      -0.303  10.981  19.659  0.00  0.00    +0.000 Cl
ATOM     26  C   UNL     1       1.369   8.820  19.293  0.00  0.00    +0.000 A 
ATOM     27  C   UNL     1       1.912   7.607  19.772  0.00  0.00    +0.000 A 
BRANCH  26  28
ATOM     28  C   UNL     1       1.846   9.311  17.947  0.00  0.00    +0.000 C 
ATOM     29  F   UNL     1       0.904   9.433  16.978  0.00  0.00    +0.000 F 
ATOM     30  F   UNL     1       2.435  10.538  18.040  0.00  0.00    +0.000 F 
ATOM     31  F   UNL     1       2.800   8.488  17.424  0.00  0.00    +0.000 F 
ENDBRANCH  26  28
ENDBRANCH  19  21
ENDBRANCH   1  19
TORSDOF 4
ENDMDL
MODEL 8
REMARK VINA RESULT:      -8.1      3.561      6.813
REMARK  Name = 
REMARK  4 active torsions:
REMARK  status: ('A' for Active; 'I' for Inactive)
REMARK    1  A    between atoms: C_9  and  S_10
REMARK    2  A    between atoms: S_10  and  N_13
REMARK    3  A    between atoms: N_13  and  C_14
REMARK    4  A    between atoms: C_19  and  C_20
REMARK                            x       y       z     vdW  Elec       q    Type
REMARK                         _______ _______ _______ _____ _____    ______ ____
ROOT
ATOM      1  S   UNL     1       2.444   3.800  19.722  0.00  0.00    +0.000 S 
ATOM      2  O   UNL     1       1.962   3.453  21.039  0.00  0.00    +0.000 OA
ATOM      3  O   UNL     1       1.905   3.181  18.527  0.00  0.00    +0.000 OA
ENDROOT
BRANCH   1  12
ATOM      4  O   UNL     1       0.865  11.770  19.257  0.00  0.00    +0.000 OA
ATOM      5  C   UNL     1       0.860  10.599  19.633  0.00  0.00    +0.000 C 
ATOM      6  C   UNL     1      -0.019  10.123  20.735  0.00  0.00    +0.000 C 
ATOM      7  C   UNL     1       0.738   9.563  21.886  0.00  0.00    +0.000 C 
ATOM      8  O   UNL     1       0.669  10.043  23.017  0.00  0.00    +0.000 OA
ATOM      9  N   UNL     1       1.416   8.398  21.693  0.00  0.00    +0.000 N 
ATOM     10  C   UNL     1       1.674   7.713  20.495  0.00  0.00    +0.000 A 
ATOM     11  C   UNL     1       1.942   6.345  20.640  0.00  0.00    +0.000 A 
ATOM     12  C   UNL     1       2.259   5.562  19.525  0.00  0.00    +0.000 A 
ATOM     13  C   UNL     1       2.341   6.138  18.260  0.00  0.00    +0.000 A 
ATOM     14  C   UNL     1       2.119   7.508  18.116  0.00  0.00    +0.000 A 
ATOM     15  C   UNL     1       1.754   8.305  19.217  0.00  0.00    +0.000 A 
ATOM     16  N   UNL     1       1.574   9.669  18.938  0.00  0.00    +0.000 N 
ATOM     17  H   UNL     1       1.694   7.966  22.569  0.00  0.00    +0.000 HD
ATOM     18  H   UNL     1       1.951  10.042  18.074  0.00  0.00    +0.000 HD
ENDBRANCH   1  12
BRANCH   1  19
ATOM     19  N   UNL     1       4.115   3.569  19.659  0.00  0.00    +0.000 N 
ATOM     20  H   UNL     1       4.409   2.714  20.130  0.00  0.00    +0.000 HD
BRANCH  19  21
ATOM     21  C   UNL     1       4.822   3.981  18.502  0.00  0.00    +0.000 A 
ATOM     22  C   UNL     1       4.630   3.304  17.304  0.00  0.00    +0.000 A 
ATOM     23  C   UNL     1       5.268   3.762  16.151  0.00  0.00    +0.000 A 
ATOM     24  C   UNL     1       6.111   4.881  16.192  0.00  0.00    +0.000 A 
ATOM     25 CL   UNL     1       6.838   5.339  14.696  0.00  0.00    +0.000 Cl
ATOM     26  C   UNL     1       6.321   5.566  17.395  0.00  0.00    +0.000 A 
ATOM     27  C   UNL     1       5.648   5.104  18.548  0.00  0.00    +0.000 A 
BRANCH  26  28
ATOM     28  C   UNL     1       7.220   6.769  17.551  0.00  0.00    +0.000 C 
ATOM     29  F   UNL     1       8.092   7.008  16.539  0.00  0.00    +0.000 F 
ATOM     30  F   UNL     1       6.501   7.919  17.693  0.00  0.00    +0.000 F 
ATOM     31  F   UNL     1       7.987   6.677  18.676  0.00  0.00    +0.000 F 
ENDBRANCH  26  28
ENDBRANCH  19  21
ENDBRANCH   1  19
TORSDOF 4
ENDMDL
MODEL 9
REMARK VINA RESULT:      -7.8      3.793      7.108
REMARK  Name = 
REMARK  4 active torsions:
REMARK  status: ('A' for Active; 'I' for Inactive)
REMARK    1  A    between atoms: C_9  and  S_10
REMARK    2  A    between atoms: S_10  and  N_13
REMARK    3  A    between atoms: N_13  and  C_14
REMARK    4  A    between atoms: C_19  and  C_20
REMARK                            x       y       z     vdW  Elec       q    Type
REMARK                         _______ _______ _______ _____ _____    ______ ____
ROOT
ATOM      1  S   UNL     1       2.129   4.677  19.720  0.00  0.00    +0.000 S 
ATOM      2  O   UNL     1       1.471   4.322  20.956  0.00  0.00    +0.000 OA
ATOM      3  O   UNL     1       1.749   4.076  18.456  0.00  0.00    +0.000 OA
ENDROOT
BRANCH   1  12
ATOM      4  O   UNL     1       0.702  12.669  19.139  0.00  0.00    +0.000 OA
ATOM      5  C   UNL     1       0.636  11.494  19.498  0.00  0.00    +0.000 C 
ATOM      6  C   UNL     1      -0.386  11.017  20.467  0.00  0.00    +0.000 C 
ATOM      7  C   UNL     1       0.206  10.437  21.703  0.00  0.00    +0.000 C 
ATOM      8  O   UNL     1      -0.008  10.906  22.819  0.00  0.00    +0.000 OA
ATOM      9  N   UNL     1       0.892   9.266  21.588  0.00  0.00    +0.000 N 
ATOM     10  C   UNL     1       1.300   8.591  20.427  0.00  0.00    +0.000 A 
ATOM     11  C   UNL     1       1.533   7.218  20.591  0.00  0.00    +0.000 A 
ATOM     12  C   UNL     1       1.988   6.442  19.520  0.00  0.00    +0.000 A 
ATOM     13  C   UNL     1       2.244   7.030  18.283  0.00  0.00    +0.000 A 
ATOM     14  C   UNL     1       2.056   8.404  18.127  0.00  0.00    +0.000 A 
ATOM     15  C   UNL     1       1.555   9.194  19.178  0.00  0.00    +0.000 A 
ATOM     16  N   UNL     1       1.427  10.562  18.893  0.00  0.00    +0.000 N 
ATOM     17  H   UNL     1       1.047   8.823  22.489  0.00  0.00    +0.000 HD
ATOM     18  H   UNL     1       1.920  10.940  18.091  0.00  0.00    +0.000 HD
ENDBRANCH   1  12
BRANCH   1  19
ATOM     19  N   UNL     1       3.791   4.428  19.879  0.00  0.00    +0.000 N 
ATOM     20  H   UNL     1       4.013   3.701  20.556  0.00  0.00    +0.000 HD
BRANCH  19  21
ATOM     21  C   UNL     1       4.618   4.563  18.736  0.00  0.00    +0.000 A 
ATOM     22  C   UNL     1       4.466   3.684  17.671  0.00  0.00    +0.000 A 
ATOM     23  C   UNL     1       5.228   3.869  16.518  0.00  0.00    +0.000 A 
ATOM     24  C   UNL     1       6.154   4.918  16.428  0.00  0.00    +0.000 A 
ATOM     25 CL   UNL     1       7.031   5.032  14.948  0.00  0.00    +0.000 Cl
ATOM     26  C   UNL     1       6.323   5.806  17.498  0.00  0.00    +0.000 A 
ATOM     27  C   UNL     1       5.527   5.619  18.649  0.00  0.00    +0.000 A 
BRANCH  26  28
ATOM     28  C   UNL     1       7.302   6.955  17.511  0.00  0.00    +0.000 C 
ATOM     29  F   UNL     1       6.776   8.198  17.653  0.00  0.00    +0.000 F 
ATOM     30  F   UNL     1       8.213   6.828  18.519  0.00  0.00    +0.000 F 
ATOM     31  F   UNL     1       8.036   7.001  16.361  0.00  0.00    +0.000 F 
ENDBRANCH  26  28
ENDBRANCH  19  21
ENDBRANCH   1  19
TORSDOF 4
ENDMDL
