MODEL 1
REMARK VINA RESULT:      -8.8      0.000      0.000
REMARK  Name = 
REMARK  2 active torsions:
REMARK  status: ('A' for Active; 'I' for Inactive)
REMARK    1  A    between atoms: C_8  and  N_9
REMARK    2  A    between atoms: C_18  and  C_19
REMARK                            x       y       z     vdW  Elec       q    Type
REMARK                         _______ _______ _______ _____ _____    ______ ____
ROOT
ATOM      1  N   UNL     1       1.959   6.819  19.593  0.00  0.00    +0.000 N 
ATOM      2  C   UNL     1       2.971   6.468  18.730  0.00  0.00    +0.000 C 
ATOM      3  O   UNL     1       3.649   7.255  18.078  0.00  0.00    +0.000 OA
ATOM      4  N   UNL     1       3.131   5.109  18.630  0.00  0.00    +0.000 N 
ATOM      5  C   UNL     1       2.401   3.989  19.219  0.00  0.00    +0.000 C 
ATOM      6  C   UNL     1       3.248   3.142  18.299  0.00  0.00    +0.000 C 
ATOM      7  C   UNL     1       4.385   2.361  18.928  0.00  0.00    +0.000 C 
ATOM      8  C   UNL     1       3.456   1.126  18.846  0.00  0.00    +0.000 C 
ATOM      9  C   UNL     1       2.644   1.874  17.752  0.00  0.00    +0.000 C 
ATOM     10  C   UNL     1       3.492   4.344  17.416  0.00  0.00    +0.000 C 
ATOM     11  H   UNL     1       1.292   6.091  19.790  0.00  0.00    +0.000 HD
ENDROOT
BRANCH   1  19
ATOM     12  O   UNL     1      -1.984  12.971  20.799  0.00  0.00    +0.000 OA
ATOM     13  C   UNL     1      -1.198  12.181  21.334  0.00  0.00    +0.000 C 
ATOM     14  C   UNL     1      -1.480  11.686  22.734  0.00  0.00    +0.000 C 
ATOM     15  C   UNL     1      -1.095  10.270  23.106  0.00  0.00    +0.000 C 
ATOM     16  C   UNL     1       0.400  10.055  23.001  0.00  0.00    +0.000 C 
ATOM     17  C   UNL     1       0.768   9.753  21.579  0.00  0.00    +0.000 A 
ATOM     18  C   UNL     1       1.272   8.473  21.278  0.00  0.00    +0.000 A 
ATOM     19  C   UNL     1       1.591   8.119  19.968  0.00  0.00    +0.000 A 
ATOM     20  C   UNL     1       1.489   9.070  18.958  0.00  0.00    +0.000 A 
ATOM     21  C   UNL     1       1.039  10.354  19.254  0.00  0.00    +0.000 A 
ATOM     22  C   UNL     1       0.609  10.680  20.547  0.00  0.00    +0.000 A 
ATOM     23  N   UNL     1      -0.043  11.920  20.662  0.00  0.00    +0.000 N 
ATOM     24  H   UNL     1      -0.040  12.474  19.813  0.00  0.00    +0.000 HD
ENDBRANCH   1  19
BRANCH  10  25
ATOM     25  C   UNL     1       4.877   4.606  16.712  0.00  0.00    +0.000 A 
ATOM     26  C   UNL     1       4.993   4.558  15.306  0.00  0.00    +0.000 A 
ATOM     27  C   UNL     1       6.205   4.768  14.646  0.00  0.00    +0.000 A 
ATOM     28  C   UNL     1       7.358   5.031  15.381  0.00  0.00    +0.000 A 
ATOM     29  C   UNL     1       7.283   5.099  16.766  0.00  0.00    +0.000 A 
ATOM     30  C   UNL     1       6.064   4.908  17.416  0.00  0.00    +0.000 A 
ENDBRANCH  10  25
TORSDOF 2
ENDMDL
MODEL 2
REMARK VINA RESULT:      -8.7      1.455      3.742
REMARK  Name = 
REMARK  2 active torsions:
REMARK  status: ('A' for Active; 'I' for Inactive)
REMARK    1  A    between atoms: C_8  and  N_9
REMARK    2  A    between atoms: C_18  and  C_19
REMARK                            x       y       z     vdW  Elec       q    Type
REMARK                         _______ _______ _______ _____ _____    ______ ____
ROOT
ATOM      1  N   UNL     1       2.496   8.218  18.397  0.00  0.00    +0.000 N 
ATOM      2  C   UNL     1       2.728   6.869  18.528  0.00  0.00    +0.000 C 
ATOM      3  O   UNL     1       2.115   6.116  19.278  0.00  0.00    +0.000 OA
ATOM      4  N   UNL     1       3.769   6.435  17.748  0.00  0.00    +0.000 N 
ATOM      5  C   UNL     1       4.693   7.140  16.862  0.00  0.00    +0.000 C 
ATOM      6  C   UNL     1       5.408   5.812  16.791  0.00  0.00    +0.000 C 
ATOM      7  C   UNL     1       5.251   5.007  15.516  0.00  0.00    +0.000 C 
ATOM      8  C   UNL     1       6.652   5.532  15.123  0.00  0.00    +0.000 C 
ATOM      9  C   UNL     1       6.907   5.826  16.628  0.00  0.00    +0.000 C 
ATOM     10  C   UNL     1       4.761   5.392  18.090  0.00  0.00    +0.000 C 
ATOM     11  H   UNL     1       3.262   8.750  18.018  0.00  0.00    +0.000 HD
ENDROOT
BRANCH   1  19
ATOM     12  O   UNL     1      -1.198  13.417  22.161  0.00  0.00    +0.000 OA
ATOM     13  C   UNL     1      -1.187  12.789  21.096  0.00  0.00    +0.000 C 
ATOM     14  C   UNL     1      -1.405  13.529  19.797  0.00  0.00    +0.000 C 
ATOM     15  C   UNL     1      -0.672  13.068  18.555  0.00  0.00    +0.000 C 
ATOM     16  C   UNL     1      -1.061  11.656  18.172  0.00  0.00    +0.000 C 
ATOM     17  C   UNL     1      -0.260  10.676  18.977  0.00  0.00    +0.000 A 
ATOM     18  C   UNL     1       0.662   9.854  18.301  0.00  0.00    +0.000 A 
ATOM     19  C   UNL     1       1.466   8.954  18.999  0.00  0.00    +0.000 A 
ATOM     20  C   UNL     1       1.295   8.808  20.372  0.00  0.00    +0.000 A 
ATOM     21  C   UNL     1       0.350   9.580  21.042  0.00  0.00    +0.000 A 
ATOM     22  C   UNL     1      -0.378  10.565  20.363  0.00  0.00    +0.000 A 
ATOM     23  N   UNL     1      -1.116  11.433  21.187  0.00  0.00    +0.000 N 
ATOM     24  H   UNL     1      -1.109  11.183  22.170  0.00  0.00    +0.000 HD
ENDBRANCH   1  19
BRANCH  10  25
ATOM     25  C   UNL     1       4.281   3.915  18.356  0.00  0.00    +0.000 A 
ATOM     26  C   UNL     1       4.736   3.199  19.484  0.00  0.00    +0.000 A 
ATOM     27  C   UNL     1       4.347   1.884  19.745  0.00  0.00    +0.000 A 
ATOM     28  C   UNL     1       3.483   1.230  18.869  0.00  0.00    +0.000 A 
ATOM     29  C   UNL     1       3.004   1.905  17.754  0.00  0.00    +0.000 A 
ATOM     30  C   UNL     1       3.382   3.225  17.512  0.00  0.00    +0.000 A 
ENDBRANCH  10  25
TORSDOF 2
ENDMDL
MODEL 3
REMARK VINA RESULT:      -8.7      1.888      3.784
REMARK  Name = 
REMARK  2 active torsions:
REMARK  status: ('A' for Active; 'I' for Inactive)
REMARK    1  A    between atoms: C_8  and  N_9
REMARK    2  A    between atoms: C_18  and  C_19
REMARK                            x       y       z     vdW  Elec       q    Type
REMARK                         _______ _______ _______ _____ _____    ______ ____
ROOT
ATOM      1  N   UNL     1       2.928   8.613  17.481  0.00  0.00    +0.000 N 
ATOM      2  C   UNL     1       2.942   7.282  17.828  0.00  0.00    +0.000 C 
ATOM      3  O   UNL     1       2.165   6.749  18.613  0.00  0.00    +0.000 OA
ATOM      4  N   UNL     1       3.964   6.592  17.228  0.00  0.00    +0.000 N 
ATOM      5  C   UNL     1       5.051   7.015  16.348  0.00  0.00    +0.000 C 
ATOM      6  C   UNL     1       5.561   5.607  16.542  0.00  0.00    +0.000 C 
ATOM      7  C   UNL     1       5.385   4.641  15.386  0.00  0.00    +0.000 C 
ATOM      8  C   UNL     1       6.876   4.900  15.066  0.00  0.00    +0.000 C 
ATOM      9  C   UNL     1       7.053   5.389  16.531  0.00  0.00    +0.000 C 
ATOM     10  C   UNL     1       4.757   5.490  17.816  0.00  0.00    +0.000 C 
ATOM     11  H   UNL     1       3.794   8.968  17.109  0.00  0.00    +0.000 HD
ENDROOT
BRANCH   1  19
ATOM     12  O   UNL     1      -2.000  12.485  21.427  0.00  0.00    +0.000 OA
ATOM     13  C   UNL     1      -1.001  12.601  20.707  0.00  0.00    +0.000 C 
ATOM     14  C   UNL     1       0.115  13.528  21.129  0.00  0.00    +0.000 C 
ATOM     15  C   UNL     1       1.545  13.155  20.803  0.00  0.00    +0.000 C 
ATOM     16  C   UNL     1       1.770  13.067  19.308  0.00  0.00    +0.000 C 
ATOM     17  C   UNL     1       1.333  11.721  18.811  0.00  0.00    +0.000 A 
ATOM     18  C   UNL     1       2.314  10.849  18.300  0.00  0.00    +0.000 A 
ATOM     19  C   UNL     1       1.977   9.569  17.863  0.00  0.00    +0.000 A 
ATOM     20  C   UNL     1       0.641   9.179  17.854  0.00  0.00    +0.000 A 
ATOM     21  C   UNL     1      -0.342  10.053  18.310  0.00  0.00    +0.000 A 
ATOM     22  C   UNL     1       0.005  11.296  18.856  0.00  0.00    +0.000 A 
ATOM     23  N   UNL     1      -1.045  11.977  19.498  0.00  0.00    +0.000 N 
ATOM     24  H   UNL     1      -1.951  11.531  19.405  0.00  0.00    +0.000 HD
ENDBRANCH   1  19
BRANCH  10  25
ATOM     25  C   UNL     1       4.040   4.153  18.241  0.00  0.00    +0.000 A 
ATOM     26  C   UNL     1       4.469   3.433  19.377  0.00  0.00    +0.000 A 
ATOM     27  C   UNL     1       3.870   2.237  19.777  0.00  0.00    +0.000 A 
ATOM     28  C   UNL     1       2.813   1.711  19.039  0.00  0.00    +0.000 A 
ATOM     29  C   UNL     1       2.353   2.396  17.922  0.00  0.00    +0.000 A 
ATOM     30  C   UNL     1       2.944   3.601  17.541  0.00  0.00    +0.000 A 
ENDBRANCH  10  25
TORSDOF 2
ENDMDL
MODEL 4
REMARK VINA RESULT:      -8.6      1.428      2.313
REMARK  Name = 
REMARK  2 active torsions:
REMARK  status: ('A' for Active; 'I' for Inactive)
REMARK    1  A    between atoms: C_8  and  N_9
REMARK    2  A    between atoms: C_18  and  C_19
REMARK                            x       y       z     vdW  Elec       q    Type
REMARK                         _______ _______ _______ _____ _____    ______ ____
ROOT
ATOM      1  N   UNL     1       1.790   7.167  19.461  0.00  0.00    +0.000 N 
ATOM      2  C   UNL     1       2.824   6.785  18.639  0.00  0.00    +0.000 C 
ATOM      3  O   UNL     1       3.526   7.549  17.984  0.00  0.00    +0.000 OA
ATOM      4  N   UNL     1       2.979   5.423  18.585  0.00  0.00    +0.000 N 
ATOM      5  C   UNL     1       2.226   4.325  19.185  0.00  0.00    +0.000 C 
ATOM      6  C   UNL     1       3.095   3.447  18.317  0.00  0.00    +0.000 C 
ATOM      7  C   UNL     1       4.208   2.679  19.003  0.00  0.00    +0.000 C 
ATOM      8  C   UNL     1       3.275   1.447  18.930  0.00  0.00    +0.000 C 
ATOM      9  C   UNL     1       2.500   2.165  17.790  0.00  0.00    +0.000 C 
ATOM     10  C   UNL     1       3.372   4.620  17.406  0.00  0.00    +0.000 C 
ATOM     11  H   UNL     1       1.113   6.449  19.660  0.00  0.00    +0.000 HD
ENDROOT
BRANCH   1  19
ATOM     12  O   UNL     1       1.965  14.152  21.917  0.00  0.00    +0.000 OA
ATOM     13  C   UNL     1       1.650  13.453  20.946  0.00  0.00    +0.000 C 
ATOM     14  C   UNL     1       2.039  13.898  19.555  0.00  0.00    +0.000 C 
ATOM     15  C   UNL     1       2.399  12.853  18.522  0.00  0.00    +0.000 C 
ATOM     16  C   UNL     1       1.232  11.931  18.233  0.00  0.00    +0.000 C 
ATOM     17  C   UNL     1       1.176  10.849  19.269  0.00  0.00    +0.000 A 
ATOM     18  C   UNL     1       1.415   9.522  18.862  0.00  0.00    +0.000 A 
ATOM     19  C   UNL     1       1.419   8.479  19.786  0.00  0.00    +0.000 A 
ATOM     20  C   UNL     1       1.100   8.741  21.115  0.00  0.00    +0.000 A 
ATOM     21  C   UNL     1       0.812  10.042  21.518  0.00  0.00    +0.000 A 
ATOM     22  C   UNL     1       0.919  11.109  20.617  0.00  0.00    +0.000 A 
ATOM     23  N   UNL     1       0.842  12.387  21.197  0.00  0.00    +0.000 N 
ATOM     24  H   UNL     1       0.622  12.385  22.187  0.00  0.00    +0.000 HD
ENDBRANCH   1  19
BRANCH  10  25
ATOM     25  C   UNL     1       4.778   4.854  16.735  0.00  0.00    +0.000 A 
ATOM     26  C   UNL     1       4.981   4.573  15.367  0.00  0.00    +0.000 A 
ATOM     27  C   UNL     1       6.216   4.752  14.741  0.00  0.00    +0.000 A 
ATOM     28  C   UNL     1       7.305   5.217  15.474  0.00  0.00    +0.000 A 
ATOM     29  C   UNL     1       7.142   5.517  16.820  0.00  0.00    +0.000 A 
ATOM     30  C   UNL     1       5.900   5.354  17.434  0.00  0.00    +0.000 A 
ENDBRANCH  10  25
TORSDOF 2
ENDMDL
MODEL 5
REMARK VINA RESULT:      -8.5      1.994      4.131
REMARK  Name = 
REMARK  2 active torsions:
REMARK  status: ('A' for Active; 'I' for Inactive)
REMARK    1  A    between atoms: C_8  and  N_9
REMARK    2  A    between atoms: C_18  and  C_19
REMARK                            x       y       z     vdW  Elec       q    Type
REMARK                         _______ _______ _______ _____ _____    ______ ____
ROOT
ATOM      1  N   UNL     1       1.456   9.236  19.041  0.00  0.00    +0.000 N 
ATOM      2  C   UNL     1       1.454   7.932  19.479  0.00  0.00    +0.000 C 
ATOM      3  O   UNL     1       0.700   7.476  20.333  0.00  0.00    +0.000 OA
ATOM      4  N   UNL     1       2.429   7.174  18.884  0.00  0.00    +0.000 N 
ATOM      5  C   UNL     1       3.484   7.505  17.929  0.00  0.00    +0.000 C 
ATOM      6  C   UNL     1       3.968   6.100  18.198  0.00  0.00    +0.000 C 
ATOM      7  C   UNL     1       3.715   5.062  17.122  0.00  0.00    +0.000 C 
ATOM      8  C   UNL     1       5.196   5.257  16.718  0.00  0.00    +0.000 C 
ATOM      9  C   UNL     1       5.452   5.840  18.136  0.00  0.00    +0.000 C 
ATOM     10  C   UNL     1       3.221   6.093  19.511  0.00  0.00    +0.000 C 
ATOM     11  H   UNL     1       2.313   9.541  18.607  0.00  0.00    +0.000 HD
ENDROOT
BRANCH   1  19
ATOM     12  O   UNL     1      -4.719  12.766  21.104  0.00  0.00    +0.000 OA
ATOM     13  C   UNL     1      -3.511  12.660  21.352  0.00  0.00    +0.000 C 
ATOM     14  C   UNL     1      -3.055  12.550  22.788  0.00  0.00    +0.000 C 
ATOM     15  C   UNL     1      -1.856  11.687  23.115  0.00  0.00    +0.000 C 
ATOM     16  C   UNL     1      -0.602  12.196  22.435  0.00  0.00    +0.000 C 
ATOM     17  C   UNL     1      -0.551  11.686  21.026  0.00  0.00    +0.000 A 
ATOM     18  C   UNL     1       0.473  10.784  20.679  0.00  0.00    +0.000 A 
ATOM     19  C   UNL     1       0.548  10.242  19.397  0.00  0.00    +0.000 A 
ATOM     20  C   UNL     1      -0.353  10.663  18.424  0.00  0.00    +0.000 A 
ATOM     21  C   UNL     1      -1.339  11.592  18.743  0.00  0.00    +0.000 A 
ATOM     22  C   UNL     1      -1.488  12.052  20.058  0.00  0.00    +0.000 A 
ATOM     23  N   UNL     1      -2.658  12.793  20.299  0.00  0.00    +0.000 N 
ATOM     24  H   UNL     1      -3.209  12.987  19.470  0.00  0.00    +0.000 HD
ENDBRANCH   1  19
BRANCH  10  25
ATOM     25  C   UNL     1       2.491   4.809  20.061  0.00  0.00    +0.000 A 
ATOM     26  C   UNL     1       2.827   4.271  21.322  0.00  0.00    +0.000 A 
ATOM     27  C   UNL     1       2.215   3.126  21.835  0.00  0.00    +0.000 A 
ATOM     28  C   UNL     1       1.238   2.469  21.091  0.00  0.00    +0.000 A 
ATOM     29  C   UNL     1       0.871   2.975  19.851  0.00  0.00    +0.000 A 
ATOM     30  C   UNL     1       1.473   4.130  19.354  0.00  0.00    +0.000 A 
ENDBRANCH  10  25
TORSDOF 2
ENDMDL
MODEL 6
REMARK VINA RESULT:      -8.5      2.465      4.379
REMARK  Name = 
REMARK  2 active torsions:
REMARK  status: ('A' for Active; 'I' for Inactive)
REMARK    1  A    between atoms: C_8  and  N_9
REMARK    2  A    between atoms: C_18  and  C_19
REMARK                            x       y       z     vdW  Elec       q    Type
REMARK                         _______ _______ _______ _____ _____    ______ ____
ROOT
ATOM      1  N   UNL     1       2.422   9.044  17.994  0.00  0.00    +0.000 N 
ATOM      2  C   UNL     1       2.205   7.840  18.624  0.00  0.00    +0.000 C 
ATOM      3  O   UNL     1       1.349   7.634  19.477  0.00  0.00    +0.000 OA
ATOM      4  N   UNL     1       3.090   6.871  18.227  0.00  0.00    +0.000 N 
ATOM      5  C   UNL     1       4.232   6.897  17.316  0.00  0.00    +0.000 C 
ATOM      6  C   UNL     1       4.490   5.501  17.831  0.00  0.00    +0.000 C 
ATOM      7  C   UNL     1       4.147   4.347  16.910  0.00  0.00    +0.000 C 
ATOM      8  C   UNL     1       5.660   4.272  16.595  0.00  0.00    +0.000 C 
ATOM      9  C   UNL     1       5.922   5.036  17.923  0.00  0.00    +0.000 C 
ATOM     10  C   UNL     1       3.681   5.808  19.070  0.00  0.00    +0.000 C 
ATOM     11  H   UNL     1       3.335   9.155  17.585  0.00  0.00    +0.000 HD
ENDROOT
BRANCH   1  19
ATOM     12  O   UNL     1      -1.656  14.533  20.837  0.00  0.00    +0.000 OA
ATOM     13  C   UNL     1      -0.683  14.299  20.111  0.00  0.00    +0.000 C 
ATOM     14  C   UNL     1       0.583  15.105  20.285  0.00  0.00    +0.000 C 
ATOM     15  C   UNL     1       1.921  14.433  20.064  0.00  0.00    +0.000 C 
ATOM     16  C   UNL     1       2.066  13.940  18.640  0.00  0.00    +0.000 C 
ATOM     17  C   UNL     1       1.401  12.604  18.498  0.00  0.00    +0.000 A 
ATOM     18  C   UNL     1       2.207  11.482  18.223  0.00  0.00    +0.000 A 
ATOM     19  C   UNL     1       1.652  10.208  18.123  0.00  0.00    +0.000 A 
ATOM     20  C   UNL     1       0.272  10.054  18.213  0.00  0.00    +0.000 A 
ATOM     21  C   UNL     1      -0.539  11.163  18.434  0.00  0.00    +0.000 A 
ATOM     22  C   UNL     1       0.024  12.428  18.649  0.00  0.00    +0.000 A 
ATOM     23  N   UNL     1      -0.876  13.411  19.098  0.00  0.00    +0.000 N 
ATOM     24  H   UNL     1      -1.844  13.111  19.121  0.00  0.00    +0.000 HD
ENDBRANCH   1  19
BRANCH  10  25
ATOM     25  C   UNL     1       2.743   4.740  19.751  0.00  0.00    +0.000 A 
ATOM     26  C   UNL     1       2.972   4.321  21.079  0.00  0.00    +0.000 A 
ATOM     27  C   UNL     1       2.174   3.366  21.711  0.00  0.00    +0.000 A 
ATOM     28  C   UNL     1       1.110   2.786  21.024  0.00  0.00    +0.000 A 
ATOM     29  C   UNL     1       0.845   3.182  19.720  0.00  0.00    +0.000 A 
ATOM     30  C   UNL     1       1.635   4.151  19.102  0.00  0.00    +0.000 A 
ENDBRANCH  10  25
TORSDOF 2
ENDMDL
MODEL 7
REMARK VINA RESULT:      -8.3      2.020      3.996
REMARK  Name = 
REMARK  2 active torsions:
REMARK  status: ('A' for Active; 'I' for Inactive)
REMARK    1  A    between atoms: C_8  and  N_9
REMARK    2  A    between atoms: C_18  and  C_19
REMARK                            x       y       z     vdW  Elec       q    Type
REMARK                         _______ _______ _______ _____ _____    ______ ____
ROOT
ATOM      1  N   UNL     1       1.755   9.181  18.564  0.00  0.00    +0.000 N 
ATOM      2  C   UNL     1       1.707   7.913  19.096  0.00  0.00    +0.000 C 
ATOM      3  O   UNL     1       0.915   7.538  19.955  0.00  0.00    +0.000 OA
ATOM      4  N   UNL     1       2.682   7.092  18.592  0.00  0.00    +0.000 N 
ATOM      5  C   UNL     1       3.776   7.329  17.652  0.00  0.00    +0.000 C 
ATOM      6  C   UNL     1       4.217   5.937  18.040  0.00  0.00    +0.000 C 
ATOM      7  C   UNL     1       3.974   4.828  17.035  0.00  0.00    +0.000 C 
ATOM      8  C   UNL     1       5.471   4.961  16.669  0.00  0.00    +0.000 C 
ATOM      9  C   UNL     1       5.695   5.642  18.048  0.00  0.00    +0.000 C 
ATOM     10  C   UNL     1       3.427   6.044  19.324  0.00  0.00    +0.000 C 
ATOM     11  H   UNL     1       2.632   9.434  18.139  0.00  0.00    +0.000 HD
ENDROOT
BRANCH   1  19
ATOM     12  O   UNL     1      -4.093  13.060  20.932  0.00  0.00    +0.000 OA
ATOM     13  C   UNL     1      -2.857  13.061  20.892  0.00  0.00    +0.000 C 
ATOM     14  C   UNL     1      -2.075  13.419  22.134  0.00  0.00    +0.000 C 
ATOM     15  C   UNL     1      -0.755  12.727  22.399  0.00  0.00    +0.000 C 
ATOM     16  C   UNL     1       0.254  13.019  21.308  0.00  0.00    +0.000 C 
ATOM     17  C   UNL     1       0.029  12.092  20.151  0.00  0.00    +0.000 A 
ATOM     18  C   UNL     1       1.029  11.147  19.850  0.00  0.00    +0.000 A 
ATOM     19  C   UNL     1       0.860  10.230  18.814  0.00  0.00    +0.000 A 
ATOM     20  C   UNL     1      -0.277  10.304  18.015  0.00  0.00    +0.000 A 
ATOM     21  C   UNL     1      -1.247  11.267  18.273  0.00  0.00    +0.000 A 
ATOM     22  C   UNL     1      -1.135  12.116  19.382  0.00  0.00    +0.000 A 
ATOM     23  N   UNL     1      -2.284  12.871  19.671  0.00  0.00    +0.000 N 
ATOM     24  H   UNL     1      -3.027  12.783  18.986  0.00  0.00    +0.000 HD
ENDBRANCH   1  19
BRANCH  10  25
ATOM     25  C   UNL     1       2.649   4.820  19.941  0.00  0.00    +0.000 A 
ATOM     26  C   UNL     1       1.598   4.201  19.231  0.00  0.00    +0.000 A 
ATOM     27  C   UNL     1       0.875   3.125  19.751  0.00  0.00    +0.000 A 
ATOM     28  C   UNL     1       1.181   2.631  21.017  0.00  0.00    +0.000 A 
ATOM     29  C   UNL     1       2.217   3.206  21.741  0.00  0.00    +0.000 A 
ATOM     30  C   UNL     1       2.947   4.267  21.206  0.00  0.00    +0.000 A 
ENDBRANCH  10  25
TORSDOF 2
ENDMDL
MODEL 8
REMARK VINA RESULT:      -8.3      1.891      2.741
REMARK  Name = 
REMARK  2 active torsions:
REMARK  status: ('A' for Active; 'I' for Inactive)
REMARK    1  A    between atoms: C_8  and  N_9
REMARK    2  A    between atoms: C_18  and  C_19
REMARK                            x       y       z     vdW  Elec       q    Type
REMARK                         _______ _______ _______ _____ _____    ______ ____
ROOT
ATOM      1  N   UNL     1       0.429   7.588  20.914  0.00  0.00    +0.000 N 
ATOM      2  C   UNL     1       1.598   7.323  20.239  0.00  0.00    +0.000 C 
ATOM      3  O   UNL     1       2.352   8.171  19.772  0.00  0.00    +0.000 OA
ATOM      4  N   UNL     1       1.831   5.979  20.097  0.00  0.00    +0.000 N 
ATOM      5  C   UNL     1       1.052   4.802  20.474  0.00  0.00    +0.000 C 
ATOM      6  C   UNL     1       2.091   4.041  19.685  0.00  0.00    +0.000 C 
ATOM      7  C   UNL     1       3.122   3.257  20.473  0.00  0.00    +0.000 C 
ATOM      8  C   UNL     1       2.278   2.002  20.149  0.00  0.00    +0.000 C 
ATOM      9  C   UNL     1       1.654   2.791  18.964  0.00  0.00    +0.000 C 
ATOM     10  C   UNL     1       2.445   5.303  18.932  0.00  0.00    +0.000 C 
ATOM     11  H   UNL     1      -0.232   6.829  20.941  0.00  0.00    +0.000 HD
ENDROOT
BRANCH   1  19
ATOM     12  O   UNL     1       0.074  14.654  23.103  0.00  0.00    +0.000 OA
ATOM     13  C   UNL     1      -0.338  13.864  22.246  0.00  0.00    +0.000 C 
ATOM     14  C   UNL     1      -0.340  14.279  20.793  0.00  0.00    +0.000 C 
ATOM     15  C   UNL     1      -0.062  13.239  19.729  0.00  0.00    +0.000 C 
ATOM     16  C   UNL     1      -1.109  12.145  19.735  0.00  0.00    +0.000 C 
ATOM     17  C   UNL     1      -0.768  11.127  20.782  0.00  0.00    +0.000 A 
ATOM     18  C   UNL     1      -0.425   9.827  20.362  0.00  0.00    +0.000 A 
ATOM     19  C   UNL     1      -0.057   8.850  21.285  0.00  0.00    +0.000 A 
ATOM     20  C   UNL     1      -0.110   9.139  22.645  0.00  0.00    +0.000 A 
ATOM     21  C   UNL     1      -0.496  10.406  23.072  0.00  0.00    +0.000 A 
ATOM     22  C   UNL     1      -0.756  11.424  22.146  0.00  0.00    +0.000 A 
ATOM     23  N   UNL     1      -0.898  12.709  22.699  0.00  0.00    +0.000 N 
ATOM     24  H   UNL     1      -0.890  12.731  23.713  0.00  0.00    +0.000 HD
ENDBRANCH   1  19
BRANCH  10  25
ATOM     25  C   UNL     1       3.925   5.651  18.518  0.00  0.00    +0.000 A 
ATOM     26  C   UNL     1       4.192   6.370  17.333  0.00  0.00    +0.000 A 
ATOM     27  C   UNL     1       5.489   6.684  16.924  0.00  0.00    +0.000 A 
ATOM     28  C   UNL     1       6.577   6.277  17.693  0.00  0.00    +0.000 A 
ATOM     29  C   UNL     1       6.354   5.579  18.873  0.00  0.00    +0.000 A 
ATOM     30  C   UNL     1       5.054   5.287  19.285  0.00  0.00    +0.000 A 
ENDBRANCH  10  25
TORSDOF 2
ENDMDL
MODEL 9
REMARK VINA RESULT:      -8.2      2.243      2.828
REMARK  Name = 
REMARK  2 active torsions:
REMARK  status: ('A' for Active; 'I' for Inactive)
REMARK    1  A    between atoms: C_8  and  N_9
REMARK    2  A    between atoms: C_18  and  C_19
REMARK                            x       y       z     vdW  Elec       q    Type
REMARK                         _______ _______ _______ _____ _____    ______ ____
ROOT
ATOM      1  N   UNL     1       1.591   8.429  18.760  0.00  0.00    +0.000 N 
ATOM      2  C   UNL     1       2.599   7.766  18.101  0.00  0.00    +0.000 C 
ATOM      3  O   UNL     1       3.260   8.226  17.176  0.00  0.00    +0.000 OA
ATOM      4  N   UNL     1       2.776   6.486  18.560  0.00  0.00    +0.000 N 
ATOM      5  C   UNL     1       2.067   5.696  19.564  0.00  0.00    +0.000 C 
ATOM      6  C   UNL     1       2.916   4.556  19.056  0.00  0.00    +0.000 C 
ATOM      7  C   UNL     1       4.070   4.107  19.933  0.00  0.00    +0.000 C 
ATOM      8  C   UNL     1       3.157   2.938  20.373  0.00  0.00    +0.000 C 
ATOM      9  C   UNL     1       2.324   3.169  19.080  0.00  0.00    +0.000 C 
ATOM     10  C   UNL     1       3.136   5.296  17.757  0.00  0.00    +0.000 C 
ATOM     11  H   UNL     1       0.935   7.839  19.246  0.00  0.00    +0.000 HD
ENDROOT
BRANCH   1  19
ATOM     12  O   UNL     1      -0.625  15.376  20.058  0.00  0.00    +0.000 OA
ATOM     13  C   UNL     1       0.228  14.706  19.465  0.00  0.00    +0.000 C 
ATOM     14  C   UNL     1       1.679  15.120  19.538  0.00  0.00    +0.000 C 
ATOM     15  C   UNL     1       2.751  14.051  19.557  0.00  0.00    +0.000 C 
ATOM     16  C   UNL     1       2.732  13.224  18.288  0.00  0.00    +0.000 C 
ATOM     17  C   UNL     1       1.694  12.149  18.401  0.00  0.00    +0.000 A 
ATOM     18  C   UNL     1       2.123  10.807  18.433  0.00  0.00    +0.000 A 
ATOM     19  C   UNL     1       1.209   9.766  18.580  0.00  0.00    +0.000 A 
ATOM     20  C   UNL     1      -0.153  10.051  18.613  0.00  0.00    +0.000 A 
ATOM     21  C   UNL     1      -0.590  11.370  18.533  0.00  0.00    +0.000 A 
ATOM     22  C   UNL     1       0.329  12.426  18.499  0.00  0.00    +0.000 A 
ATOM     23  N   UNL     1      -0.229  13.706  18.662  0.00  0.00    +0.000 N 
ATOM     24  H   UNL     1      -1.243  13.719  18.689  0.00  0.00    +0.000 HD
ENDBRANCH   1  19
BRANCH  10  25
ATOM     25  C   UNL     1       4.511   5.260  16.988  0.00  0.00    +0.000 A 
ATOM     26  C   UNL     1       4.688   4.423  15.866  0.00  0.00    +0.000 A 
ATOM     27  C   UNL     1       5.895   4.352  15.168  0.00  0.00    +0.000 A 
ATOM     28  C   UNL     1       6.981   5.122  15.579  0.00  0.00    +0.000 A 
ATOM     29  C   UNL     1       6.842   5.968  16.671  0.00  0.00    +0.000 A 
ATOM     30  C   UNL     1       5.626   6.048  17.350  0.00  0.00    +0.000 A 
ENDBRANCH  10  25
TORSDOF 2
ENDMDL
