MODEL 1
REMARK VINA RESULT:      -8.3      0.000      0.000
REMARK  Name = 
REMARK  2 active torsions:
REMARK  status: ('A' for Active; 'I' for Inactive)
REMARK    1  A    between atoms: C_2  and  C_3
REMARK    2  A    between atoms: C_3  and  N_4
REMARK                            x       y       z     vdW  Elec       q    Type
REMARK                         _______ _______ _______ _____ _____    ______ ____
ROOT
ATOM      1  N   UNL     1       1.267   8.773  19.523  0.00  0.00    +0.000 N 
ATOM      2  C   UNL     1       0.693   9.296  20.746  0.00  0.00    +0.000 A 
ATOM      3  C   UNL     1       0.592   8.616  21.956  0.00  0.00    +0.000 A 
ATOM      4  C   UNL     1       0.020   9.306  23.035  0.00  0.00    +0.000 A 
ATOM      5  C   UNL     1      -0.444  10.628  22.909  0.00  0.00    +0.000 A 
ATOM      6  C   UNL     1      -0.346  11.297  21.680  0.00  0.00    +0.000 A 
ATOM      7  C   UNL     1      -0.785  12.609  21.418  0.00  0.00    +0.000 A 
ATOM      8  C   UNL     1      -0.647  13.167  20.132  0.00  0.00    +0.000 A 
ATOM      9  C   UNL     1      -0.080  12.442  19.073  0.00  0.00    +0.000 A 
ATOM     10  C   UNL     1       0.342  11.153  19.368  0.00  0.00    +0.000 A 
ATOM     11  C   UNL     1       0.226  10.609  20.634  0.00  0.00    +0.000 A 
ATOM     12  S   UNL     1       1.028   9.928  18.300  0.00  0.00    +0.000 S 
ATOM     13  O   UNL     1       2.226  10.625  17.913  0.00  0.00    +0.000 OA
ATOM     14  O   UNL     1      -0.143   9.720  17.484  0.00  0.00    +0.000 OA
ENDROOT
BRANCH   1  15
ATOM     15  C   UNL     1       1.492   7.364  19.215  0.00  0.00    +0.000 C 
BRANCH  15  17
ATOM     16  O   UNL     1       3.401   8.039  17.979  0.00  0.00    +0.000 OA
ATOM     17  C   UNL     1       2.893   7.137  18.657  0.00  0.00    +0.000 C 
ATOM     18  N   UNL     1       3.572   5.944  18.900  0.00  0.00    +0.000 N 
ATOM     19  C   UNL     1       4.874   5.759  18.258  0.00  0.00    +0.000 C 
ATOM     20  C   UNL     1       5.036   4.458  17.474  0.00  0.00    +0.000 C 
ATOM     21  C   UNL     1       3.773   3.612  17.395  0.00  0.00    +0.000 C 
ATOM     22  C   UNL     1       3.013   3.617  18.692  0.00  0.00    +0.000 A 
ATOM     23  C   UNL     1       2.216   2.527  19.061  0.00  0.00    +0.000 A 
ATOM     24  C   UNL     1       1.450   2.579  20.225  0.00  0.00    +0.000 A 
ATOM     25  C   UNL     1       1.507   3.701  21.049  0.00  0.00    +0.000 A 
ATOM     26  C   UNL     1       2.282   4.801  20.676  0.00  0.00    +0.000 A 
ATOM     27  C   UNL     1       2.978   4.788  19.464  0.00  0.00    +0.000 A 
ENDBRANCH  15  17
ENDBRANCH   1  15
TORSDOF 2
ENDMDL
MODEL 2
REMARK VINA RESULT:      -8.1      4.991      9.592
REMARK  Name = 
REMARK  2 active torsions:
REMARK  status: ('A' for Active; 'I' for Inactive)
REMARK    1  A    between atoms: C_2  and  C_3
REMARK    2  A    between atoms: C_3  and  N_4
REMARK                            x       y       z     vdW  Elec       q    Type
REMARK                         _______ _______ _______ _____ _____    ______ ____
ROOT
ATOM      1  N   UNL     1      -2.393  12.341  22.086  0.00  0.00    +0.000 N 
ATOM      2  C   UNL     1      -1.416  11.273  22.143  0.00  0.00    +0.000 A 
ATOM      3  C   UNL     1      -0.989  10.618  23.295  0.00  0.00    +0.000 A 
ATOM      4  C   UNL     1      -0.045   9.591  23.138  0.00  0.00    +0.000 A 
ATOM      5  C   UNL     1       0.461   9.235  21.875  0.00  0.00    +0.000 A 
ATOM      6  C   UNL     1       0.031   9.912  20.725  0.00  0.00    +0.000 A 
ATOM      7  C   UNL     1       0.471   9.665  19.409  0.00  0.00    +0.000 A 
ATOM      8  C   UNL     1      -0.025  10.428  18.334  0.00  0.00    +0.000 A 
ATOM      9  C   UNL     1      -0.961  11.455  18.530  0.00  0.00    +0.000 A 
ATOM     10  C   UNL     1      -1.371  11.670  19.838  0.00  0.00    +0.000 A 
ATOM     11  C   UNL     1      -0.901  10.911  20.895  0.00  0.00    +0.000 A 
ATOM     12  S   UNL     1      -2.463  12.897  20.482  0.00  0.00    +0.000 S 
ATOM     13  O   UNL     1      -3.659  12.511  19.782  0.00  0.00    +0.000 OA
ATOM     14  O   UNL     1      -1.637  14.044  20.197  0.00  0.00    +0.000 OA
ENDROOT
BRANCH   1  15
ATOM     15  C   UNL     1      -2.821  13.172  23.206  0.00  0.00    +0.000 C 
BRANCH  15  17
ATOM     16  O   UNL     1      -4.071  11.705  24.588  0.00  0.00    +0.000 OA
ATOM     17  C   UNL     1      -4.127  12.663  23.806  0.00  0.00    +0.000 C 
ATOM     18  N   UNL     1      -5.343  13.258  23.476  0.00  0.00    +0.000 N 
ATOM     19  C   UNL     1      -6.564  12.659  24.019  0.00  0.00    +0.000 C 
ATOM     20  C   UNL     1      -7.648  12.343  22.991  0.00  0.00    +0.000 C 
ATOM     21  C   UNL     1      -7.239  12.600  21.547  0.00  0.00    +0.000 C 
ATOM     22  C   UNL     1      -6.419  13.853  21.412  0.00  0.00    +0.000 A 
ATOM     23  C   UNL     1      -6.432  14.594  20.225  0.00  0.00    +0.000 A 
ATOM     24  C   UNL     1      -5.603  15.707  20.082  0.00  0.00    +0.000 A 
ATOM     25  C   UNL     1      -4.789  16.111  21.138  0.00  0.00    +0.000 A 
ATOM     26  C   UNL     1      -4.754  15.364  22.317  0.00  0.00    +0.000 A 
ATOM     27  C   UNL     1      -5.515  14.196  22.428  0.00  0.00    +0.000 A 
ENDBRANCH  15  17
ENDBRANCH   1  15
TORSDOF 2
ENDMDL
MODEL 3
REMARK VINA RESULT:      -8.1      5.302      9.476
REMARK  Name = 
REMARK  2 active torsions:
REMARK  status: ('A' for Active; 'I' for Inactive)
REMARK    1  A    between atoms: C_2  and  C_3
REMARK    2  A    between atoms: C_3  and  N_4
REMARK                            x       y       z     vdW  Elec       q    Type
REMARK                         _______ _______ _______ _____ _____    ______ ____
ROOT
ATOM      1  N   UNL     1      -2.730  13.260  20.426  0.00  0.00    +0.000 N 
ATOM      2  C   UNL     1      -2.621  12.185  19.462  0.00  0.00    +0.000 A 
ATOM      3  C   UNL     1      -3.581  11.836  18.517  0.00  0.00    +0.000 A 
ATOM      4  C   UNL     1      -3.278  10.772  17.654  0.00  0.00    +0.000 A 
ATOM      5  C   UNL     1      -2.059  10.075  17.736  0.00  0.00    +0.000 A 
ATOM      6  C   UNL     1      -1.105  10.430  18.701  0.00  0.00    +0.000 A 
ATOM      7  C   UNL     1       0.142   9.804  18.898  0.00  0.00    +0.000 A 
ATOM      8  C   UNL     1       1.010  10.243  19.917  0.00  0.00    +0.000 A 
ATOM      9  C   UNL     1       0.667  11.304  20.769  0.00  0.00    +0.000 A 
ATOM     10  C   UNL     1      -0.567  11.896  20.545  0.00  0.00    +0.000 A 
ATOM     11  C   UNL     1      -1.415  11.481  19.534  0.00  0.00    +0.000 A 
ATOM     12  S   UNL     1      -1.368  13.190  21.440  0.00  0.00    +0.000 S 
ATOM     13  O   UNL     1      -0.411  14.239  21.205  0.00  0.00    +0.000 OA
ATOM     14  O   UNL     1      -1.560  12.467  22.673  0.00  0.00    +0.000 OA
ENDROOT
BRANCH   1  15
ATOM     15  C   UNL     1      -3.964  13.916  20.845  0.00  0.00    +0.000 C 
BRANCH  15  17
ATOM     16  O   UNL     1      -4.588  12.288  22.453  0.00  0.00    +0.000 OA
ATOM     17  C   UNL     1      -4.945  12.916  21.449  0.00  0.00    +0.000 C 
ATOM     18  N   UNL     1      -6.201  12.717  20.878  0.00  0.00    +0.000 N 
ATOM     19  C   UNL     1      -7.053  11.677  21.457  0.00  0.00    +0.000 C 
ATOM     20  C   UNL     1      -7.610  10.661  20.462  0.00  0.00    +0.000 C 
ATOM     21  C   UNL     1      -7.096  10.830  19.038  0.00  0.00    +0.000 C 
ATOM     22  C   UNL     1      -6.986  12.278  18.651  0.00  0.00    +0.000 A 
ATOM     23  C   UNL     1      -7.118  12.676  17.316  0.00  0.00    +0.000 A 
ATOM     24  C   UNL     1      -6.930  14.010  16.957  0.00  0.00    +0.000 A 
ATOM     25  C   UNL     1      -6.651  14.962  17.935  0.00  0.00    +0.000 A 
ATOM     26  C   UNL     1      -6.495  14.570  19.266  0.00  0.00    +0.000 A 
ATOM     27  C   UNL     1      -6.592  13.220  19.613  0.00  0.00    +0.000 A 
ENDBRANCH  15  17
ENDBRANCH   1  15
TORSDOF 2
ENDMDL
MODEL 4
REMARK VINA RESULT:      -8.1      1.520      7.177
REMARK  Name = 
REMARK  2 active torsions:
REMARK  status: ('A' for Active; 'I' for Inactive)
REMARK    1  A    between atoms: C_2  and  C_3
REMARK    2  A    between atoms: C_3  and  N_4
REMARK                            x       y       z     vdW  Elec       q    Type
REMARK                         _______ _______ _______ _____ _____    ______ ____
ROOT
ATOM      1  N   UNL     1       2.654   6.445  18.952  0.00  0.00    +0.000 N 
ATOM      2  C   UNL     1       2.101   5.168  19.355  0.00  0.00    +0.000 A 
ATOM      3  C   UNL     1       0.999   4.981  20.185  0.00  0.00    +0.000 A 
ATOM      4  C   UNL     1       0.605   3.659  20.441  0.00  0.00    +0.000 A 
ATOM      5  C   UNL     1       1.292   2.560  19.895  0.00  0.00    +0.000 A 
ATOM      6  C   UNL     1       2.408   2.763  19.069  0.00  0.00    +0.000 A 
ATOM      7  C   UNL     1       3.190   1.753  18.476  0.00  0.00    +0.000 A 
ATOM      8  C   UNL     1       4.303   2.086  17.678  0.00  0.00    +0.000 A 
ATOM      9  C   UNL     1       4.673   3.420  17.452  0.00  0.00    +0.000 A 
ATOM     10  C   UNL     1       3.880   4.387  18.053  0.00  0.00    +0.000 A 
ATOM     11  C   UNL     1       2.777   4.066  18.821  0.00  0.00    +0.000 A 
ATOM     12  S   UNL     1       4.068   6.142  18.060  0.00  0.00    +0.000 S 
ATOM     13  O   UNL     1       3.929   6.380  16.648  0.00  0.00    +0.000 OA
ATOM     14  O   UNL     1       5.292   6.192  18.820  0.00  0.00    +0.000 OA
ENDROOT
BRANCH   1  15
ATOM     15  C   UNL     1       2.421   7.726  19.610  0.00  0.00    +0.000 C 
BRANCH  15  17
ATOM     16  O   UNL     1       2.258   8.865  17.537  0.00  0.00    +0.000 OA
ATOM     17  C   UNL     1       1.765   8.724  18.663  0.00  0.00    +0.000 C 
ATOM     18  N   UNL     1       0.649   9.457  19.062  0.00  0.00    +0.000 N 
ATOM     19  C   UNL     1       0.127  10.462  18.134  0.00  0.00    +0.000 C 
ATOM     20  C   UNL     1      -0.063  11.858  18.723  0.00  0.00    +0.000 C 
ATOM     21  C   UNL     1       0.428  12.006  20.157  0.00  0.00    +0.000 C 
ATOM     22  C   UNL     1       0.112  10.793  20.985  0.00  0.00    +0.000 A 
ATOM     23  C   UNL     1      -0.085  10.898  22.367  0.00  0.00    +0.000 A 
ATOM     24  C   UNL     1      -0.293   9.755  23.137  0.00  0.00    +0.000 A 
ATOM     25  C   UNL     1      -0.348   8.503  22.527  0.00  0.00    +0.000 A 
ATOM     26  C   UNL     1      -0.130   8.387  21.153  0.00  0.00    +0.000 A 
ATOM     27  C   UNL     1       0.170   9.522  20.394  0.00  0.00    +0.000 A 
ENDBRANCH  15  17
ENDBRANCH   1  15
TORSDOF 2
ENDMDL
MODEL 5
REMARK VINA RESULT:      -8.0      4.235      9.529
REMARK  Name = 
REMARK  2 active torsions:
REMARK  status: ('A' for Active; 'I' for Inactive)
REMARK    1  A    between atoms: C_2  and  C_3
REMARK    2  A    between atoms: C_3  and  N_4
REMARK                            x       y       z     vdW  Elec       q    Type
REMARK                         _______ _______ _______ _____ _____    ______ ____
ROOT
ATOM      1  N   UNL     1      -1.984  12.251  20.700  0.00  0.00    +0.000 N 
ATOM      2  C   UNL     1      -1.191  11.268  21.409  0.00  0.00    +0.000 A 
ATOM      3  C   UNL     1      -1.216  11.035  22.781  0.00  0.00    +0.000 A 
ATOM      4  C   UNL     1      -0.383  10.019  23.275  0.00  0.00    +0.000 A 
ATOM      5  C   UNL     1       0.453   9.267  22.430  0.00  0.00    +0.000 A 
ATOM      6  C   UNL     1       0.476   9.522  21.051  0.00  0.00    +0.000 A 
ATOM      7  C   UNL     1       1.277   8.855  20.103  0.00  0.00    +0.000 A 
ATOM      8  C   UNL     1       1.225   9.215  18.742  0.00  0.00    +0.000 A 
ATOM      9  C   UNL     1       0.387  10.244  18.285  0.00  0.00    +0.000 A 
ATOM     10  C   UNL     1      -0.387  10.878  19.247  0.00  0.00    +0.000 A 
ATOM     11  C   UNL     1      -0.352  10.515  20.581  0.00  0.00    +0.000 A 
ATOM     12  S   UNL     1      -1.491  12.243  19.074  0.00  0.00    +0.000 S 
ATOM     13  O   UNL     1      -2.442  11.640  18.179  0.00  0.00    +0.000 OA
ATOM     14  O   UNL     1      -0.502  13.235  18.731  0.00  0.00    +0.000 OA
ENDROOT
BRANCH   1  15
ATOM     15  C   UNL     1      -2.652  13.405  21.294  0.00  0.00    +0.000 C 
BRANCH  15  17
ATOM     16  O   UNL     1      -4.792  12.472  20.876  0.00  0.00    +0.000 OA
ATOM     17  C   UNL     1      -4.084  13.069  21.696  0.00  0.00    +0.000 C 
ATOM     18  N   UNL     1      -4.575  13.432  22.949  0.00  0.00    +0.000 N 
ATOM     19  C   UNL     1      -5.985  13.158  23.232  0.00  0.00    +0.000 C 
ATOM     20  C   UNL     1      -6.791  14.350  23.744  0.00  0.00    +0.000 C 
ATOM     21  C   UNL     1      -6.021  15.663  23.772  0.00  0.00    +0.000 C 
ATOM     22  C   UNL     1      -4.600  15.469  24.221  0.00  0.00    +0.000 A 
ATOM     23  C   UNL     1      -3.907  16.496  24.873  0.00  0.00    +0.000 A 
ATOM     24  C   UNL     1      -2.563  16.335  25.209  0.00  0.00    +0.000 A 
ATOM     25  C   UNL     1      -1.915  15.132  24.935  0.00  0.00    +0.000 A 
ATOM     26  C   UNL     1      -2.593  14.112  24.264  0.00  0.00    +0.000 A 
ATOM     27  C   UNL     1      -3.912  14.306  23.845  0.00  0.00    +0.000 A 
ENDBRANCH  15  17
ENDBRANCH   1  15
TORSDOF 2
ENDMDL
MODEL 6
REMARK VINA RESULT:      -7.9      1.494      2.762
REMARK  Name = 
REMARK  2 active torsions:
REMARK  status: ('A' for Active; 'I' for Inactive)
REMARK    1  A    between atoms: C_2  and  C_3
REMARK    2  A    between atoms: C_3  and  N_4
REMARK                            x       y       z     vdW  Elec       q    Type
REMARK                         _______ _______ _______ _____ _____    ______ ____
ROOT
ATOM      1  N   UNL     1       2.090   8.324  19.696  0.00  0.00    +0.000 N 
ATOM      2  C   UNL     1       1.233   8.923  20.697  0.00  0.00    +0.000 A 
ATOM      3  C   UNL     1       1.253   8.646  22.061  0.00  0.00    +0.000 A 
ATOM      4  C   UNL     1       0.352   9.351  22.874  0.00  0.00    +0.000 A 
ATOM      5  C   UNL     1      -0.545  10.295  22.342  0.00  0.00    +0.000 A 
ATOM      6  C   UNL     1      -0.563  10.555  20.964  0.00  0.00    +0.000 A 
ATOM      7  C   UNL     1      -1.419  11.459  20.306  0.00  0.00    +0.000 A 
ATOM      8  C   UNL     1      -1.353  11.621  18.908  0.00  0.00    +0.000 A 
ATOM      9  C   UNL     1      -0.445  10.890  18.126  0.00  0.00    +0.000 A 
ATOM     10  C   UNL     1       0.382  10.010  18.808  0.00  0.00    +0.000 A 
ATOM     11  C   UNL     1       0.333   9.862  20.182  0.00  0.00    +0.000 A 
ATOM     12  S   UNL     1       1.583   8.883  18.174  0.00  0.00    +0.000 S 
ATOM     13  O   UNL     1       2.478   9.837  17.574  0.00  0.00    +0.000 OA
ATOM     14  O   UNL     1       0.668   8.013  17.477  0.00  0.00    +0.000 OA
ENDROOT
BRANCH   1  15
ATOM     15  C   UNL     1       2.848   7.085  19.845  0.00  0.00    +0.000 C 
BRANCH  15  17
ATOM     16  O   UNL     1       1.059   5.559  20.149  0.00  0.00    +0.000 OA
ATOM     17  C   UNL     1       2.017   5.875  19.434  0.00  0.00    +0.000 C 
ATOM     18  N   UNL     1       2.337   5.147  18.289  0.00  0.00    +0.000 N 
ATOM     19  C   UNL     1       1.551   3.945  18.006  0.00  0.00    +0.000 C 
ATOM     20  C   UNL     1       2.366   2.678  17.755  0.00  0.00    +0.000 C 
ATOM     21  C   UNL     1       3.867   2.847  17.950  0.00  0.00    +0.000 C 
ATOM     22  C   UNL     1       4.354   4.169  17.426  0.00  0.00    +0.000 A 
ATOM     23  C   UNL     1       5.664   4.316  16.957  0.00  0.00    +0.000 A 
ATOM     24  C   UNL     1       6.131   5.566  16.553  0.00  0.00    +0.000 A 
ATOM     25  C   UNL     1       5.278   6.668  16.574  0.00  0.00    +0.000 A 
ATOM     26  C   UNL     1       3.977   6.535  17.061  0.00  0.00    +0.000 A 
ATOM     27  C   UNL     1       3.537   5.302  17.553  0.00  0.00    +0.000 A 
ENDBRANCH  15  17
ENDBRANCH   1  15
TORSDOF 2
ENDMDL
MODEL 7
REMARK VINA RESULT:      -7.9      4.044      6.909
REMARK  Name = 
REMARK  2 active torsions:
REMARK  status: ('A' for Active; 'I' for Inactive)
REMARK    1  A    between atoms: C_2  and  C_3
REMARK    2  A    between atoms: C_3  and  N_4
REMARK                            x       y       z     vdW  Elec       q    Type
REMARK                         _______ _______ _______ _____ _____    ______ ____
ROOT
ATOM      1  N   UNL     1       0.364  14.135  19.857  0.00  0.00    +0.000 N 
ATOM      2  C   UNL     1       0.590  15.366  19.127  0.00  0.00    +0.000 A 
ATOM      3  C   UNL     1      -0.391  16.266  18.722  0.00  0.00    +0.000 A 
ATOM      4  C   UNL     1       0.034  17.416  18.040  0.00  0.00    +0.000 A 
ATOM      5  C   UNL     1       1.393  17.657  17.766  0.00  0.00    +0.000 A 
ATOM      6  C   UNL     1       2.369  16.735  18.171  0.00  0.00    +0.000 A 
ATOM      7  C   UNL     1       3.755  16.849  17.944  0.00  0.00    +0.000 A 
ATOM      8  C   UNL     1       4.638  15.843  18.386  0.00  0.00    +0.000 A 
ATOM      9  C   UNL     1       4.174  14.700  19.055  0.00  0.00    +0.000 A 
ATOM     10  C   UNL     1       2.804  14.622  19.260  0.00  0.00    +0.000 A 
ATOM     11  C   UNL     1       1.936  15.616  18.845  0.00  0.00    +0.000 A 
ATOM     12  S   UNL     1       1.853  13.326  19.988  0.00  0.00    +0.000 S 
ATOM     13  O   UNL     1       2.420  13.359  21.310  0.00  0.00    +0.000 OA
ATOM     14  O   UNL     1       2.098  12.329  18.976  0.00  0.00    +0.000 OA
ENDROOT
BRANCH   1  15
ATOM     15  C   UNL     1      -0.907  13.426  19.971  0.00  0.00    +0.000 C 
BRANCH  15  17
ATOM     16  O   UNL     1      -1.159  13.346  22.327  0.00  0.00    +0.000 OA
ATOM     17  C   UNL     1      -1.007  12.679  21.296  0.00  0.00    +0.000 C 
ATOM     18  N   UNL     1      -0.923  11.289  21.339  0.00  0.00    +0.000 N 
ATOM     19  C   UNL     1      -0.936  10.647  22.655  0.00  0.00    +0.000 C 
ATOM     20  C   UNL     1       0.206   9.667  22.914  0.00  0.00    +0.000 C 
ATOM     21  C   UNL     1       1.241   9.599  21.798  0.00  0.00    +0.000 C 
ATOM     22  C   UNL     1       0.604   9.667  20.439  0.00  0.00    +0.000 A 
ATOM     23  C   UNL     1       1.208   9.059  19.333  0.00  0.00    +0.000 A 
ATOM     24  C   UNL     1       0.652   9.201  18.062  0.00  0.00    +0.000 A 
ATOM     25  C   UNL     1      -0.533   9.914  17.894  0.00  0.00    +0.000 A 
ATOM     26  C   UNL     1      -1.130  10.542  18.989  0.00  0.00    +0.000 A 
ATOM     27  C   UNL     1      -0.524  10.479  20.247  0.00  0.00    +0.000 A 
ENDBRANCH  15  17
ENDBRANCH   1  15
TORSDOF 2
ENDMDL
MODEL 8
REMARK VINA RESULT:      -7.8      5.067     10.280
REMARK  Name = 
REMARK  2 active torsions:
REMARK  status: ('A' for Active; 'I' for Inactive)
REMARK    1  A    between atoms: C_2  and  C_3
REMARK    2  A    between atoms: C_3  and  N_4
REMARK                            x       y       z     vdW  Elec       q    Type
REMARK                         _______ _______ _______ _____ _____    ______ ____
ROOT
ATOM      1  N   UNL     1      -2.160  12.972  21.377  0.00  0.00    +0.000 N 
ATOM      2  C   UNL     1      -1.731  12.091  20.309  0.00  0.00    +0.000 A 
ATOM      3  C   UNL     1      -2.075  12.211  18.966  0.00  0.00    +0.000 A 
ATOM      4  C   UNL     1      -1.538  11.265  18.079  0.00  0.00    +0.000 A 
ATOM      5  C   UNL     1      -0.694  10.230  18.519  0.00  0.00    +0.000 A 
ATOM      6  C   UNL     1      -0.366  10.115  19.878  0.00  0.00    +0.000 A 
ATOM      7  C   UNL     1       0.451   9.119  20.448  0.00  0.00    +0.000 A 
ATOM      8  C   UNL     1       0.693   9.099  21.836  0.00  0.00    +0.000 A 
ATOM      9  C   UNL     1       0.131  10.056  22.693  0.00  0.00    +0.000 A 
ATOM     10  C   UNL     1      -0.668  11.021  22.097  0.00  0.00    +0.000 A 
ATOM     11  C   UNL     1      -0.893  11.055  20.733  0.00  0.00    +0.000 A 
ATOM     12  S   UNL     1      -1.593  12.326  22.843  0.00  0.00    +0.000 S 
ATOM     13  O   UNL     1      -0.499  13.062  23.420  0.00  0.00    +0.000 OA
ATOM     14  O   UNL     1      -2.537  11.499  23.552  0.00  0.00    +0.000 OA
ENDROOT
BRANCH   1  15
ATOM     15  C   UNL     1      -3.294  13.888  21.330  0.00  0.00    +0.000 C 
BRANCH  15  17
ATOM     16  O   UNL     1      -5.062  12.341  21.010  0.00  0.00    +0.000 OA
ATOM     17  C   UNL     1      -4.582  13.198  21.762  0.00  0.00    +0.000 C 
ATOM     18  N   UNL     1      -5.200  13.531  22.966  0.00  0.00    +0.000 N 
ATOM     19  C   UNL     1      -6.481  12.894  23.273  0.00  0.00    +0.000 C 
ATOM     20  C   UNL     1      -7.612  13.849  23.650  0.00  0.00    +0.000 C 
ATOM     21  C   UNL     1      -7.251  15.324  23.537  0.00  0.00    +0.000 C 
ATOM     22  C   UNL     1      -5.850  15.595  24.009  0.00  0.00    +0.000 A 
ATOM     23  C   UNL     1      -5.503  16.840  24.547  0.00  0.00    +0.000 A 
ATOM     24  C   UNL     1      -4.182  17.109  24.902  0.00  0.00    +0.000 A 
ATOM     25  C   UNL     1      -3.208  16.122  24.763  0.00  0.00    +0.000 A 
ATOM     26  C   UNL     1      -3.541  14.887  24.205  0.00  0.00    +0.000 A 
ATOM     27  C   UNL     1      -4.846  14.648  23.763  0.00  0.00    +0.000 A 
ENDBRANCH  15  17
ENDBRANCH   1  15
TORSDOF 2
ENDMDL
MODEL 9
REMARK VINA RESULT:      -7.7      7.943      9.269
REMARK  Name = 
REMARK  2 active torsions:
REMARK  status: ('A' for Active; 'I' for Inactive)
REMARK    1  A    between atoms: C_2  and  C_3
REMARK    2  A    between atoms: C_3  and  N_4
REMARK                            x       y       z     vdW  Elec       q    Type
REMARK                         _______ _______ _______ _____ _____    ______ ____
ROOT
ATOM      1  N   UNL     1       7.472  15.133  20.424  0.00  0.00    +0.000 N 
ATOM      2  C   UNL     1       6.140  15.051  20.986  0.00  0.00    +0.000 A 
ATOM      3  C   UNL     1       5.830  14.921  22.337  0.00  0.00    +0.000 A 
ATOM      4  C   UNL     1       4.471  14.879  22.683  0.00  0.00    +0.000 A 
ATOM      5  C   UNL     1       3.455  14.955  21.714  0.00  0.00    +0.000 A 
ATOM      6  C   UNL     1       3.782  15.073  20.355  0.00  0.00    +0.000 A 
ATOM      7  C   UNL     1       2.864  15.141  19.288  0.00  0.00    +0.000 A 
ATOM      8  C   UNL     1       3.318  15.241  17.958  0.00  0.00    +0.000 A 
ATOM      9  C   UNL     1       4.686  15.270  17.649  0.00  0.00    +0.000 A 
ATOM     10  C   UNL     1       5.561  15.201  18.724  0.00  0.00    +0.000 A 
ATOM     11  C   UNL     1       5.120  15.122  20.032  0.00  0.00    +0.000 A 
ATOM     12  S   UNL     1       7.324  15.139  18.731  0.00  0.00    +0.000 S 
ATOM     13  O   UNL     1       7.588  16.418  18.127  0.00  0.00    +0.000 OA
ATOM     14  O   UNL     1       7.464  13.849  18.102  0.00  0.00    +0.000 OA
ENDROOT
BRANCH   1  15
ATOM     15  C   UNL     1       8.709  14.727  21.085  0.00  0.00    +0.000 C 
BRANCH  15  17
ATOM     16  O   UNL     1      10.155  16.377  20.184  0.00  0.00    +0.000 OA
ATOM     17  C   UNL     1       9.932  15.164  20.287  0.00  0.00    +0.000 C 
ATOM     18  N   UNL     1      10.766  14.222  19.688  0.00  0.00    +0.000 N 
ATOM     19  C   UNL     1      11.869  14.716  18.862  0.00  0.00    +0.000 C 
ATOM     20  C   UNL     1      11.951  14.120  17.458  0.00  0.00    +0.000 C 
ATOM     21  C   UNL     1      10.801  13.187  17.105  0.00  0.00    +0.000 C 
ATOM     22  C   UNL     1      10.407  12.319  18.266  0.00  0.00    +0.000 A 
ATOM     23  C   UNL     1       9.846  11.054  18.059  0.00  0.00    +0.000 A 
ATOM     24  C   UNL     1       9.406  10.293  19.141  0.00  0.00    +0.000 A 
ATOM     25  C   UNL     1       9.563  10.773  20.440  0.00  0.00    +0.000 A 
ATOM     26  C   UNL     1      10.101  12.043  20.654  0.00  0.00    +0.000 A 
ATOM     27  C   UNL     1      10.457  12.844  19.566  0.00  0.00    +0.000 A 
ENDBRANCH  15  17
ENDBRANCH   1  15
TORSDOF 2
ENDMDL
