MODEL 1
REMARK VINA RESULT:      -9.8      0.000      0.000
REMARK  Name = 
REMARK  6 active torsions:
REMARK  status: ('A' for Active; 'I' for Inactive)
REMARK    1  A    between atoms: C_1  and  C_2
REMARK    2  A    between atoms: C_5  and  C_6
REMARK    3  A    between atoms: C_11  and  C_12
REMARK    4  A    between atoms: N_14  and  C_15
REMARK    5  A    between atoms: C_20  and  C_21
REMARK    6  A    between atoms: C_20  and  C_22
REMARK                            x       y       z     vdW  Elec       q    Type
REMARK                         _______ _______ _______ _____ _____    ______ ____
ROOT
ATOM      1  C   UNL     1       2.278   6.482  19.664  0.00  0.00    +0.000 C 
ATOM      2  O   UNL     1       2.887   6.961  18.712  0.00  0.00    +0.000 OA
ATOM      3  N   UNL     1       1.646   7.253  20.615  0.00  0.00    +0.000 N 
ATOM      4  H   UNL     1       1.190   6.816  21.402  0.00  0.00    +0.000 HD
ENDROOT
BRANCH   3   5
ATOM      5  C   UNL     1       1.811   8.686  20.666  0.00  0.00    +0.000 C 
ATOM      6  C   UNL     1       1.592   9.201  22.127  0.00  0.00    +0.000 C 
ATOM      7  C   UNL     1       0.067   9.359  22.232  0.00  0.00    +0.000 C 
ATOM      8  C   UNL     1      -0.524  10.100  23.416  0.00  0.00    +0.000 C 
ATOM      9  C   UNL     1      -1.665  11.072  23.052  0.00  0.00    +0.000 C 
ATOM     10  C   UNL     1      -1.443  11.930  21.775  0.00  0.00    +0.000 C 
ATOM     11  C   UNL     1      -0.320  12.960  22.053  0.00  0.00    +0.000 C 
ATOM     12  C   UNL     1      -2.736  12.707  21.468  0.00  0.00    +0.000 C 
ATOM     13  C   UNL     1      -0.989  11.056  20.610  0.00  0.00    +0.000 A 
ATOM     14  C   UNL     1      -1.147  11.365  19.254  0.00  0.00    +0.000 A 
ATOM     15  C   UNL     1      -0.409  10.684  18.264  0.00  0.00    +0.000 A 
ATOM     16  C   UNL     1       0.572   9.742  18.618  0.00  0.00    +0.000 A 
ATOM     17  C   UNL     1       0.705   9.434  19.956  0.00  0.00    +0.000 A 
ATOM     18  C   UNL     1      -0.164   9.986  20.899  0.00  0.00    +0.000 A 
ENDBRANCH   3   5
BRANCH   1  24
ATOM     19  C   UNL     1       3.340   4.136  19.464  0.00  0.00    +0.000 A 
ATOM     20  C   UNL     1       3.156   2.750  19.649  0.00  0.00    +0.000 A 
ATOM     21  C   UNL     1       2.017   2.237  20.271  0.00  0.00    +0.000 A 
ATOM     22  C   UNL     1       1.033   3.102  20.725  0.00  0.00    +0.000 A 
ATOM     23  C   UNL     1       1.185   4.478  20.537  0.00  0.00    +0.000 A 
ATOM     24  C   UNL     1       2.319   5.007  19.891  0.00  0.00    +0.000 A 
BRANCH  19  29
ATOM     25  C   UNL     1       7.796   5.955  19.238  0.00  0.00    +0.000 C 
ATOM     26  C   UNL     1       6.562   5.327  18.740  0.00  0.00    +0.000 A 
ATOM     27  N   UNL     1       6.274   4.890  17.534  0.00  0.00    +0.000 NA
ATOM     28  N   UNL     1       5.001   4.374  17.606  0.00  0.00    +0.000 NA
ATOM     29  C   UNL     1       4.593   4.544  18.848  0.00  0.00    +0.000 A 
ATOM     30  O   UNL     1       5.544   5.133  19.635  0.00  0.00    +0.000 OA
ENDBRANCH  19  29
ENDBRANCH   1  24
TORSDOF 3
ENDMDL
MODEL 2
REMARK VINA RESULT:      -9.5      1.057      1.188
REMARK  Name = 
REMARK  6 active torsions:
REMARK  status: ('A' for Active; 'I' for Inactive)
REMARK    1  A    between atoms: C_1  and  C_2
REMARK    2  A    between atoms: C_5  and  C_6
REMARK    3  A    between atoms: C_11  and  C_12
REMARK    4  A    between atoms: N_14  and  C_15
REMARK    5  A    between atoms: C_20  and  C_21
REMARK    6  A    between atoms: C_20  and  C_22
REMARK                            x       y       z     vdW  Elec       q    Type
REMARK                         _______ _______ _______ _____ _____    ______ ____
ROOT
ATOM      1  C   UNL     1       2.283   6.376  19.577  0.00  0.00    +0.000 C 
ATOM      2  O   UNL     1       2.931   6.857  18.652  0.00  0.00    +0.000 OA
ATOM      3  N   UNL     1       1.641   7.144  20.523  0.00  0.00    +0.000 N 
ATOM      4  H   UNL     1       1.152   6.704  21.288  0.00  0.00    +0.000 HD
ENDROOT
BRANCH   3   5
ATOM      5  C   UNL     1       1.836   8.572  20.604  0.00  0.00    +0.000 C 
ATOM      6  C   UNL     1       1.618   9.062  22.073  0.00  0.00    +0.000 C 
ATOM      7  C   UNL     1       0.097   9.251  22.172  0.00  0.00    +0.000 C 
ATOM      8  C   UNL     1      -0.486   9.980  23.367  0.00  0.00    +0.000 C 
ATOM      9  C   UNL     1      -1.604  10.984  23.016  0.00  0.00    +0.000 C 
ATOM     10  C   UNL     1      -1.354  11.862  21.758  0.00  0.00    +0.000 C 
ATOM     11  C   UNL     1      -0.212  12.863  22.065  0.00  0.00    +0.000 C 
ATOM     12  C   UNL     1      -2.628  12.674  21.459  0.00  0.00    +0.000 C 
ATOM     13  C   UNL     1      -0.912  11.003  20.578  0.00  0.00    +0.000 A 
ATOM     14  C   UNL     1      -1.053  11.343  19.228  0.00  0.00    +0.000 A 
ATOM     15  C   UNL     1      -0.323  10.667  18.230  0.00  0.00    +0.000 A 
ATOM     16  C   UNL     1       0.634   9.697  18.570  0.00  0.00    +0.000 A 
ATOM     17  C   UNL     1       0.752   9.358  19.902  0.00  0.00    +0.000 A 
ATOM     18  C   UNL     1      -0.111   9.909  20.851  0.00  0.00    +0.000 A 
ENDBRANCH   3   5
BRANCH   1  24
ATOM     19  C   UNL     1       3.169   3.983  19.173  0.00  0.00    +0.000 A 
ATOM     20  C   UNL     1       2.947   2.605  19.373  0.00  0.00    +0.000 A 
ATOM     21  C   UNL     1       1.906   2.138  20.176  0.00  0.00    +0.000 A 
ATOM     22  C   UNL     1       1.062   3.043  20.802  0.00  0.00    +0.000 A 
ATOM     23  C   UNL     1       1.252   4.413  20.604  0.00  0.00    +0.000 A 
ATOM     24  C   UNL     1       2.284   4.896  19.778  0.00  0.00    +0.000 A 
BRANCH  19  29
ATOM     25  C   UNL     1       5.634   4.916  15.140  0.00  0.00    +0.000 C 
ATOM     26  C   UNL     1       5.408   4.770  16.586  0.00  0.00    +0.000 A 
ATOM     27  N   UNL     1       6.230   4.992  17.587  0.00  0.00    +0.000 NA
ATOM     28  N   UNL     1       5.521   4.723  18.734  0.00  0.00    +0.000 NA
ATOM     29  C   UNL     1       4.318   4.339  18.355  0.00  0.00    +0.000 A 
ATOM     30  O   UNL     1       4.167   4.360  16.995  0.00  0.00    +0.000 OA
ENDBRANCH  19  29
ENDBRANCH   1  24
TORSDOF 3
ENDMDL
MODEL 3
REMARK VINA RESULT:      -8.8      1.091      1.135
REMARK  Name = 
REMARK  6 active torsions:
REMARK  status: ('A' for Active; 'I' for Inactive)
REMARK    1  A    between atoms: C_1  and  C_2
REMARK    2  A    between atoms: C_5  and  C_6
REMARK    3  A    between atoms: C_11  and  C_12
REMARK    4  A    between atoms: N_14  and  C_15
REMARK    5  A    between atoms: C_20  and  C_21
REMARK    6  A    between atoms: C_20  and  C_22
REMARK                            x       y       z     vdW  Elec       q    Type
REMARK                         _______ _______ _______ _____ _____    ______ ____
ROOT
ATOM      1  C   UNL     1       2.560   6.647  18.848  0.00  0.00    +0.000 C 
ATOM      2  O   UNL     1       3.214   7.244  17.999  0.00  0.00    +0.000 OA
ATOM      3  N   UNL     1       1.819   7.291  19.815  0.00  0.00    +0.000 N 
ATOM      4  H   UNL     1       1.328   6.759  20.517  0.00  0.00    +0.000 HD
ENDROOT
BRANCH   3   5
ATOM      5  C   UNL     1       1.907   8.718  20.015  0.00  0.00    +0.000 C 
ATOM      6  C   UNL     1       1.883   9.049  21.544  0.00  0.00    +0.000 C 
ATOM      7  C   UNL     1       0.386   9.079  21.886  0.00  0.00    +0.000 C 
ATOM      8  C   UNL     1      -0.060   9.636  23.225  0.00  0.00    +0.000 C 
ATOM      9  C   UNL     1      -1.298  10.553  23.150  0.00  0.00    +0.000 C 
ATOM     10  C   UNL     1      -1.323  11.563  21.968  0.00  0.00    +0.000 C 
ATOM     11  C   UNL     1      -0.233  12.638  22.205  0.00  0.00    +0.000 C 
ATOM     12  C   UNL     1      -2.690  12.270  21.949  0.00  0.00    +0.000 C 
ATOM     13  C   UNL     1      -1.002  10.862  20.652  0.00  0.00    +0.000 A 
ATOM     14  C   UNL     1      -1.381  11.308  19.381  0.00  0.00    +0.000 A 
ATOM     15  C   UNL     1      -0.765  10.799  18.220  0.00  0.00    +0.000 A 
ATOM     16  C   UNL     1       0.311   9.900  18.312  0.00  0.00    +0.000 A 
ATOM     17  C   UNL     1       0.664   9.455  19.568  0.00  0.00    +0.000 A 
ATOM     18  C   UNL     1      -0.081   9.831  20.687  0.00  0.00    +0.000 A 
ENDBRANCH   3   5
BRANCH   1  24
ATOM     19  C   UNL     1       3.851   4.410  18.902  0.00  0.00    +0.000 A 
ATOM     20  C   UNL     1       3.754   3.003  18.864  0.00  0.00    +0.000 A 
ATOM     21  C   UNL     1       2.521   2.351  18.898  0.00  0.00    +0.000 A 
ATOM     22  C   UNL     1       1.352   3.094  18.972  0.00  0.00    +0.000 A 
ATOM     23  C   UNL     1       1.422   4.489  18.992  0.00  0.00    +0.000 A 
ATOM     24  C   UNL     1       2.659   5.159  18.936  0.00  0.00    +0.000 A 
BRANCH  19  29
ATOM     25  C   UNL     1       7.623   6.948  17.308  0.00  0.00    +0.000 C 
ATOM     26  C   UNL     1       6.857   6.093  18.227  0.00  0.00    +0.000 A 
ATOM     27  N   UNL     1       7.194   5.620  19.406  0.00  0.00    +0.000 NA
ATOM     28  N   UNL     1       6.115   4.896  19.855  0.00  0.00    +0.000 NA
ATOM     29  C   UNL     1       5.195   4.964  18.911  0.00  0.00    +0.000 A 
ATOM     30  O   UNL     1       5.593   5.726  17.847  0.00  0.00    +0.000 OA
ENDBRANCH  19  29
ENDBRANCH   1  24
TORSDOF 3
ENDMDL
MODEL 4
REMARK VINA RESULT:      -8.7      1.446      1.526
REMARK  Name = 
REMARK  6 active torsions:
REMARK  status: ('A' for Active; 'I' for Inactive)
REMARK    1  A    between atoms: C_1  and  C_2
REMARK    2  A    between atoms: C_5  and  C_6
REMARK    3  A    between atoms: C_11  and  C_12
REMARK    4  A    between atoms: N_14  and  C_15
REMARK    5  A    between atoms: C_20  and  C_21
REMARK    6  A    between atoms: C_20  and  C_22
REMARK                            x       y       z     vdW  Elec       q    Type
REMARK                         _______ _______ _______ _____ _____    ______ ____
ROOT
ATOM      1  C   UNL     1       2.323   7.241  18.228  0.00  0.00    +0.000 C 
ATOM      2  O   UNL     1       2.821   7.964  17.370  0.00  0.00    +0.000 OA
ATOM      3  N   UNL     1       1.699   7.733  19.353  0.00  0.00    +0.000 N 
ATOM      4  H   UNL     1       1.339   7.100  20.052  0.00  0.00    +0.000 HD
ENDROOT
BRANCH   3   5
ATOM      5  C   UNL     1       1.747   9.133  19.700  0.00  0.00    +0.000 C 
ATOM      6  C   UNL     1       1.808   9.301  21.253  0.00  0.00    +0.000 C 
ATOM      7  C   UNL     1       0.336   9.231  21.685  0.00  0.00    +0.000 C 
ATOM      8  C   UNL     1      -0.044   9.626  23.100  0.00  0.00    +0.000 C 
ATOM      9  C   UNL     1      -1.317  10.492  23.197  0.00  0.00    +0.000 C 
ATOM     10  C   UNL     1      -1.453  11.618  22.133  0.00  0.00    +0.000 C 
ATOM     11  C   UNL     1      -0.390  12.708  22.418  0.00  0.00    +0.000 C 
ATOM     12  C   UNL     1      -2.844  12.264  22.270  0.00  0.00    +0.000 C 
ATOM     13  C   UNL     1      -1.191  11.072  20.733  0.00  0.00    +0.000 A 
ATOM     14  C   UNL     1      -1.666  11.631  19.541  0.00  0.00    +0.000 A 
ATOM     15  C   UNL     1      -1.107  11.274  18.298  0.00  0.00    +0.000 A 
ATOM     16  C   UNL     1       0.005  10.417  18.229  0.00  0.00    +0.000 A 
ATOM     17  C   UNL     1       0.453   9.859  19.408  0.00  0.00    +0.000 A 
ATOM     18  C   UNL     1      -0.233  10.084  20.603  0.00  0.00    +0.000 A 
ENDBRANCH   3   5
BRANCH   1  24
ATOM     19  C   UNL     1       3.644   5.101  17.637  0.00  0.00    +0.000 A 
ATOM     20  C   UNL     1       3.595   3.698  17.497  0.00  0.00    +0.000 A 
ATOM     21  C   UNL     1       2.470   2.962  17.870  0.00  0.00    +0.000 A 
ATOM     22  C   UNL     1       1.365   3.614  18.396  0.00  0.00    +0.000 A 
ATOM     23  C   UNL     1       1.384   5.005  18.527  0.00  0.00    +0.000 A 
ATOM     24  C   UNL     1       2.504   5.761  18.133  0.00  0.00    +0.000 A 
BRANCH  19  29
ATOM     25  C   UNL     1       7.999   7.065  18.260  0.00  0.00    +0.000 C 
ATOM     26  C   UNL     1       6.819   6.595  17.519  0.00  0.00    +0.000 A 
ATOM     27  N   UNL     1       6.595   6.583  16.223  0.00  0.00    +0.000 NA
ATOM     28  N   UNL     1       5.350   6.023  16.053  0.00  0.00    +0.000 NA
ATOM     29  C   UNL     1       4.892   5.744  17.258  0.00  0.00    +0.000 A 
ATOM     30  O   UNL     1       5.784   6.067  18.244  0.00  0.00    +0.000 OA
ENDBRANCH  19  29
ENDBRANCH   1  24
TORSDOF 3
ENDMDL
MODEL 5
REMARK VINA RESULT:      -8.5      1.374      1.591
REMARK  Name = 
REMARK  6 active torsions:
REMARK  status: ('A' for Active; 'I' for Inactive)
REMARK    1  A    between atoms: C_1  and  C_2
REMARK    2  A    between atoms: C_5  and  C_6
REMARK    3  A    between atoms: C_11  and  C_12
REMARK    4  A    between atoms: N_14  and  C_15
REMARK    5  A    between atoms: C_20  and  C_21
REMARK    6  A    between atoms: C_20  and  C_22
REMARK                            x       y       z     vdW  Elec       q    Type
REMARK                         _______ _______ _______ _____ _____    ______ ____
ROOT
ATOM      1  C   UNL     1       2.108   7.596  19.012  0.00  0.00    +0.000 C 
ATOM      2  O   UNL     1       2.448   7.972  17.894  0.00  0.00    +0.000 OA
ATOM      3  N   UNL     1       1.453   8.409  19.911  0.00  0.00    +0.000 N 
ATOM      4  H   UNL     1       1.228   8.069  20.833  0.00  0.00    +0.000 HD
ENDROOT
BRANCH   3   5
ATOM      5  C   UNL     1       1.283   9.823  19.674  0.00  0.00    +0.000 C 
ATOM      6  C   UNL     1       1.237  10.594  21.033  0.00  0.00    +0.000 C 
ATOM      7  C   UNL     1      -0.231  10.476  21.470  0.00  0.00    +0.000 C 
ATOM      8  C   UNL     1      -0.738  11.332  22.615  0.00  0.00    +0.000 C 
ATOM      9  C   UNL     1      -2.125  11.962  22.372  0.00  0.00    +0.000 C 
ATOM     10  C   UNL     1      -2.364  12.545  20.951  0.00  0.00    +0.000 C 
ATOM     11  C   UNL     1      -1.484  13.807  20.772  0.00  0.00    +0.000 C 
ATOM     12  C   UNL     1      -3.838  12.973  20.832  0.00  0.00    +0.000 C 
ATOM     13  C   UNL     1      -1.953  11.540  19.879  0.00  0.00    +0.000 A 
ATOM     14  C   UNL     1      -2.440  11.507  18.567  0.00  0.00    +0.000 A 
ATOM     15  C   UNL     1      -1.770  10.780  17.563  0.00  0.00    +0.000 A 
ATOM     16  C   UNL     1      -0.545  10.145  17.830  0.00  0.00    +0.000 A 
ATOM     17  C   UNL     1      -0.085  10.170  19.130  0.00  0.00    +0.000 A 
ATOM     18  C   UNL     1      -0.858  10.738  20.143  0.00  0.00    +0.000 A 
ENDBRANCH   3   5
BRANCH   1  24
ATOM     19  C   UNL     1       3.603   5.489  18.981  0.00  0.00    +0.000 A 
ATOM     20  C   UNL     1       3.778   4.173  19.458  0.00  0.00    +0.000 A 
ATOM     21  C   UNL     1       2.941   3.627  20.431  0.00  0.00    +0.000 A 
ATOM     22  C   UNL     1       1.907   4.388  20.954  0.00  0.00    +0.000 A 
ATOM     23  C   UNL     1       1.703   5.689  20.485  0.00  0.00    +0.000 A 
ATOM     24  C   UNL     1       2.527   6.243  19.487  0.00  0.00    +0.000 A 
BRANCH  19  29
ATOM     25  C   UNL     1       7.632   7.580  17.366  0.00  0.00    +0.000 C 
ATOM     26  C   UNL     1       6.353   6.859  17.282  0.00  0.00    +0.000 A 
ATOM     27  N   UNL     1       5.739   6.365  16.230  0.00  0.00    +0.000 NA
ATOM     28  N   UNL     1       4.590   5.771  16.697  0.00  0.00    +0.000 NA
ATOM     29  C   UNL     1       4.573   5.956  18.003  0.00  0.00    +0.000 A 
ATOM     30  O   UNL     1       5.676   6.630  18.451  0.00  0.00    +0.000 OA
ENDBRANCH  19  29
ENDBRANCH   1  24
TORSDOF 3
ENDMDL
MODEL 6
REMARK VINA RESULT:      -8.5      1.775      3.866
REMARK  Name = 
REMARK  6 active torsions:
REMARK  status: ('A' for Active; 'I' for Inactive)
REMARK    1  A    between atoms: C_1  and  C_2
REMARK    2  A    between atoms: C_5  and  C_6
REMARK    3  A    between atoms: C_11  and  C_12
REMARK    4  A    between atoms: N_14  and  C_15
REMARK    5  A    between atoms: C_20  and  C_21
REMARK    6  A    between atoms: C_20  and  C_22
REMARK                            x       y       z     vdW  Elec       q    Type
REMARK                         _______ _______ _______ _____ _____    ______ ____
ROOT
ATOM      1  C   UNL     1       2.796   6.576  18.226  0.00  0.00    +0.000 C 
ATOM      2  O   UNL     1       1.876   5.863  17.835  0.00  0.00    +0.000 OA
ATOM      3  N   UNL     1       2.598   7.819  18.786  0.00  0.00    +0.000 N 
ATOM      4  H   UNL     1       3.386   8.386  19.057  0.00  0.00    +0.000 HD
ENDROOT
BRANCH   3   5
ATOM      5  C   UNL     1       1.302   8.455  18.784  0.00  0.00    +0.000 C 
ATOM      6  C   UNL     1       1.347   9.764  17.929  0.00  0.00    +0.000 C 
ATOM      7  C   UNL     1       1.881  10.821  18.909  0.00  0.00    +0.000 C 
ATOM      8  C   UNL     1       1.812  12.288  18.531  0.00  0.00    +0.000 C 
ATOM      9  C   UNL     1       1.352  13.217  19.674  0.00  0.00    +0.000 C 
ATOM     10  C   UNL     1       0.167  12.696  20.535  0.00  0.00    +0.000 C 
ATOM     11  C   UNL     1      -1.121  12.707  19.675  0.00  0.00    +0.000 C 
ATOM     12  C   UNL     1      -0.045  13.657  21.719  0.00  0.00    +0.000 C 
ATOM     13  C   UNL     1       0.415  11.258  20.979  0.00  0.00    +0.000 A 
ATOM     14  C   UNL     1      -0.157  10.645  22.100  0.00  0.00    +0.000 A 
ATOM     15  C   UNL     1      -0.148   9.243  22.244  0.00  0.00    +0.000 A 
ATOM     16  C   UNL     1       0.351   8.418  21.221  0.00  0.00    +0.000 A 
ATOM     17  C   UNL     1       0.926   9.034  20.130  0.00  0.00    +0.000 A 
ATOM     18  C   UNL     1       1.072  10.422  20.096  0.00  0.00    +0.000 A 
ENDBRANCH   3   5
BRANCH   1  24
ATOM     19  C   UNL     1       4.783   4.932  18.378  0.00  0.00    +0.000 A 
ATOM     20  C   UNL     1       6.167   4.748  18.174  0.00  0.00    +0.000 A 
ATOM     21  C   UNL     1       6.954   5.722  17.558  0.00  0.00    +0.000 A 
ATOM     22  C   UNL     1       6.373   6.905  17.128  0.00  0.00    +0.000 A 
ATOM     23  C   UNL     1       5.007   7.117  17.336  0.00  0.00    +0.000 A 
ATOM     24  C   UNL     1       4.207   6.152  17.976  0.00  0.00    +0.000 A 
BRANCH  19  29
ATOM     25  C   UNL     1       2.100   2.633  21.653  0.00  0.00    +0.000 C 
ATOM     26  C   UNL     1       2.872   2.803  20.413  0.00  0.00    +0.000 A 
ATOM     27  N   UNL     1       3.082   1.950  19.435  0.00  0.00    +0.000 NA
ATOM     28  N   UNL     1       3.849   2.612  18.505  0.00  0.00    +0.000 NA
ATOM     29  C   UNL     1       4.068   3.821  18.985  0.00  0.00    +0.000 A 
ATOM     30  O   UNL     1       3.460   4.021  20.194  0.00  0.00    +0.000 OA
ENDBRANCH  19  29
ENDBRANCH   1  24
TORSDOF 3
ENDMDL
MODEL 7
REMARK VINA RESULT:      -8.3      1.715      2.100
REMARK  Name = 
REMARK  6 active torsions:
REMARK  status: ('A' for Active; 'I' for Inactive)
REMARK    1  A    between atoms: C_1  and  C_2
REMARK    2  A    between atoms: C_5  and  C_6
REMARK    3  A    between atoms: C_11  and  C_12
REMARK    4  A    between atoms: N_14  and  C_15
REMARK    5  A    between atoms: C_20  and  C_21
REMARK    6  A    between atoms: C_20  and  C_22
REMARK                            x       y       z     vdW  Elec       q    Type
REMARK                         _______ _______ _______ _____ _____    ______ ____
ROOT
ATOM      1  C   UNL     1       2.091   7.635  18.818  0.00  0.00    +0.000 C 
ATOM      2  O   UNL     1       2.460   7.945  17.689  0.00  0.00    +0.000 OA
ATOM      3  N   UNL     1       1.384   8.487  19.637  0.00  0.00    +0.000 N 
ATOM      4  H   UNL     1       1.135   8.203  20.572  0.00  0.00    +0.000 HD
ENDROOT
BRANCH   3   5
ATOM      5  C   UNL     1       1.184   9.876  19.299  0.00  0.00    +0.000 C 
ATOM      6  C   UNL     1       1.242  10.757  20.590  0.00  0.00    +0.000 C 
ATOM      7  C   UNL     1      -0.186  10.675  21.151  0.00  0.00    +0.000 C 
ATOM      8  C   UNL     1      -0.605  11.622  22.259  0.00  0.00    +0.000 C 
ATOM      9  C   UNL     1      -2.012  12.229  22.077  0.00  0.00    +0.000 C 
ATOM     10  C   UNL     1      -2.368  12.692  20.636  0.00  0.00    +0.000 C 
ATOM     11  C   UNL     1      -1.515  13.936  20.284  0.00  0.00    +0.000 C 
ATOM     12  C   UNL     1      -3.850  13.108  20.601  0.00  0.00    +0.000 C 
ATOM     13  C   UNL     1      -2.037  11.603  19.621  0.00  0.00    +0.000 A 
ATOM     14  C   UNL     1      -2.627  11.461  18.360  0.00  0.00    +0.000 A 
ATOM     15  C   UNL     1      -2.034  10.654  17.368  0.00  0.00    +0.000 A 
ATOM     16  C   UNL     1      -0.787  10.044  17.587  0.00  0.00    +0.000 A 
ATOM     17  C   UNL     1      -0.225  10.177  18.839  0.00  0.00    +0.000 A 
ATOM     18  C   UNL     1      -0.919  10.826  19.862  0.00  0.00    +0.000 A 
ENDBRANCH   3   5
BRANCH   1  24
ATOM     19  C   UNL     1       3.565   5.515  18.903  0.00  0.00    +0.000 A 
ATOM     20  C   UNL     1       3.759   4.249  19.495  0.00  0.00    +0.000 A 
ATOM     21  C   UNL     1       2.980   3.813  20.567  0.00  0.00    +0.000 A 
ATOM     22  C   UNL     1       1.987   4.636  21.075  0.00  0.00    +0.000 A 
ATOM     23  C   UNL     1       1.764   5.887  20.494  0.00  0.00    +0.000 A 
ATOM     24  C   UNL     1       2.528   6.329  19.397  0.00  0.00    +0.000 A 
BRANCH  19  29
ATOM     25  C   UNL     1       5.690   5.190  14.591  0.00  0.00    +0.000 C 
ATOM     26  C   UNL     1       5.405   5.747  15.922  0.00  0.00    +0.000 A 
ATOM     27  N   UNL     1       5.896   6.820  16.502  0.00  0.00    +0.000 NA
ATOM     28  N   UNL     1       5.287   6.906  17.732  0.00  0.00    +0.000 NA
ATOM     29  C   UNL     1       4.475   5.870  17.826  0.00  0.00    +0.000 A 
ATOM     30  O   UNL     1       4.486   5.094  16.700  0.00  0.00    +0.000 OA
ENDBRANCH  19  29
ENDBRANCH   1  24
TORSDOF 3
ENDMDL
MODEL 8
REMARK VINA RESULT:      -8.2      1.904      2.513
REMARK  Name = 
REMARK  6 active torsions:
REMARK  status: ('A' for Active; 'I' for Inactive)
REMARK    1  A    between atoms: C_1  and  C_2
REMARK    2  A    between atoms: C_5  and  C_6
REMARK    3  A    between atoms: C_11  and  C_12
REMARK    4  A    between atoms: N_14  and  C_15
REMARK    5  A    between atoms: C_20  and  C_21
REMARK    6  A    between atoms: C_20  and  C_22
REMARK                            x       y       z     vdW  Elec       q    Type
REMARK                         _______ _______ _______ _____ _____    ______ ____
ROOT
ATOM      1  C   UNL     1       2.622   7.558  18.141  0.00  0.00    +0.000 C 
ATOM      2  O   UNL     1       3.553   8.113  17.564  0.00  0.00    +0.000 OA
ATOM      3  N   UNL     1       1.363   8.110  18.236  0.00  0.00    +0.000 N 
ATOM      4  H   UNL     1       0.639   7.635  18.754  0.00  0.00    +0.000 HD
ENDROOT
BRANCH   3   5
ATOM      5  C   UNL     1       1.094   9.467  17.825  0.00  0.00    +0.000 C 
ATOM      6  C   UNL     1       1.724  10.472  18.844  0.00  0.00    +0.000 C 
ATOM      7  C   UNL     1       0.664  10.583  19.950  0.00  0.00    +0.000 C 
ATOM      8  C   UNL     1       0.787  11.678  20.992  0.00  0.00    +0.000 C 
ATOM      9  C   UNL     1      -0.540  12.389  21.327  0.00  0.00    +0.000 C 
ATOM     10  C   UNL     1      -1.452  12.725  20.113  0.00  0.00    +0.000 C 
ATOM     11  C   UNL     1      -0.779  13.840  19.275  0.00  0.00    +0.000 C 
ATOM     12  C   UNL     1      -2.794  13.270  20.638  0.00  0.00    +0.000 C 
ATOM     13  C   UNL     1      -1.622  11.507  19.211  0.00  0.00    +0.000 A 
ATOM     14  C   UNL     1      -2.694  11.287  18.338  0.00  0.00    +0.000 A 
ATOM     15  C   UNL     1      -2.606  10.327  17.310  0.00  0.00    +0.000 A 
ATOM     16  C   UNL     1      -1.407   9.631  17.075  0.00  0.00    +0.000 A 
ATOM     17  C   UNL     1      -0.365   9.845  17.953  0.00  0.00    +0.000 A 
ATOM     18  C   UNL     1      -0.538  10.661  19.072  0.00  0.00    +0.000 A 
ENDBRANCH   3   5
BRANCH   1  24
ATOM     19  C   UNL     1       3.801   5.293  18.528  0.00  0.00    +0.000 A 
ATOM     20  C   UNL     1       3.820   4.097  19.276  0.00  0.00    +0.000 A 
ATOM     21  C   UNL     1       2.979   3.904  20.372  0.00  0.00    +0.000 A 
ATOM     22  C   UNL     1       2.097   4.907  20.748  0.00  0.00    +0.000 A 
ATOM     23  C   UNL     1       2.049   6.093  20.010  0.00  0.00    +0.000 A 
ATOM     24  C   UNL     1       2.876   6.291  18.889  0.00  0.00    +0.000 A 
BRANCH  19  29
ATOM     25  C   UNL     1       5.730   4.380  14.208  0.00  0.00    +0.000 C 
ATOM     26  C   UNL     1       5.612   5.007  15.533  0.00  0.00    +0.000 A 
ATOM     27  N   UNL     1       6.368   5.923  16.096  0.00  0.00    +0.000 NA
ATOM     28  N   UNL     1       5.813   6.178  17.328  0.00  0.00    +0.000 NA
ATOM     29  C   UNL     1       4.762   5.388  17.440  0.00  0.00    +0.000 A 
ATOM     30  O   UNL     1       4.562   4.622  16.325  0.00  0.00    +0.000 OA
ENDBRANCH  19  29
ENDBRANCH   1  24
TORSDOF 3
ENDMDL
MODEL 9
REMARK VINA RESULT:      -8.0      1.640      1.792
REMARK  Name = 
REMARK  6 active torsions:
REMARK  status: ('A' for Active; 'I' for Inactive)
REMARK    1  A    between atoms: C_1  and  C_2
REMARK    2  A    between atoms: C_5  and  C_6
REMARK    3  A    between atoms: C_11  and  C_12
REMARK    4  A    between atoms: N_14  and  C_15
REMARK    5  A    between atoms: C_20  and  C_21
REMARK    6  A    between atoms: C_20  and  C_22
REMARK                            x       y       z     vdW  Elec       q    Type
REMARK                         _______ _______ _______ _____ _____    ______ ____
ROOT
ATOM      1  C   UNL     1       2.665   6.408  18.397  0.00  0.00    +0.000 C 
ATOM      2  O   UNL     1       3.758   6.869  18.085  0.00  0.00    +0.000 OA
ATOM      3  N   UNL     1       1.601   7.193  18.782  0.00  0.00    +0.000 N 
ATOM      4  H   UNL     1       0.732   6.768  19.067  0.00  0.00    +0.000 HD
ENDROOT
BRANCH   3   5
ATOM      5  C   UNL     1       1.749   8.609  19.025  0.00  0.00    +0.000 C 
ATOM      6  C   UNL     1       2.048   8.865  20.539  0.00  0.00    +0.000 C 
ATOM      7  C   UNL     1       0.655   8.886  21.187  0.00  0.00    +0.000 C 
ATOM      8  C   UNL     1       0.505   9.380  22.613  0.00  0.00    +0.000 C 
ATOM      9  C   UNL     1      -0.708  10.306  22.840  0.00  0.00    +0.000 C 
ATOM     10  C   UNL     1      -0.963  11.371  21.736  0.00  0.00    +0.000 C 
ATOM     11  C   UNL     1       0.168  12.428  21.790  0.00  0.00    +0.000 C 
ATOM     12  C   UNL     1      -2.294  12.085  22.034  0.00  0.00    +0.000 C 
ATOM     13  C   UNL     1      -0.933  10.733  20.352  0.00  0.00    +0.000 A 
ATOM     14  C   UNL     1      -1.561  11.241  19.209  0.00  0.00    +0.000 A 
ATOM     15  C   UNL     1      -1.207  10.786  17.923  0.00  0.00    +0.000 A 
ATOM     16  C   UNL     1      -0.148   9.879  17.747  0.00  0.00    +0.000 A 
ATOM     17  C   UNL     1       0.452   9.372  18.881  0.00  0.00    +0.000 A 
ATOM     18  C   UNL     1      -0.040   9.697  20.147  0.00  0.00    +0.000 A 
ENDBRANCH   3   5
BRANCH   1  24
ATOM     19  C   UNL     1       3.367   3.961  17.954  0.00  0.00    +0.000 A 
ATOM     20  C   UNL     1       2.988   2.604  18.028  0.00  0.00    +0.000 A 
ATOM     21  C   UNL     1       1.804   2.206  18.650  0.00  0.00    +0.000 A 
ATOM     22  C   UNL     1       0.971   3.158  19.216  0.00  0.00    +0.000 A 
ATOM     23  C   UNL     1       1.317   4.510  19.140  0.00  0.00    +0.000 A 
ATOM     24  C   UNL     1       2.497   4.927  18.496  0.00  0.00    +0.000 A 
BRANCH  19  29
ATOM     25  C   UNL     1       6.475   4.733  14.354  0.00  0.00    +0.000 C 
ATOM     26  C   UNL     1       6.022   4.599  15.747  0.00  0.00    +0.000 A 
ATOM     27  N   UNL     1       6.695   4.763  16.865  0.00  0.00    +0.000 NA
ATOM     28  N   UNL     1       5.803   4.540  17.888  0.00  0.00    +0.000 NA
ATOM     29  C   UNL     1       4.648   4.240  17.324  0.00  0.00    +0.000 A 
ATOM     30  O   UNL     1       4.708   4.274  15.958  0.00  0.00    +0.000 OA
ENDBRANCH  19  29
ENDBRANCH   1  24
TORSDOF 3
ENDMDL
