MODEL 1
REMARK VINA RESULT:      -9.5      0.000      0.000
REMARK  Name = 
REMARK  5 active torsions:
REMARK  status: ('A' for Active; 'I' for Inactive)
REMARK    1  A    between atoms: C_1  and  C_2
REMARK    2  A    between atoms: C_7  and  N_8
REMARK    3  A    between atoms: C_9  and  C_11
REMARK    4  A    between atoms: C_11  and  O_12
REMARK    5  A    between atoms: O_12  and  C_13
REMARK                            x       y       z     vdW  Elec       q    Type
REMARK                         _______ _______ _______ _____ _____    ______ ____
ROOT
ATOM      1  O   UNL     1       7.694   7.817  17.372  0.00  0.00    +0.000 OA
ENDROOT
BRANCH   1   2
ATOM      2  C   UNL     1       6.696   6.922  17.624  0.00  0.00    +0.000 A 
ATOM      3  C   UNL     1       5.500   7.197  16.951  0.00  0.00    +0.000 A 
ATOM      4  C   UNL     1       4.378   6.377  17.110  0.00  0.00    +0.000 A 
ATOM      5  C   UNL     1       4.446   5.267  17.947  0.00  0.00    +0.000 A 
ATOM      6  C   UNL     1       3.339   4.363  18.172  0.00  0.00    +0.000 A 
ATOM      7  C   UNL     1       3.488   3.292  18.952  0.00  0.00    +0.000 A 
ATOM      8  C   UNL     1       4.735   2.967  19.647  0.00  0.00    +0.000 A 
ATOM      9  O   UNL     1       4.846   1.976  20.355  0.00  0.00    +0.000 OA
ATOM     10  O   UNL     1       5.782   3.870  19.451  0.00  0.00    +0.000 OA
ATOM     11  C   UNL     1       5.649   4.998  18.605  0.00  0.00    +0.000 A 
ATOM     12  C   UNL     1       6.775   5.810  18.460  0.00  0.00    +0.000 A 
ATOM     13  C   UNL     1       2.247   2.477  19.039  0.00  0.00    +0.000 C 
ATOM     14  C   UNL     1       1.199   3.443  18.478  0.00  0.00    +0.000 C 
ATOM     15  C   UNL     1       1.961   4.458  17.615  0.00  0.00    +0.000 C 
ENDBRANCH   1   2
BRANCH   1  16
ATOM     16  C   UNL     1       8.557   8.159  18.453  0.00  0.00    +0.000 C 
BRANCH  16  18
ATOM     17  N   UNL     1       9.412  10.079  19.678  0.00  0.00    +0.000 N 
ATOM     18  C   UNL     1       8.644   9.683  18.598  0.00  0.00    +0.000 C 
ATOM     19  O   UNL     1       8.108  10.406  17.766  0.00  0.00    +0.000 OA
ATOM     20  H   UNL     1      10.003   9.333  20.046  0.00  0.00    +0.000 HD
BRANCH  17  27
ATOM     21  C   UNL     1      12.326  14.068  19.039  0.00  0.00    +0.000 C 
ATOM     22  C   UNL     1      11.195  13.365  19.741  0.00  0.00    +0.000 A 
ATOM     23  C   UNL     1      10.528  14.034  20.770  0.00  0.00    +0.000 A 
ATOM     24  C   UNL     1       9.541  13.384  21.505  0.00  0.00    +0.000 A 
ATOM     25  C   UNL     1       9.179  12.060  21.220  0.00  0.00    +0.000 A 
ATOM     26 CL   UNL     1       8.190  11.317  22.429  0.00  0.00    +0.000 Cl
ATOM     27  C   UNL     1       9.749  11.387  20.125  0.00  0.00    +0.000 A 
ATOM     28  C   UNL     1      10.790  12.052  19.419  0.00  0.00    +0.000 A 
ATOM     29 CL   UNL     1      11.591  11.225  18.106  0.00  0.00    +0.000 Cl
ENDBRANCH  17  27
ENDBRANCH  16  18
ENDBRANCH   1  16
TORSDOF 4
ENDMDL
MODEL 2
REMARK VINA RESULT:      -9.2      0.393      1.958
REMARK  Name = 
REMARK  5 active torsions:
REMARK  status: ('A' for Active; 'I' for Inactive)
REMARK    1  A    between atoms: C_1  and  C_2
REMARK    2  A    between atoms: C_7  and  N_8
REMARK    3  A    between atoms: C_9  and  C_11
REMARK    4  A    between atoms: C_11  and  O_12
REMARK    5  A    between atoms: O_12  and  C_13
REMARK                            x       y       z     vdW  Elec       q    Type
REMARK                         _______ _______ _______ _____ _____    ______ ____
ROOT
ATOM      1  O   UNL     1       7.825   7.732  17.513  0.00  0.00    +0.000 OA
ENDROOT
BRANCH   1   2
ATOM      2  C   UNL     1       6.800   6.855  17.719  0.00  0.00    +0.000 A 
ATOM      3  C   UNL     1       5.628   7.173  17.023  0.00  0.00    +0.000 A 
ATOM      4  C   UNL     1       4.483   6.377  17.135  0.00  0.00    +0.000 A 
ATOM      5  C   UNL     1       4.504   5.248  17.948  0.00  0.00    +0.000 A 
ATOM      6  C   UNL     1       3.372   4.366  18.124  0.00  0.00    +0.000 A 
ATOM      7  C   UNL     1       3.476   3.274  18.883  0.00  0.00    +0.000 A 
ATOM      8  C   UNL     1       4.696   2.904  19.602  0.00  0.00    +0.000 A 
ATOM      9  O   UNL     1       4.766   1.895  20.289  0.00  0.00    +0.000 OA
ATOM     10  O   UNL     1       5.768   3.787  19.453  0.00  0.00    +0.000 OA
ATOM     11  C   UNL     1       5.683   4.935  18.630  0.00  0.00    +0.000 A 
ATOM     12  C   UNL     1       6.832   5.724  18.531  0.00  0.00    +0.000 A 
ATOM     13  C   UNL     1       2.213   2.488  18.921  0.00  0.00    +0.000 C 
ATOM     14  C   UNL     1       1.204   3.491  18.355  0.00  0.00    +0.000 C 
ATOM     15  C   UNL     1       2.010   4.506  17.536  0.00  0.00    +0.000 C 
ENDBRANCH   1   2
BRANCH   1  16
ATOM     16  C   UNL     1       8.536   8.191  18.659  0.00  0.00    +0.000 C 
BRANCH  16  18
ATOM     17  N   UNL     1       9.534  10.202  19.597  0.00  0.00    +0.000 N 
ATOM     18  C   UNL     1       8.722   9.712  18.590  0.00  0.00    +0.000 C 
ATOM     19  O   UNL     1       8.218  10.347  17.671  0.00  0.00    +0.000 OA
ATOM     20  H   UNL     1      10.083   9.477  20.059  0.00  0.00    +0.000 HD
BRANCH  17  27
ATOM     21  C   UNL     1       9.271  14.142  22.635  0.00  0.00    +0.000 C 
ATOM     22  C   UNL     1       9.832  13.454  21.419  0.00  0.00    +0.000 A 
ATOM     23  C   UNL     1      10.751  14.145  20.625  0.00  0.00    +0.000 A 
ATOM     24  C   UNL     1      11.220  13.579  19.443  0.00  0.00    +0.000 A 
ATOM     25  C   UNL     1      10.802  12.306  19.032  0.00  0.00    +0.000 A 
ATOM     26 CL   UNL     1      11.220  11.912  17.401  0.00  0.00    +0.000 Cl
ATOM     27  C   UNL     1       9.962  11.535  19.854  0.00  0.00    +0.000 A 
ATOM     28  C   UNL     1       9.457  12.149  21.033  0.00  0.00    +0.000 A 
ATOM     29 CL   UNL     1       8.340  11.264  22.043  0.00  0.00    +0.000 Cl
ENDBRANCH  17  27
ENDBRANCH  16  18
ENDBRANCH   1  16
TORSDOF 4
ENDMDL
MODEL 3
REMARK VINA RESULT:      -8.9      5.458      7.579
REMARK  Name = 
REMARK  5 active torsions:
REMARK  status: ('A' for Active; 'I' for Inactive)
REMARK    1  A    between atoms: C_1  and  C_2
REMARK    2  A    between atoms: C_7  and  N_8
REMARK    3  A    between atoms: C_9  and  C_11
REMARK    4  A    between atoms: C_11  and  O_12
REMARK    5  A    between atoms: O_12  and  C_13
REMARK                            x       y       z     vdW  Elec       q    Type
REMARK                         _______ _______ _______ _____ _____    ______ ____
ROOT
ATOM      1  O   UNL     1       3.017   3.294  20.638  0.00  0.00    +0.000 OA
ENDROOT
BRANCH   1   2
ATOM      2  C   UNL     1       3.694   3.596  19.493  0.00  0.00    +0.000 A 
ATOM      3  C   UNL     1       3.254   2.892  18.366  0.00  0.00    +0.000 A 
ATOM      4  C   UNL     1       3.852   3.082  17.116  0.00  0.00    +0.000 A 
ATOM      5  C   UNL     1       4.901   3.987  16.983  0.00  0.00    +0.000 A 
ATOM      6  C   UNL     1       5.579   4.251  15.733  0.00  0.00    +0.000 A 
ATOM      7  C   UNL     1       6.547   5.165  15.668  0.00  0.00    +0.000 A 
ATOM      8  C   UNL     1       7.011   5.934  16.825  0.00  0.00    +0.000 A 
ATOM      9  O   UNL     1       7.899   6.770  16.737  0.00  0.00    +0.000 OA
ATOM     10  O   UNL     1       6.373   5.640  18.032  0.00  0.00    +0.000 OA
ATOM     11  C   UNL     1       5.326   4.691  18.113  0.00  0.00    +0.000 A 
ATOM     12  C   UNL     1       4.741   4.508  19.368  0.00  0.00    +0.000 A 
ATOM     13  C   UNL     1       7.103   5.305  14.295  0.00  0.00    +0.000 C 
ATOM     14  C   UNL     1       6.564   4.047  13.610  0.00  0.00    +0.000 C 
ATOM     15  C   UNL     1       5.332   3.607  14.412  0.00  0.00    +0.000 C 
ENDBRANCH   1   2
BRANCH   1  16
ATOM     16  C   UNL     1       2.525   4.381  21.416  0.00  0.00    +0.000 C 
BRANCH  16  18
ATOM     17  N   UNL     1       2.318   6.629  20.508  0.00  0.00    +0.000 N 
ATOM     18  C   UNL     1       1.758   5.364  20.524  0.00  0.00    +0.000 C 
ATOM     19  O   UNL     1       0.792   4.976  19.877  0.00  0.00    +0.000 OA
ATOM     20  H   UNL     1       3.273   6.649  20.867  0.00  0.00    +0.000 HD
BRANCH  17  27
ATOM     21  C   UNL     1      -0.450  10.771  20.508  0.00  0.00    +0.000 C 
ATOM     22  C   UNL     1       0.559   9.863  19.856  0.00  0.00    +0.000 A 
ATOM     23  C   UNL     1       1.064  10.217  18.603  0.00  0.00    +0.000 A 
ATOM     24  C   UNL     1       1.925   9.359  17.926  0.00  0.00    +0.000 A 
ATOM     25  C   UNL     1       2.321   8.137  18.488  0.00  0.00    +0.000 A 
ATOM     26 CL   UNL     1       3.112   7.068  17.383  0.00  0.00    +0.000 Cl
ATOM     27  C   UNL     1       1.921   7.793  19.792  0.00  0.00    +0.000 A 
ATOM     28  C   UNL     1       1.003   8.660  20.445  0.00  0.00    +0.000 A 
ATOM     29 CL   UNL     1       0.407   8.232  22.030  0.00  0.00    +0.000 Cl
ENDBRANCH  17  27
ENDBRANCH  16  18
ENDBRANCH   1  16
TORSDOF 4
ENDMDL
MODEL 4
REMARK VINA RESULT:      -8.9      1.676      2.140
REMARK  Name = 
REMARK  5 active torsions:
REMARK  status: ('A' for Active; 'I' for Inactive)
REMARK    1  A    between atoms: C_1  and  C_2
REMARK    2  A    between atoms: C_7  and  N_8
REMARK    3  A    between atoms: C_9  and  C_11
REMARK    4  A    between atoms: C_11  and  O_12
REMARK    5  A    between atoms: O_12  and  C_13
REMARK                            x       y       z     vdW  Elec       q    Type
REMARK                         _______ _______ _______ _____ _____    ______ ____
ROOT
ATOM      1  O   UNL     1       8.228   7.713  18.081  0.00  0.00    +0.000 OA
ENDROOT
BRANCH   1   2
ATOM      2  C   UNL     1       7.145   6.887  18.153  0.00  0.00    +0.000 A 
ATOM      3  C   UNL     1       6.040   7.328  17.415  0.00  0.00    +0.000 A 
ATOM      4  C   UNL     1       4.848   6.597  17.393  0.00  0.00    +0.000 A 
ATOM      5  C   UNL     1       4.753   5.409  18.111  0.00  0.00    +0.000 A 
ATOM      6  C   UNL     1       3.564   4.586  18.147  0.00  0.00    +0.000 A 
ATOM      7  C   UNL     1       3.558   3.435  18.820  0.00  0.00    +0.000 A 
ATOM      8  C   UNL     1       4.706   2.938  19.580  0.00  0.00    +0.000 A 
ATOM      9  O   UNL     1       4.675   1.876  20.186  0.00  0.00    +0.000 OA
ATOM     10  O   UNL     1       5.833   3.762  19.567  0.00  0.00    +0.000 OA
ATOM     11  C   UNL     1       5.866   4.974  18.836  0.00  0.00    +0.000 A 
ATOM     12  C   UNL     1       7.060   5.697  18.871  0.00  0.00    +0.000 A 
ATOM     13  C   UNL     1       2.254   2.726  18.718  0.00  0.00    +0.000 C 
ATOM     14  C   UNL     1       1.340   3.829  18.175  0.00  0.00    +0.000 C 
ATOM     15  C   UNL     1       2.254   4.854  17.490  0.00  0.00    +0.000 C 
ENDBRANCH   1   2
BRANCH   1  16
ATOM     16  C   UNL     1       8.015   9.033  17.586  0.00  0.00    +0.000 C 
BRANCH  16  18
ATOM     17  N   UNL     1       8.885  11.290  17.848  0.00  0.00    +0.000 N 
ATOM     18  C   UNL     1       8.774  10.048  18.448  0.00  0.00    +0.000 C 
ATOM     19  O   UNL     1       9.159   9.731  19.568  0.00  0.00    +0.000 OA
ATOM     20  H   UNL     1       8.239  11.417  17.068  0.00  0.00    +0.000 HD
BRANCH  17  27
ATOM     21  C   UNL     1       8.420  16.207  18.498  0.00  0.00    +0.000 C 
ATOM     22  C   UNL     1       9.189  14.924  18.672  0.00  0.00    +0.000 A 
ATOM     23  C   UNL     1      10.430  14.971  19.312  0.00  0.00    +0.000 A 
ATOM     24  C   UNL     1      11.212  13.823  19.408  0.00  0.00    +0.000 A 
ATOM     25  C   UNL     1      10.771  12.599  18.888  0.00  0.00    +0.000 A 
ATOM     26 CL   UNL     1      11.995  11.380  18.802  0.00  0.00    +0.000 Cl
ATOM     27  C   UNL     1       9.484  12.486  18.332  0.00  0.00    +0.000 A 
ATOM     28  C   UNL     1       8.722  13.679  18.200  0.00  0.00    +0.000 A 
ATOM     29 CL   UNL     1       7.153  13.606  17.436  0.00  0.00    +0.000 Cl
ENDBRANCH  17  27
ENDBRANCH  16  18
ENDBRANCH   1  16
TORSDOF 4
ENDMDL
MODEL 5
REMARK VINA RESULT:      -8.6      6.294      9.571
REMARK  Name = 
REMARK  5 active torsions:
REMARK  status: ('A' for Active; 'I' for Inactive)
REMARK    1  A    between atoms: C_1  and  C_2
REMARK    2  A    between atoms: C_7  and  N_8
REMARK    3  A    between atoms: C_9  and  C_11
REMARK    4  A    between atoms: C_11  and  O_12
REMARK    5  A    between atoms: O_12  and  C_13
REMARK                            x       y       z     vdW  Elec       q    Type
REMARK                         _______ _______ _______ _____ _____    ______ ____
ROOT
ATOM      1  O   UNL     1       2.276   8.262  17.283  0.00  0.00    +0.000 OA
ENDROOT
BRANCH   1   2
ATOM      2  C   UNL     1       1.561   8.899  18.254  0.00  0.00    +0.000 A 
ATOM      3  C   UNL     1       0.654   9.847  17.766  0.00  0.00    +0.000 A 
ATOM      4  C   UNL     1      -0.149  10.592  18.636  0.00  0.00    +0.000 A 
ATOM      5  C   UNL     1      -0.052  10.391  20.009  0.00  0.00    +0.000 A 
ATOM      6  C   UNL     1      -0.841  11.113  20.983  0.00  0.00    +0.000 A 
ATOM      7  C   UNL     1      -0.729  10.837  22.283  0.00  0.00    +0.000 A 
ATOM      8  C   UNL     1       0.193   9.834  22.819  0.00  0.00    +0.000 A 
ATOM      9  O   UNL     1       0.273   9.598  24.016  0.00  0.00    +0.000 OA
ATOM     10  O   UNL     1       0.976   9.173  21.869  0.00  0.00    +0.000 OA
ATOM     11  C   UNL     1       0.851   9.435  20.484  0.00  0.00    +0.000 A 
ATOM     12  C   UNL     1       1.662   8.687  19.628  0.00  0.00    +0.000 A 
ATOM     13  C   UNL     1      -1.637  11.668  23.119  0.00  0.00    +0.000 C 
ATOM     14  C   UNL     1      -2.050  12.765  22.134  0.00  0.00    +0.000 C 
ATOM     15  C   UNL     1      -1.834  12.193  20.728  0.00  0.00    +0.000 C 
ENDBRANCH   1   2
BRANCH   1  16
ATOM     16  C   UNL     1       3.680   8.123  17.487  0.00  0.00    +0.000 C 
BRANCH  16  18
ATOM     17  N   UNL     1       2.893   5.884  18.026  0.00  0.00    +0.000 N 
ATOM     18  C   UNL     1       4.016   6.677  17.871  0.00  0.00    +0.000 C 
ATOM     19  O   UNL     1       5.187   6.325  17.956  0.00  0.00    +0.000 OA
ATOM     20  H   UNL     1       2.054   6.294  17.615  0.00  0.00    +0.000 HD
BRANCH  17  27
ATOM     21  C   UNL     1       1.458   2.489  21.377  0.00  0.00    +0.000 C 
ATOM     22  C   UNL     1       2.023   2.849  20.029  0.00  0.00    +0.000 A 
ATOM     23  C   UNL     1       2.394   1.818  19.163  0.00  0.00    +0.000 A 
ATOM     24  C   UNL     1       3.006   2.109  17.947  0.00  0.00    +0.000 A 
ATOM     25  C   UNL     1       3.245   3.433  17.555  0.00  0.00    +0.000 A 
ATOM     26 CL   UNL     1       4.298   3.592  16.192  0.00  0.00    +0.000 Cl
ATOM     27  C   UNL     1       2.791   4.502  18.347  0.00  0.00    +0.000 A 
ATOM     28  C   UNL     1       2.212   4.183  19.606  0.00  0.00    +0.000 A 
ATOM     29 CL   UNL     1       1.712   5.477  20.666  0.00  0.00    +0.000 Cl
ENDBRANCH  17  27
ENDBRANCH  16  18
ENDBRANCH   1  16
TORSDOF 4
ENDMDL
MODEL 6
REMARK VINA RESULT:      -8.5      6.600      9.208
REMARK  Name = 
REMARK  5 active torsions:
REMARK  status: ('A' for Active; 'I' for Inactive)
REMARK    1  A    between atoms: C_1  and  C_2
REMARK    2  A    between atoms: C_7  and  N_8
REMARK    3  A    between atoms: C_9  and  C_11
REMARK    4  A    between atoms: C_11  and  O_12
REMARK    5  A    between atoms: O_12  and  C_13
REMARK                            x       y       z     vdW  Elec       q    Type
REMARK                         _______ _______ _______ _____ _____    ______ ____
ROOT
ATOM      1  O   UNL     1       0.634   8.991  20.403  0.00  0.00    +0.000 OA
ENDROOT
BRANCH   1   2
ATOM      2  C   UNL     1       1.562   8.260  19.721  0.00  0.00    +0.000 A 
ATOM      3  C   UNL     1       1.915   8.802  18.480  0.00  0.00    +0.000 A 
ATOM      4  C   UNL     1       2.848   8.166  17.654  0.00  0.00    +0.000 A 
ATOM      5  C   UNL     1       3.442   6.978  18.069  0.00  0.00    +0.000 A 
ATOM      6  C   UNL     1       4.417   6.252  17.286  0.00  0.00    +0.000 A 
ATOM      7  C   UNL     1       4.980   5.143  17.765  0.00  0.00    +0.000 A 
ATOM      8  C   UNL     1       4.649   4.568  19.070  0.00  0.00    +0.000 A 
ATOM      9  O   UNL     1       5.183   3.551  19.488  0.00  0.00    +0.000 OA
ATOM     10  O   UNL     1       3.677   5.259  19.798  0.00  0.00    +0.000 OA
ATOM     11  C   UNL     1       3.089   6.453  19.315  0.00  0.00    +0.000 A 
ATOM     12  C   UNL     1       2.155   7.074  20.147  0.00  0.00    +0.000 A 
ATOM     13  C   UNL     1       5.970   4.557  16.822  0.00  0.00    +0.000 C 
ATOM     14  C   UNL     1       5.636   5.294  15.521  0.00  0.00    +0.000 C 
ATOM     15  C   UNL     1       4.923   6.590  15.926  0.00  0.00    +0.000 C 
ENDBRANCH   1   2
BRANCH   1  16
ATOM     16  C   UNL     1       0.859  10.393  20.522  0.00  0.00    +0.000 C 
BRANCH  16  18
ATOM     17  N   UNL     1      -1.324  10.596  19.469  0.00  0.00    +0.000 N 
ATOM     18  C   UNL     1      -0.065  11.159  19.569  0.00  0.00    +0.000 C 
ATOM     19  O   UNL     1       0.329  12.190  19.035  0.00  0.00    +0.000 OA
ATOM     20  H   UNL     1      -1.528   9.935  20.219  0.00  0.00    +0.000 HD
BRANCH  17  27
ATOM     21  C   UNL     1      -3.742  10.403  15.118  0.00  0.00    +0.000 C 
ATOM     22  C   UNL     1      -3.644  10.861  16.548  0.00  0.00    +0.000 A 
ATOM     23  C   UNL     1      -4.669  11.655  17.067  0.00  0.00    +0.000 A 
ATOM     24  C   UNL     1      -4.570  12.175  18.354  0.00  0.00    +0.000 A 
ATOM     25  C   UNL     1      -3.458  11.902  19.163  0.00  0.00    +0.000 A 
ATOM     26 CL   UNL     1      -3.349  12.888  20.580  0.00  0.00    +0.000 Cl
ATOM     27  C   UNL     1      -2.456  11.022  18.719  0.00  0.00    +0.000 A 
ATOM     28  C   UNL     1      -2.553  10.540  17.384  0.00  0.00    +0.000 A 
ATOM     29 CL   UNL     1      -1.287   9.514  16.755  0.00  0.00    +0.000 Cl
ENDBRANCH  17  27
ENDBRANCH  16  18
ENDBRANCH   1  16
TORSDOF 4
ENDMDL
MODEL 7
REMARK VINA RESULT:      -8.5      6.854      8.949
REMARK  Name = 
REMARK  5 active torsions:
REMARK  status: ('A' for Active; 'I' for Inactive)
REMARK    1  A    between atoms: C_1  and  C_2
REMARK    2  A    between atoms: C_7  and  N_8
REMARK    3  A    between atoms: C_9  and  C_11
REMARK    4  A    between atoms: C_11  and  O_12
REMARK    5  A    between atoms: O_12  and  C_13
REMARK                            x       y       z     vdW  Elec       q    Type
REMARK                         _______ _______ _______ _____ _____    ______ ____
ROOT
ATOM      1  O   UNL     1       1.395   9.310  19.777  0.00  0.00    +0.000 OA
ENDROOT
BRANCH   1   2
ATOM      2  C   UNL     1       1.773   8.008  19.622  0.00  0.00    +0.000 A 
ATOM      3  C   UNL     1       2.213   7.691  18.331  0.00  0.00    +0.000 A 
ATOM      4  C   UNL     1       2.626   6.395  18.008  0.00  0.00    +0.000 A 
ATOM      5  C   UNL     1       2.604   5.399  18.981  0.00  0.00    +0.000 A 
ATOM      6  C   UNL     1       3.013   4.033  18.740  0.00  0.00    +0.000 A 
ATOM      7  C   UNL     1       3.010   3.141  19.731  0.00  0.00    +0.000 A 
ATOM      8  C   UNL     1       2.579   3.451  21.095  0.00  0.00    +0.000 A 
ATOM      9  O   UNL     1       2.589   2.615  21.987  0.00  0.00    +0.000 OA
ATOM     10  O   UNL     1       2.150   4.764  21.302  0.00  0.00    +0.000 OA
ATOM     11  C   UNL     1       2.172   5.731  20.268  0.00  0.00    +0.000 A 
ATOM     12  C   UNL     1       1.752   7.020  20.604  0.00  0.00    +0.000 A 
ATOM     13  C   UNL     1       3.484   1.802  19.289  0.00  0.00    +0.000 C 
ATOM     14  C   UNL     1       3.419   1.935  17.765  0.00  0.00    +0.000 C 
ATOM     15  C   UNL     1       3.475   3.436  17.456  0.00  0.00    +0.000 C 
ENDBRANCH   1   2
BRANCH   1  16
ATOM     16  C   UNL     1       1.473  10.156  18.633  0.00  0.00    +0.000 C 
BRANCH  16  18
ATOM     17  N   UNL     1      -0.859  10.718  19.040  0.00  0.00    +0.000 N 
ATOM     18  C   UNL     1       0.379  11.229  18.696  0.00  0.00    +0.000 C 
ATOM     19  O   UNL     1       0.667  12.405  18.505  0.00  0.00    +0.000 OA
ATOM     20  H   UNL     1      -0.809   9.783  19.446  0.00  0.00    +0.000 HD
BRANCH  17  27
ATOM     21  C   UNL     1      -5.455  11.516  17.291  0.00  0.00    +0.000 C 
ATOM     22  C   UNL     1      -4.393  11.720  18.338  0.00  0.00    +0.000 A 
ATOM     23  C   UNL     1      -4.686  12.530  19.438  0.00  0.00    +0.000 A 
ATOM     24  C   UNL     1      -3.700  12.818  20.378  0.00  0.00    +0.000 A 
ATOM     25  C   UNL     1      -2.407  12.292  20.257  0.00  0.00    +0.000 A 
ATOM     26 CL   UNL     1      -1.244  13.013  21.314  0.00  0.00    +0.000 Cl
ATOM     27  C   UNL     1      -2.102  11.387  19.225  0.00  0.00    +0.000 A 
ATOM     28  C   UNL     1      -3.107  11.144  18.250  0.00  0.00    +0.000 A 
ATOM     29 CL   UNL     1      -2.748  10.097  16.899  0.00  0.00    +0.000 Cl
ENDBRANCH  17  27
ENDBRANCH  16  18
ENDBRANCH   1  16
TORSDOF 4
ENDMDL
MODEL 8
REMARK VINA RESULT:      -8.4      3.017     10.418
REMARK  Name = 
REMARK  5 active torsions:
REMARK  status: ('A' for Active; 'I' for Inactive)
REMARK    1  A    between atoms: C_1  and  C_2
REMARK    2  A    between atoms: C_7  and  N_8
REMARK    3  A    between atoms: C_9  and  C_11
REMARK    4  A    between atoms: C_11  and  O_12
REMARK    5  A    between atoms: O_12  and  C_13
REMARK                            x       y       z     vdW  Elec       q    Type
REMARK                         _______ _______ _______ _____ _____    ______ ____
ROOT
ATOM      1  O   UNL     1       8.963   9.042  18.662  0.00  0.00    +0.000 OA
ENDROOT
BRANCH   1   2
ATOM      2  C   UNL     1       9.309  10.339  18.905  0.00  0.00    +0.000 A 
ATOM      3  C   UNL     1       9.363  10.669  20.264  0.00  0.00    +0.000 A 
ATOM      4  C   UNL     1       9.695  11.963  20.679  0.00  0.00    +0.000 A 
ATOM      5  C   UNL     1       9.980  12.942  19.731  0.00  0.00    +0.000 A 
ATOM      6  C   UNL     1      10.333  14.303  20.065  0.00  0.00    +0.000 A 
ATOM      7  C   UNL     1      10.638  15.178  19.106  0.00  0.00    +0.000 A 
ATOM      8  C   UNL     1      10.614  14.852  17.679  0.00  0.00    +0.000 A 
ATOM      9  O   UNL     1      10.902  15.673  16.819  0.00  0.00    +0.000 OA
ATOM     10  O   UNL     1      10.233  13.544  17.371  0.00  0.00    +0.000 OA
ATOM     11  C   UNL     1       9.932  12.596  18.378  0.00  0.00    +0.000 A 
ATOM     12  C   UNL     1       9.597  11.310  17.949  0.00  0.00    +0.000 A 
ATOM     13  C   UNL     1      10.995  16.516  19.651  0.00  0.00    +0.000 C 
ATOM     14  C   UNL     1      10.487  16.411  21.092  0.00  0.00    +0.000 C 
ATOM     15  C   UNL     1      10.416  14.914  21.422  0.00  0.00    +0.000 C 
ENDBRANCH   1   2
BRANCH   1  16
ATOM     16  C   UNL     1       7.866   8.809  17.783  0.00  0.00    +0.000 C 
BRANCH  16  18
ATOM     17  N   UNL     1       6.188   7.135  17.233  0.00  0.00    +0.000 N 
ATOM     18  C   UNL     1       7.325   7.388  17.979  0.00  0.00    +0.000 C 
ATOM     19  O   UNL     1       7.929   6.598  18.696  0.00  0.00    +0.000 OA
ATOM     20  H   UNL     1       6.038   7.816  16.488  0.00  0.00    +0.000 HD
BRANCH  17  27
ATOM     21  C   UNL     1       1.771   4.959  17.985  0.00  0.00    +0.000 C 
ATOM     22  C   UNL     1       3.187   4.918  17.478  0.00  0.00    +0.000 A 
ATOM     23  C   UNL     1       3.659   3.732  16.911  0.00  0.00    +0.000 A 
ATOM     24  C   UNL     1       4.990   3.625  16.516  0.00  0.00    +0.000 A 
ATOM     25  C   UNL     1       5.877   4.701  16.656  0.00  0.00    +0.000 A 
ATOM     26 CL   UNL     1       7.540   4.287  16.428  0.00  0.00    +0.000 Cl
ATOM     27  C   UNL     1       5.416   5.945  17.122  0.00  0.00    +0.000 A 
ATOM     28  C   UNL     1       4.066   6.019  17.565  0.00  0.00    +0.000 A 
ATOM     29 CL   UNL     1       3.471   7.517  18.235  0.00  0.00    +0.000 Cl
ENDBRANCH  17  27
ENDBRANCH  16  18
ENDBRANCH   1  16
TORSDOF 4
ENDMDL
MODEL 9
REMARK VINA RESULT:      -8.4      6.640      7.761
REMARK  Name = 
REMARK  5 active torsions:
REMARK  status: ('A' for Active; 'I' for Inactive)
REMARK    1  A    between atoms: C_1  and  C_2
REMARK    2  A    between atoms: C_7  and  N_8
REMARK    3  A    between atoms: C_9  and  C_11
REMARK    4  A    between atoms: C_11  and  O_12
REMARK    5  A    between atoms: O_12  and  C_13
REMARK                            x       y       z     vdW  Elec       q    Type
REMARK                         _______ _______ _______ _____ _____    ______ ____
ROOT
ATOM      1  O   UNL     1       0.679   9.046  20.140  0.00  0.00    +0.000 OA
ENDROOT
BRANCH   1   2
ATOM      2  C   UNL     1       1.613   8.278  19.509  0.00  0.00    +0.000 A 
ATOM      3  C   UNL     1       2.022   8.781  18.268  0.00  0.00    +0.000 A 
ATOM      4  C   UNL     1       2.968   8.105  17.492  0.00  0.00    +0.000 A 
ATOM      5  C   UNL     1       3.519   6.914  17.955  0.00  0.00    +0.000 A 
ATOM      6  C   UNL     1       4.504   6.148  17.224  0.00  0.00    +0.000 A 
ATOM      7  C   UNL     1       5.024   5.038  17.749  0.00  0.00    +0.000 A 
ATOM      8  C   UNL     1       4.633   4.503  19.055  0.00  0.00    +0.000 A 
ATOM      9  O   UNL     1       5.128   3.484  19.515  0.00  0.00    +0.000 OA
ATOM     10  O   UNL     1       3.654   5.233  19.731  0.00  0.00    +0.000 OA
ATOM     11  C   UNL     1       3.111   6.428  19.200  0.00  0.00    +0.000 A 
ATOM     12  C   UNL     1       2.163   7.089  19.984  0.00  0.00    +0.000 A 
ATOM     13  C   UNL     1       6.032   4.407  16.856  0.00  0.00    +0.000 C 
ATOM     14  C   UNL     1       5.762   5.119  15.528  0.00  0.00    +0.000 C 
ATOM     15  C   UNL     1       5.066   6.441  15.876  0.00  0.00    +0.000 C 
ENDBRANCH   1   2
BRANCH   1  16
ATOM     16  C   UNL     1       0.349   8.707  21.484  0.00  0.00    +0.000 C 
BRANCH  16  18
ATOM     17  N   UNL     1      -0.195  11.077  21.554  0.00  0.00    +0.000 N 
ATOM     18  C   UNL     1       0.158   9.979  22.318  0.00  0.00    +0.000 C 
ATOM     19  O   UNL     1       0.267   9.931  23.538  0.00  0.00    +0.000 OA
ATOM     20  H   UNL     1      -0.524  10.827  20.621  0.00  0.00    +0.000 HD
BRANCH  17  27
ATOM     21  C   UNL     1       1.321  15.822  21.611  0.00  0.00    +0.000 C 
ATOM     22  C   UNL     1       0.294  14.766  21.921  0.00  0.00    +0.000 A 
ATOM     23  C   UNL     1      -0.886  15.150  22.562  0.00  0.00    +0.000 A 
ATOM     24  C   UNL     1      -1.817  14.190  22.949  0.00  0.00    +0.000 A 
ATOM     25  C   UNL     1      -1.606  12.829  22.692  0.00  0.00    +0.000 A 
ATOM     26 CL   UNL     1      -2.688  11.770  23.527  0.00  0.00    +0.000 Cl
ATOM     27  C   UNL     1      -0.483  12.412  21.955  0.00  0.00    +0.000 A 
ATOM     28  C   UNL     1       0.479  13.401  21.611  0.00  0.00    +0.000 A 
ATOM     29 CL   UNL     1       1.933  12.920  20.774  0.00  0.00    +0.000 Cl
ENDBRANCH  17  27
ENDBRANCH  16  18
ENDBRANCH   1  16
TORSDOF 4
ENDMDL
