MODEL 1
REMARK VINA RESULT:      -8.2      0.000      0.000
REMARK  Name = 
REMARK  8 active torsions:
REMARK  status: ('A' for Active; 'I' for Inactive)
REMARK    1  A    between atoms: C_1  and  C_2
REMARK    2  A    between atoms: C_4  and  C_5
REMARK    3  A    between atoms: C_9  and  C_10
REMARK    4  A    between atoms: N_12  and  C_13
REMARK    5  A    between atoms: C_17  and  C_18
REMARK    6  A    between atoms: C_19  and  C_20
REMARK    7  A    between atoms: N_22  and  C_23
REMARK    8  A    between atoms: C_24  and  C_25
REMARK                            x       y       z     vdW  Elec       q    Type
REMARK                         _______ _______ _______ _____ _____    ______ ____
ROOT
ATOM      1  C   UNL     1       1.532   9.646  18.098  0.00  0.00    +0.000 C 
ATOM      2  O   UNL     1       2.114  10.721  18.149  0.00  0.00    +0.000 OA
ATOM      3  N   UNL     1       0.163   9.525  17.970  0.00  0.00    +0.000 N 
ATOM      4  H   UNL     1      -0.244   8.605  18.067  0.00  0.00    +0.000 HD
ENDROOT
BRANCH   1   9
ATOM      5  C   UNL     1       4.029   6.808  17.513  0.00  0.00    +0.000 A 
ATOM      6  C   UNL     1       3.736   5.996  18.622  0.00  0.00    +0.000 A 
ATOM      7  C   UNL     1       2.777   6.385  19.552  0.00  0.00    +0.000 A 
ATOM      8  C   UNL     1       2.082   7.582  19.374  0.00  0.00    +0.000 A 
ATOM      9  C   UNL     1       2.312   8.377  18.233  0.00  0.00    +0.000 A 
ATOM     10  C   UNL     1       3.288   7.986  17.307  0.00  0.00    +0.000 A 
BRANCH   5  14
ATOM     11  C   UNL     1       6.866   4.324  14.364  0.00  0.00    +0.000 C 
ATOM     12  C   UNL     1       6.348   5.317  15.328  0.00  0.00    +0.000 A 
ATOM     13  N   UNL     1       5.099   5.532  15.671  0.00  0.00    +0.000 NA
ATOM     14  C   UNL     1       5.183   6.468  16.682  0.00  0.00    +0.000 A 
ATOM     15  N   UNL     1       6.434   6.892  16.918  0.00  0.00    +0.000 NA
ATOM     16  N   UNL     1       7.150   6.129  16.074  0.00  0.00    +0.000 N 
ATOM     17  H   UNL     1       8.162   6.184  16.091  0.00  0.00    +0.000 HD
ENDBRANCH   5  14
ENDBRANCH   1   9
BRANCH   3  18
ATOM     18  C   UNL     1      -0.774  10.664  18.008  0.00  0.00    +0.000 C 
ATOM     19  C   UNL     1      -1.983  10.482  17.103  0.00  0.00    +0.000 C 
ATOM     20  C   UNL     1      -2.960  11.484  17.664  0.00  0.00    +0.000 C 
ATOM     21  O   UNL     1      -2.763  11.494  19.078  0.00  0.00    +0.000 OA
ATOM     22  C   UNL     1      -1.420  11.029  19.370  0.00  0.00    +0.000 C 
BRANCH  22  23
ATOM     23  C   UNL     1      -0.656  12.061  20.175  0.00  0.00    +0.000 A 
ATOM     24  C   UNL     1      -0.370  12.005  21.573  0.00  0.00    +0.000 A 
ATOM     25  C   UNL     1      -0.757  10.982  22.576  0.00  0.00    +0.000 C 
ATOM     26  N   UNL     1       0.295  13.084  21.994  0.00  0.00    +0.000 NA
ATOM     27  N   UNL     1       0.350  13.883  20.920  0.00  0.00    +0.000 N 
ATOM     28  C   UNL     1       0.846  15.229  21.092  0.00  0.00    +0.000 C 
ATOM     29  C   UNL     1      -0.160  13.306  19.784  0.00  0.00    +0.000 A 
ATOM     30  C   UNL     1      -0.186  14.006  18.471  0.00  0.00    +0.000 C 
ENDBRANCH  22  23
ENDBRANCH   3  18
TORSDOF 4
ENDMDL
MODEL 2
REMARK VINA RESULT:      -8.0      1.978      3.248
REMARK  Name = 
REMARK  8 active torsions:
REMARK  status: ('A' for Active; 'I' for Inactive)
REMARK    1  A    between atoms: C_1  and  C_2
REMARK    2  A    between atoms: C_4  and  C_5
REMARK    3  A    between atoms: C_9  and  C_10
REMARK    4  A    between atoms: N_12  and  C_13
REMARK    5  A    between atoms: C_17  and  C_18
REMARK    6  A    between atoms: C_19  and  C_20
REMARK    7  A    between atoms: N_22  and  C_23
REMARK    8  A    between atoms: C_24  and  C_25
REMARK                            x       y       z     vdW  Elec       q    Type
REMARK                         _______ _______ _______ _____ _____    ______ ____
ROOT
ATOM      1  C   UNL     1       1.703   9.254  18.577  0.00  0.00    +0.000 C 
ATOM      2  O   UNL     1       2.100   9.880  17.602  0.00  0.00    +0.000 OA
ATOM      3  N   UNL     1       0.823   9.770  19.507  0.00  0.00    +0.000 N 
ATOM      4  H   UNL     1       0.651   9.234  20.346  0.00  0.00    +0.000 HD
ENDROOT
BRANCH   1   9
ATOM      5  C   UNL     1       3.656   5.976  18.314  0.00  0.00    +0.000 A 
ATOM      6  C   UNL     1       3.146   5.301  19.436  0.00  0.00    +0.000 A 
ATOM      7  C   UNL     1       2.221   5.916  20.274  0.00  0.00    +0.000 A 
ATOM      8  C   UNL     1       1.775   7.207  19.987  0.00  0.00    +0.000 A 
ATOM      9  C   UNL     1       2.221   7.875  18.829  0.00  0.00    +0.000 A 
ATOM     10  C   UNL     1       3.163   7.255  17.998  0.00  0.00    +0.000 A 
BRANCH   5  14
ATOM     11  C   UNL     1       6.190   3.912  14.646  0.00  0.00    +0.000 C 
ATOM     12  C   UNL     1       5.786   4.473  15.953  0.00  0.00    +0.000 A 
ATOM     13  N   UNL     1       4.765   5.257  16.212  0.00  0.00    +0.000 NA
ATOM     14  C   UNL     1       4.775   5.380  17.587  0.00  0.00    +0.000 A 
ATOM     15  N   UNL     1       5.813   4.763  18.173  0.00  0.00    +0.000 NA
ATOM     16  N   UNL     1       6.415   4.174  17.126  0.00  0.00    +0.000 N 
ATOM     17  H   UNL     1       7.207   3.563  17.285  0.00  0.00    +0.000 HD
ENDBRANCH   5  14
ENDBRANCH   1   9
BRANCH   3  18
ATOM     18  C   UNL     1       0.356  11.169  19.516  0.00  0.00    +0.000 C 
ATOM     19  C   UNL     1       1.485  12.184  19.598  0.00  0.00    +0.000 C 
ATOM     20  C   UNL     1       0.818  13.449  19.120  0.00  0.00    +0.000 C 
ATOM     21  O   UNL     1      -0.103  13.061  18.101  0.00  0.00    +0.000 OA
ATOM     22  C   UNL     1      -0.464  11.669  18.297  0.00  0.00    +0.000 C 
BRANCH  22  23
ATOM     23  C   UNL     1      -1.964  11.516  18.438  0.00  0.00    +0.000 A 
ATOM     24  C   UNL     1      -2.825  10.759  17.585  0.00  0.00    +0.000 A 
ATOM     25  C   UNL     1      -2.498   9.980  16.365  0.00  0.00    +0.000 C 
ATOM     26  N   UNL     1      -4.105  10.848  17.955  0.00  0.00    +0.000 NA
ATOM     27  N   UNL     1      -4.101  11.731  18.962  0.00  0.00    +0.000 N 
ATOM     28  C   UNL     1      -5.372  12.198  19.469  0.00  0.00    +0.000 C 
ATOM     29  C   UNL     1      -2.842  12.132  19.332  0.00  0.00    +0.000 A 
ATOM     30  C   UNL     1      -2.600  13.096  20.439  0.00  0.00    +0.000 C 
ENDBRANCH  22  23
ENDBRANCH   3  18
TORSDOF 4
ENDMDL
MODEL 3
REMARK VINA RESULT:      -7.8      1.928      3.165
REMARK  Name = 
REMARK  8 active torsions:
REMARK  status: ('A' for Active; 'I' for Inactive)
REMARK    1  A    between atoms: C_1  and  C_2
REMARK    2  A    between atoms: C_4  and  C_5
REMARK    3  A    between atoms: C_9  and  C_10
REMARK    4  A    between atoms: N_12  and  C_13
REMARK    5  A    between atoms: C_17  and  C_18
REMARK    6  A    between atoms: C_19  and  C_20
REMARK    7  A    between atoms: N_22  and  C_23
REMARK    8  A    between atoms: C_24  and  C_25
REMARK                            x       y       z     vdW  Elec       q    Type
REMARK                         _______ _______ _______ _____ _____    ______ ____
ROOT
ATOM      1  C   UNL     1       1.690   9.393  18.653  0.00  0.00    +0.000 C 
ATOM      2  O   UNL     1       2.026   9.961  17.622  0.00  0.00    +0.000 OA
ATOM      3  N   UNL     1       0.940   9.994  19.644  0.00  0.00    +0.000 N 
ATOM      4  H   UNL     1       0.820   9.496  20.516  0.00  0.00    +0.000 HD
ENDROOT
BRANCH   1   9
ATOM      5  C   UNL     1       3.460   6.015  18.366  0.00  0.00    +0.000 A 
ATOM      6  C   UNL     1       2.955   5.380  19.513  0.00  0.00    +0.000 A 
ATOM      7  C   UNL     1       2.093   6.051  20.373  0.00  0.00    +0.000 A 
ATOM      8  C   UNL     1       1.704   7.360  20.086  0.00  0.00    +0.000 A 
ATOM      9  C   UNL     1       2.144   7.992  18.905  0.00  0.00    +0.000 A 
ATOM     10  C   UNL     1       3.024   7.314  18.050  0.00  0.00    +0.000 A 
BRANCH   5  14
ATOM     11  C   UNL     1       6.160   4.557  14.529  0.00  0.00    +0.000 C 
ATOM     12  C   UNL     1       5.618   4.755  15.889  0.00  0.00    +0.000 A 
ATOM     13  N   UNL     1       4.811   5.703  16.305  0.00  0.00    +0.000 NA
ATOM     14  C   UNL     1       4.522   5.353  17.609  0.00  0.00    +0.000 A 
ATOM     15  N   UNL     1       5.185   4.266  18.031  0.00  0.00    +0.000 NA
ATOM     16  N   UNL     1       5.843   3.891  16.921  0.00  0.00    +0.000 N 
ATOM     17  H   UNL     1       6.381   3.033  16.926  0.00  0.00    +0.000 HD
ENDBRANCH   5  14
ENDBRANCH   1   9
BRANCH   3  18
ATOM     18  C   UNL     1       0.563  11.419  19.646  0.00  0.00    +0.000 C 
ATOM     19  C   UNL     1       1.754  12.361  19.730  0.00  0.00    +0.000 C 
ATOM     20  C   UNL     1       1.172  13.663  19.245  0.00  0.00    +0.000 C 
ATOM     21  O   UNL     1       0.232  13.332  18.223  0.00  0.00    +0.000 OA
ATOM     22  C   UNL     1      -0.218  11.967  18.422  0.00  0.00    +0.000 C 
BRANCH  22  23
ATOM     23  C   UNL     1      -1.726  11.910  18.557  0.00  0.00    +0.000 A 
ATOM     24  C   UNL     1      -2.502  12.427  19.638  0.00  0.00    +0.000 A 
ATOM     25  C   UNL     1      -2.057  13.099  20.884  0.00  0.00    +0.000 C 
ATOM     26  N   UNL     1      -3.807  12.191  19.479  0.00  0.00    +0.000 NA
ATOM     27  N   UNL     1      -3.878  11.441  18.371  0.00  0.00    +0.000 N 
ATOM     28  C   UNL     1      -5.151  10.850  18.024  0.00  0.00    +0.000 C 
ATOM     29  C   UNL     1      -2.669  11.277  17.744  0.00  0.00    +0.000 A 
ATOM     30  C   UNL     1      -2.515  10.493  16.488  0.00  0.00    +0.000 C 
ENDBRANCH  22  23
ENDBRANCH   3  18
TORSDOF 4
ENDMDL
MODEL 4
REMARK VINA RESULT:      -7.7      2.091      3.535
REMARK  Name = 
REMARK  8 active torsions:
REMARK  status: ('A' for Active; 'I' for Inactive)
REMARK    1  A    between atoms: C_1  and  C_2
REMARK    2  A    between atoms: C_4  and  C_5
REMARK    3  A    between atoms: C_9  and  C_10
REMARK    4  A    between atoms: N_12  and  C_13
REMARK    5  A    between atoms: C_17  and  C_18
REMARK    6  A    between atoms: C_19  and  C_20
REMARK    7  A    between atoms: N_22  and  C_23
REMARK    8  A    between atoms: C_24  and  C_25
REMARK                            x       y       z     vdW  Elec       q    Type
REMARK                         _______ _______ _______ _____ _____    ______ ____
ROOT
ATOM      1  C   UNL     1       1.158   9.219  20.282  0.00  0.00    +0.000 C 
ATOM      2  O   UNL     1       1.054   9.516  21.465  0.00  0.00    +0.000 OA
ATOM      3  N   UNL     1       0.786  10.058  19.250  0.00  0.00    +0.000 N 
ATOM      4  H   UNL     1       0.785   9.683  18.311  0.00  0.00    +0.000 HD
ENDROOT
BRANCH   1   9
ATOM      5  C   UNL     1       2.905   6.343  18.464  0.00  0.00    +0.000 A 
ATOM      6  C   UNL     1       2.583   5.282  19.327  0.00  0.00    +0.000 A 
ATOM      7  C   UNL     1       1.849   5.508  20.487  0.00  0.00    +0.000 A 
ATOM      8  C   UNL     1       1.407   6.797  20.789  0.00  0.00    +0.000 A 
ATOM      9  C   UNL     1       1.661   7.863  19.903  0.00  0.00    +0.000 A 
ATOM     10  C   UNL     1       2.412   7.630  18.743  0.00  0.00    +0.000 A 
BRANCH   5  14
ATOM     11  C   UNL     1       6.082   3.964  15.569  0.00  0.00    +0.000 C 
ATOM     12  C   UNL     1       5.227   4.997  16.190  0.00  0.00    +0.000 A 
ATOM     13  N   UNL     1       4.206   4.820  16.996  0.00  0.00    +0.000 NA
ATOM     14  C   UNL     1       3.850   6.099  17.376  0.00  0.00    +0.000 A 
ATOM     15  N   UNL     1       4.568   7.057  16.771  0.00  0.00    +0.000 NA
ATOM     16  N   UNL     1       5.448   6.337  16.055  0.00  0.00    +0.000 N 
ATOM     17  H   UNL     1       6.181   6.812  15.542  0.00  0.00    +0.000 HD
ENDBRANCH   5  14
ENDBRANCH   1   9
BRANCH   3  18
ATOM     18  C   UNL     1       0.105  11.351  19.441  0.00  0.00    +0.000 C 
ATOM     19  C   UNL     1       1.057  12.497  19.746  0.00  0.00    +0.000 C 
ATOM     20  C   UNL     1       0.219  13.708  19.424  0.00  0.00    +0.000 C 
ATOM     21  O   UNL     1      -0.591  13.355  18.303  0.00  0.00    +0.000 OA
ATOM     22  C   UNL     1      -0.735  11.912  18.264  0.00  0.00    +0.000 C 
BRANCH  22  23
ATOM     23  C   UNL     1      -2.198  11.516  18.285  0.00  0.00    +0.000 A 
ATOM     24  C   UNL     1      -2.871  10.698  17.328  0.00  0.00    +0.000 A 
ATOM     25  C   UNL     1      -2.349  10.071  16.088  0.00  0.00    +0.000 C 
ATOM     26  N   UNL     1      -4.170  10.558  17.609  0.00  0.00    +0.000 NA
ATOM     27  N   UNL     1      -4.370  11.356  18.666  0.00  0.00    +0.000 N 
ATOM     28  C   UNL     1      -5.727  11.581  19.107  0.00  0.00    +0.000 C 
ATOM     29  C   UNL     1      -3.217  11.921  19.150  0.00  0.00    +0.000 A 
ATOM     30  C   UNL     1      -3.201  12.828  20.330  0.00  0.00    +0.000 C 
ENDBRANCH  22  23
ENDBRANCH   3  18
TORSDOF 4
ENDMDL
MODEL 5
REMARK VINA RESULT:      -7.6      4.114      9.734
REMARK  Name = 
REMARK  8 active torsions:
REMARK  status: ('A' for Active; 'I' for Inactive)
REMARK    1  A    between atoms: C_1  and  C_2
REMARK    2  A    between atoms: C_4  and  C_5
REMARK    3  A    between atoms: C_9  and  C_10
REMARK    4  A    between atoms: N_12  and  C_13
REMARK    5  A    between atoms: C_17  and  C_18
REMARK    6  A    between atoms: C_19  and  C_20
REMARK    7  A    between atoms: N_22  and  C_23
REMARK    8  A    between atoms: C_24  and  C_25
REMARK                            x       y       z     vdW  Elec       q    Type
REMARK                         _______ _______ _______ _____ _____    ______ ____
ROOT
ATOM      1  C   UNL     1      -3.025  11.554  18.487  0.00  0.00    +0.000 C 
ATOM      2  O   UNL     1      -2.574  10.474  18.130  0.00  0.00    +0.000 OA
ATOM      3  N   UNL     1      -2.238  12.645  18.799  0.00  0.00    +0.000 N 
ATOM      4  H   UNL     1      -2.687  13.452  19.209  0.00  0.00    +0.000 HD
ENDROOT
BRANCH   1   9
ATOM      5  C   UNL     1      -6.521  11.858  20.009  0.00  0.00    +0.000 A 
ATOM      6  C   UNL     1      -7.273  12.082  18.844  0.00  0.00    +0.000 A 
ATOM      7  C   UNL     1      -6.649  12.169  17.604  0.00  0.00    +0.000 A 
ATOM      8  C   UNL     1      -5.267  12.010  17.508  0.00  0.00    +0.000 A 
ATOM      9  C   UNL     1      -4.502  11.717  18.656  0.00  0.00    +0.000 A 
ATOM     10  C   UNL     1      -5.135  11.644  19.904  0.00  0.00    +0.000 A 
BRANCH   5  14
ATOM     11  C   UNL     1      -7.911  13.799  24.304  0.00  0.00    +0.000 C 
ATOM     12  C   UNL     1      -7.716  12.893  23.152  0.00  0.00    +0.000 A 
ATOM     13  N   UNL     1      -7.309  13.203  21.943  0.00  0.00    +0.000 NA
ATOM     14  C   UNL     1      -7.185  11.985  21.306  0.00  0.00    +0.000 A 
ATOM     15  N   UNL     1      -7.575  10.944  22.058  0.00  0.00    +0.000 NA
ATOM     16  N   UNL     1      -7.875  11.540  23.225  0.00  0.00    +0.000 N 
ATOM     17  H   UNL     1      -8.136  10.972  24.022  0.00  0.00    +0.000 HD
ENDBRANCH   5  14
ENDBRANCH   1   9
BRANCH   3  18
ATOM     18  C   UNL     1      -0.765  12.609  18.865  0.00  0.00    +0.000 C 
ATOM     19  C   UNL     1      -0.109  13.915  18.445  0.00  0.00    +0.000 C 
ATOM     20  C   UNL     1       1.271  13.788  19.037  0.00  0.00    +0.000 C 
ATOM     21  O   UNL     1       1.118  13.103  20.280  0.00  0.00    +0.000 OA
ATOM     22  C   UNL     1      -0.106  12.323  20.240  0.00  0.00    +0.000 C 
BRANCH  22  23
ATOM     23  C   UNL     1       0.178  10.860  20.513  0.00  0.00    +0.000 A 
ATOM     24  C   UNL     1      -0.148  10.139  21.702  0.00  0.00    +0.000 A 
ATOM     25  C   UNL     1      -0.795  10.618  22.949  0.00  0.00    +0.000 C 
ATOM     26  N   UNL     1       0.263   8.870  21.650  0.00  0.00    +0.000 NA
ATOM     27  N   UNL     1       0.942   8.786  20.498  0.00  0.00    +0.000 N 
ATOM     28  C   UNL     1       1.687   7.577  20.228  0.00  0.00    +0.000 C 
ATOM     29  C   UNL     1       0.887   9.932  19.747  0.00  0.00    +0.000 A 
ATOM     30  C   UNL     1       1.556  10.058  18.423  0.00  0.00    +0.000 C 
ENDBRANCH  22  23
ENDBRANCH   3  18
TORSDOF 4
ENDMDL
MODEL 6
REMARK VINA RESULT:      -7.6      2.220      3.356
REMARK  Name = 
REMARK  8 active torsions:
REMARK  status: ('A' for Active; 'I' for Inactive)
REMARK    1  A    between atoms: C_1  and  C_2
REMARK    2  A    between atoms: C_4  and  C_5
REMARK    3  A    between atoms: C_9  and  C_10
REMARK    4  A    between atoms: N_12  and  C_13
REMARK    5  A    between atoms: C_17  and  C_18
REMARK    6  A    between atoms: C_19  and  C_20
REMARK    7  A    between atoms: N_22  and  C_23
REMARK    8  A    between atoms: C_24  and  C_25
REMARK                            x       y       z     vdW  Elec       q    Type
REMARK                         _______ _______ _______ _____ _____    ______ ____
ROOT
ATOM      1  C   UNL     1       1.701   9.364  17.851  0.00  0.00    +0.000 C 
ATOM      2  O   UNL     1       2.298  10.430  17.912  0.00  0.00    +0.000 OA
ATOM      3  N   UNL     1       0.327   9.263  17.760  0.00  0.00    +0.000 N 
ATOM      4  H   UNL     1      -0.088   8.345  17.845  0.00  0.00    +0.000 HD
ENDROOT
BRANCH   1   9
ATOM      5  C   UNL     1       2.748   5.770  18.638  0.00  0.00    +0.000 A 
ATOM      6  C   UNL     1       3.981   5.725  17.965  0.00  0.00    +0.000 A 
ATOM      7  C   UNL     1       4.435   6.825  17.244  0.00  0.00    +0.000 A 
ATOM      8  C   UNL     1       3.674   7.993  17.206  0.00  0.00    +0.000 A 
ATOM      9  C   UNL     1       2.468   8.083  17.930  0.00  0.00    +0.000 A 
ATOM     10  C   UNL     1       2.010   6.967  18.643  0.00  0.00    +0.000 A 
BRANCH   5  14
ATOM     11  C   UNL     1       1.428   2.426  21.987  0.00  0.00    +0.000 C 
ATOM     12  C   UNL     1       1.693   3.137  20.718  0.00  0.00    +0.000 A 
ATOM     13  N   UNL     1       1.894   4.422  20.540  0.00  0.00    +0.000 NA
ATOM     14  C   UNL     1       2.213   4.532  19.202  0.00  0.00    +0.000 A 
ATOM     15  N   UNL     1       2.138   3.370  18.536  0.00  0.00    +0.000 NA
ATOM     16  N   UNL     1       1.839   2.503  19.519  0.00  0.00    +0.000 N 
ATOM     17  H   UNL     1       1.794   1.512  19.312  0.00  0.00    +0.000 HD
ENDBRANCH   5  14
ENDBRANCH   1   9
BRANCH   3  18
ATOM     18  C   UNL     1      -0.594  10.411  17.854  0.00  0.00    +0.000 C 
ATOM     19  C   UNL     1      -1.811  10.286  16.951  0.00  0.00    +0.000 C 
ATOM     20  C   UNL     1      -2.770  11.275  17.562  0.00  0.00    +0.000 C 
ATOM     21  O   UNL     1      -2.565  11.220  18.974  0.00  0.00    +0.000 OA
ATOM     22  C   UNL     1      -1.226  10.724  19.236  0.00  0.00    +0.000 C 
BRANCH  22  23
ATOM     23  C   UNL     1      -0.444  11.708  20.081  0.00  0.00    +0.000 A 
ATOM     24  C   UNL     1      -0.057  11.538  21.445  0.00  0.00    +0.000 A 
ATOM     25  C   UNL     1      -0.336  10.412  22.371  0.00  0.00    +0.000 C 
ATOM     26  N   UNL     1       0.598  12.600  21.920  0.00  0.00    +0.000 NA
ATOM     27  N   UNL     1       0.549  13.495  20.924  0.00  0.00    +0.000 N 
ATOM     28  C   UNL     1       1.009  14.839  21.188  0.00  0.00    +0.000 C 
ATOM     29  C   UNL     1      -0.020  13.004  19.776  0.00  0.00    +0.000 A 
ATOM     30  C   UNL     1      -0.164  13.819  18.539  0.00  0.00    +0.000 C 
ENDBRANCH  22  23
ENDBRANCH   3  18
TORSDOF 4
ENDMDL
MODEL 7
REMARK VINA RESULT:      -7.6      2.926      9.026
REMARK  Name = 
REMARK  8 active torsions:
REMARK  status: ('A' for Active; 'I' for Inactive)
REMARK    1  A    between atoms: C_1  and  C_2
REMARK    2  A    between atoms: C_4  and  C_5
REMARK    3  A    between atoms: C_9  and  C_10
REMARK    4  A    between atoms: N_12  and  C_13
REMARK    5  A    between atoms: C_17  and  C_18
REMARK    6  A    between atoms: C_19  and  C_20
REMARK    7  A    between atoms: N_22  and  C_23
REMARK    8  A    between atoms: C_24  and  C_25
REMARK                            x       y       z     vdW  Elec       q    Type
REMARK                         _______ _______ _______ _____ _____    ______ ____
ROOT
ATOM      1  C   UNL     1       2.648   7.193  18.267  0.00  0.00    +0.000 C 
ATOM      2  O   UNL     1       2.137   6.179  17.809  0.00  0.00    +0.000 OA
ATOM      3  N   UNL     1       4.007   7.437  18.249  0.00  0.00    +0.000 N 
ATOM      4  H   UNL     1       4.351   8.236  18.763  0.00  0.00    +0.000 HD
ENDROOT
BRANCH   1   9
ATOM      5  C   UNL     1       0.119   9.990  18.906  0.00  0.00    +0.000 A 
ATOM      6  C   UNL     1       0.186  10.061  20.307  0.00  0.00    +0.000 A 
ATOM      7  C   UNL     1       1.005   9.193  21.022  0.00  0.00    +0.000 A 
ATOM      8  C   UNL     1       1.787   8.257  20.344  0.00  0.00    +0.000 A 
ATOM      9  C   UNL     1       1.786   8.216  18.935  0.00  0.00    +0.000 A 
ATOM     10  C   UNL     1       0.949   9.084  18.221  0.00  0.00    +0.000 A 
BRANCH   5  14
ATOM     11  C   UNL     1      -3.546  11.072  15.817  0.00  0.00    +0.000 C 
ATOM     12  C   UNL     1      -2.474  11.152  16.832  0.00  0.00    +0.000 A 
ATOM     13  N   UNL     1      -1.920  10.167  17.499  0.00  0.00    +0.000 NA
ATOM     14  C   UNL     1      -0.905  10.771  18.214  0.00  0.00    +0.000 A 
ATOM     15  N   UNL     1      -0.868  12.104  18.068  0.00  0.00    +0.000 NA
ATOM     16  N   UNL     1      -1.845  12.315  17.170  0.00  0.00    +0.000 N 
ATOM     17  H   UNL     1      -1.997  13.249  16.808  0.00  0.00    +0.000 HD
ENDBRANCH   5  14
ENDBRANCH   1   9
BRANCH   3  18
ATOM     18  C   UNL     1       5.016   6.462  17.798  0.00  0.00    +0.000 C 
ATOM     19  C   UNL     1       6.375   7.084  17.516  0.00  0.00    +0.000 C 
ATOM     20  C   UNL     1       7.292   5.888  17.552  0.00  0.00    +0.000 C 
ATOM     21  O   UNL     1       6.783   5.017  18.562  0.00  0.00    +0.000 OA
ATOM     22  C   UNL     1       5.370   5.289  18.750  0.00  0.00    +0.000 C 
BRANCH  22  23
ATOM     23  C   UNL     1       4.547   4.034  18.540  0.00  0.00    +0.000 A 
ATOM     24  C   UNL     1       4.541   3.207  17.375  0.00  0.00    +0.000 A 
ATOM     25  C   UNL     1       5.282   3.367  16.100  0.00  0.00    +0.000 C 
ATOM     26  N   UNL     1       3.683   2.189  17.485  0.00  0.00    +0.000 NA
ATOM     27  N   UNL     1       3.058   2.403  18.650  0.00  0.00    +0.000 N 
ATOM     28  C   UNL     1       1.922   1.574  18.981  0.00  0.00    +0.000 C 
ATOM     29  C   UNL     1       3.565   3.467  19.354  0.00  0.00    +0.000 A 
ATOM     30  C   UNL     1       3.034   3.876  20.683  0.00  0.00    +0.000 C 
ENDBRANCH  22  23
ENDBRANCH   3  18
TORSDOF 4
ENDMDL
MODEL 8
REMARK VINA RESULT:      -7.6      2.721      8.574
REMARK  Name = 
REMARK  8 active torsions:
REMARK  status: ('A' for Active; 'I' for Inactive)
REMARK    1  A    between atoms: C_1  and  C_2
REMARK    2  A    between atoms: C_4  and  C_5
REMARK    3  A    between atoms: C_9  and  C_10
REMARK    4  A    between atoms: N_12  and  C_13
REMARK    5  A    between atoms: C_17  and  C_18
REMARK    6  A    between atoms: C_19  and  C_20
REMARK    7  A    between atoms: N_22  and  C_23
REMARK    8  A    between atoms: C_24  and  C_25
REMARK                            x       y       z     vdW  Elec       q    Type
REMARK                         _______ _______ _______ _____ _____    ______ ____
ROOT
ATOM      1  C   UNL     1       1.739   7.370  19.651  0.00  0.00    +0.000 C 
ATOM      2  O   UNL     1       2.027   7.325  18.462  0.00  0.00    +0.000 OA
ATOM      3  N   UNL     1       1.774   6.271  20.486  0.00  0.00    +0.000 N 
ATOM      4  H   UNL     1       1.396   6.372  21.419  0.00  0.00    +0.000 HD
ENDROOT
BRANCH   1   9
ATOM      5  C   UNL     1       0.553  10.980  20.092  0.00  0.00    +0.000 A 
ATOM      6  C   UNL     1       0.346  10.998  21.481  0.00  0.00    +0.000 A 
ATOM      7  C   UNL     1       0.552   9.853  22.243  0.00  0.00    +0.000 A 
ATOM      8  C   UNL     1       0.990   8.679  21.630  0.00  0.00    +0.000 A 
ATOM      9  C   UNL     1       1.269   8.658  20.248  0.00  0.00    +0.000 A 
ATOM     10  C   UNL     1       1.047   9.811  19.484  0.00  0.00    +0.000 A 
BRANCH   5  14
ATOM     11  C   UNL     1      -0.223  15.666  18.834  0.00  0.00    +0.000 C 
ATOM     12  C   UNL     1      -0.189  14.188  18.853  0.00  0.00    +0.000 A 
ATOM     13  N   UNL     1       0.582  13.409  19.576  0.00  0.00    +0.000 NA
ATOM     14  C   UNL     1       0.125  12.135  19.304  0.00  0.00    +0.000 A 
ATOM     15  N   UNL     1      -0.849  12.101  18.381  0.00  0.00    +0.000 NA
ATOM     16  N   UNL     1      -1.049  13.407  18.137  0.00  0.00    +0.000 N 
ATOM     17  H   UNL     1      -1.799  13.689  17.517  0.00  0.00    +0.000 HD
ENDBRANCH   5  14
ENDBRANCH   1   9
BRANCH   3  18
ATOM     18  C   UNL     1       2.035   4.894  20.029  0.00  0.00    +0.000 C 
ATOM     19  C   UNL     1       0.805   4.000  20.068  0.00  0.00    +0.000 C 
ATOM     20  C   UNL     1       1.196   2.873  19.147  0.00  0.00    +0.000 C 
ATOM     21  O   UNL     1       1.975   3.454  18.102  0.00  0.00    +0.000 OA
ATOM     22  C   UNL     1       2.555   4.695  18.582  0.00  0.00    +0.000 C 
BRANCH  22  23
ATOM     23  C   UNL     1       4.064   4.670  18.449  0.00  0.00    +0.000 A 
ATOM     24  C   UNL     1       4.958   3.752  19.080  0.00  0.00    +0.000 A 
ATOM     25  C   UNL     1       4.663   2.644  20.022  0.00  0.00    +0.000 C 
ATOM     26  N   UNL     1       6.235   4.012  18.790  0.00  0.00    +0.000 NA
ATOM     27  N   UNL     1       6.191   5.142  18.072  0.00  0.00    +0.000 N 
ATOM     28  C   UNL     1       7.437   5.803  17.757  0.00  0.00    +0.000 C 
ATOM     29  C   UNL     1       4.915   5.562  17.792  0.00  0.00    +0.000 A 
ATOM     30  C   UNL     1       4.628   6.785  16.993  0.00  0.00    +0.000 C 
ENDBRANCH  22  23
ENDBRANCH   3  18
TORSDOF 4
ENDMDL
MODEL 9
REMARK VINA RESULT:      -7.5      2.970      4.507
REMARK  Name = 
REMARK  8 active torsions:
REMARK  status: ('A' for Active; 'I' for Inactive)
REMARK    1  A    between atoms: C_1  and  C_2
REMARK    2  A    between atoms: C_4  and  C_5
REMARK    3  A    between atoms: C_9  and  C_10
REMARK    4  A    between atoms: N_12  and  C_13
REMARK    5  A    between atoms: C_17  and  C_18
REMARK    6  A    between atoms: C_19  and  C_20
REMARK    7  A    between atoms: N_22  and  C_23
REMARK    8  A    between atoms: C_24  and  C_25
REMARK                            x       y       z     vdW  Elec       q    Type
REMARK                         _______ _______ _______ _____ _____    ______ ____
ROOT
ATOM      1  C   UNL     1       0.375   9.453  20.485  0.00  0.00    +0.000 C 
ATOM      2  O   UNL     1      -0.302   8.963  21.379  0.00  0.00    +0.000 OA
ATOM      3  N   UNL     1       0.274  10.772  20.087  0.00  0.00    +0.000 N 
ATOM      4  H   UNL     1       0.776  11.057  19.258  0.00  0.00    +0.000 HD
ENDROOT
BRANCH   1   9
ATOM      5  C   UNL     1       2.609   6.542  19.407  0.00  0.00    +0.000 A 
ATOM      6  C   UNL     1       3.105   7.054  18.196  0.00  0.00    +0.000 A 
ATOM      7  C   UNL     1       2.691   8.297  17.729  0.00  0.00    +0.000 A 
ATOM      8  C   UNL     1       1.792   9.056  18.479  0.00  0.00    +0.000 A 
ATOM      9  C   UNL     1       1.335   8.591  19.729  0.00  0.00    +0.000 A 
ATOM     10  C   UNL     1       1.746   7.333  20.186  0.00  0.00    +0.000 A 
BRANCH   5  14
ATOM     11  C   UNL     1       3.690   1.783  18.839  0.00  0.00    +0.000 C 
ATOM     12  C   UNL     1       3.351   3.103  19.411  0.00  0.00    +0.000 A 
ATOM     13  N   UNL     1       3.468   4.281  18.843  0.00  0.00    +0.000 NA
ATOM     14  C   UNL     1       2.904   5.152  19.753  0.00  0.00    +0.000 A 
ATOM     15  N   UNL     1       2.515   4.559  20.892  0.00  0.00    +0.000 NA
ATOM     16  N   UNL     1       2.780   3.266  20.638  0.00  0.00    +0.000 N 
ATOM     17  H   UNL     1       2.511   2.561  21.314  0.00  0.00    +0.000 HD
ENDBRANCH   5  14
ENDBRANCH   1   9
BRANCH   3  18
ATOM     18  C   UNL     1      -0.742  11.712  20.595  0.00  0.00    +0.000 C 
ATOM     19  C   UNL     1      -0.175  12.765  21.534  0.00  0.00    +0.000 C 
ATOM     20  C   UNL     1      -1.247  13.825  21.516  0.00  0.00    +0.000 C 
ATOM     21  O   UNL     1      -1.770  13.850  20.188  0.00  0.00    +0.000 OA
ATOM     22  C   UNL     1      -1.525  12.564  19.562  0.00  0.00    +0.000 C 
BRANCH  22  23
ATOM     23  C   UNL     1      -2.821  11.943  19.083  0.00  0.00    +0.000 A 
ATOM     24  C   UNL     1      -2.960  10.925  18.090  0.00  0.00    +0.000 A 
ATOM     25  C   UNL     1      -1.918  10.256  17.272  0.00  0.00    +0.000 C 
ATOM     26  N   UNL     1      -4.238  10.611  17.866  0.00  0.00    +0.000 NA
ATOM     27  N   UNL     1      -4.931  11.478  18.615  0.00  0.00    +0.000 N 
ATOM     28  C   UNL     1      -6.367  11.529  18.453  0.00  0.00    +0.000 C 
ATOM     29  C   UNL     1      -4.139  12.272  19.406  0.00  0.00    +0.000 A 
ATOM     30  C   UNL     1      -4.697  13.296  20.331  0.00  0.00    +0.000 C 
ENDBRANCH  22  23
ENDBRANCH   3  18
TORSDOF 4
ENDMDL
