MODEL 1
REMARK VINA RESULT:      -8.8      0.000      0.000
REMARK  Name = 
REMARK  8 active torsions:
REMARK  status: ('A' for Active; 'I' for Inactive)
REMARK    1  A    between atoms: C_1  and  C_2
REMARK    2  A    between atoms: C_2  and  C_3
REMARK    3  A    between atoms: C_2  and  C_25
REMARK    4  A    between atoms: C_3  and  C_4
REMARK    5  A    between atoms: C_8  and  C_9
REMARK    6  A    between atoms: C_9  and  N_10
REMARK    7  A    between atoms: C_17  and  C_18
REMARK    8  A    between atoms: N_29  and  C_30
REMARK                            x       y       z     vdW  Elec       q    Type
REMARK                         _______ _______ _______ _____ _____    ______ ____
ROOT
ATOM      1  C   UNL     1       2.841   6.217  18.631  0.00  0.00    +0.000 A 
ATOM      2  C   UNL     1       2.412   5.969  19.940  0.00  0.00    +0.000 A 
ATOM      3  C   UNL     1       1.719   6.944  20.658  0.00  0.00    +0.000 A 
ATOM      4  C   UNL     1       1.476   8.192  20.087  0.00  0.00    +0.000 A 
ATOM      5  C   UNL     1       1.939   8.481  18.795  0.00  0.00    +0.000 A 
ATOM      6  C   UNL     1       2.609   7.481  18.071  0.00  0.00    +0.000 A 
ENDROOT
BRANCH   1   7
ATOM      7  C   UNL     1       3.532   5.132  17.837  0.00  0.00    +0.000 C 
BRANCH   7   9
ATOM      8  C   UNL     1       5.239   4.696  15.972  0.00  0.00    +0.000 C 
ATOM      9  C   UNL     1       4.839   5.591  17.152  0.00  0.00    +0.000 C 
BRANCH   9  10
ATOM     10  C   UNL     1       5.954   5.603  18.159  0.00  0.00    +0.000 A 
ATOM     11  N   UNL     1       6.034   4.845  19.237  0.00  0.00    +0.000 NA
ATOM     12  N   UNL     1       7.202   5.148  19.893  0.00  0.00    +0.000 NA
ATOM     13  C   UNL     1       7.813   6.083  19.205  0.00  0.00    +0.000 A 
ATOM     14  N   UNL     1       7.070   6.399  18.110  0.00  0.00    +0.000 N 
ATOM     15  C   UNL     1       7.416   7.373  17.111  0.00  0.00    +0.000 C 
ENDBRANCH   9  10
ENDBRANCH   7   9
ENDBRANCH   1   7
BRANCH   5  16
ATOM     16  C   UNL     1       1.776   9.859  18.207  0.00  0.00    +0.000 C 
BRANCH  16  17
ATOM     17  N   UNL     1       0.496  10.450  18.549  0.00  0.00    +0.000 N 
ATOM     18  C   UNL     1      -0.702  10.191  17.777  0.00  0.00    +0.000 C 
ATOM     19  C   UNL     1      -1.722  11.015  18.488  0.00  0.00    +0.000 A 
ATOM     20  C   UNL     1      -1.162  11.591  19.627  0.00  0.00    +0.000 A 
ATOM     21  C   UNL     1      -1.880  12.383  20.489  0.00  0.00    +0.000 A 
ATOM     22  C   UNL     1      -3.201  12.583  20.142  0.00  0.00    +0.000 A 
ATOM     23  N   UNL     1      -3.788  12.057  19.029  0.00  0.00    +0.000 NA
ATOM     24  C   UNL     1      -3.044  11.269  18.190  0.00  0.00    +0.000 A 
ATOM     25  C   UNL     1       0.263  11.228  19.666  0.00  0.00    +0.000 C 
ATOM     26  O   UNL     1       1.046  11.591  20.521  0.00  0.00    +0.000 OA
BRANCH  24  27
ATOM     27  C   UNL     1      -3.692  10.718  16.929  0.00  0.00    +0.000 C 
ATOM     28  F   UNL     1      -3.200  11.274  15.780  0.00  0.00    +0.000 F 
ATOM     29  F   UNL     1      -3.518   9.375  16.776  0.00  0.00    +0.000 F 
ATOM     30  F   UNL     1      -5.036  10.938  16.881  0.00  0.00    +0.000 F 
ENDBRANCH  24  27
ENDBRANCH  16  17
ENDBRANCH   5  16
TORSDOF 6
ENDMDL
MODEL 2
REMARK VINA RESULT:      -8.5      5.915      8.280
REMARK  Name = 
REMARK  8 active torsions:
REMARK  status: ('A' for Active; 'I' for Inactive)
REMARK    1  A    between atoms: C_1  and  C_2
REMARK    2  A    between atoms: C_2  and  C_3
REMARK    3  A    between atoms: C_2  and  C_25
REMARK    4  A    between atoms: C_3  and  C_4
REMARK    5  A    between atoms: C_8  and  C_9
REMARK    6  A    between atoms: C_9  and  N_10
REMARK    7  A    between atoms: C_17  and  C_18
REMARK    8  A    between atoms: N_29  and  C_30
REMARK                            x       y       z     vdW  Elec       q    Type
REMARK                         _______ _______ _______ _____ _____    ______ ____
ROOT
ATOM      1  C   UNL     1       7.980   8.772  18.024  0.00  0.00    +0.000 A 
ATOM      2  C   UNL     1       8.614   7.878  18.894  0.00  0.00    +0.000 A 
ATOM      3  C   UNL     1       8.271   6.526  18.900  0.00  0.00    +0.000 A 
ATOM      4  C   UNL     1       7.264   6.057  18.057  0.00  0.00    +0.000 A 
ATOM      5  C   UNL     1       6.580   6.942  17.212  0.00  0.00    +0.000 A 
ATOM      6  C   UNL     1       6.955   8.296  17.194  0.00  0.00    +0.000 A 
ENDROOT
BRANCH   1   7
ATOM      7  C   UNL     1       8.405  10.222  17.978  0.00  0.00    +0.000 C 
BRANCH   7   9
ATOM      8  C   UNL     1       9.303  10.929  20.275  0.00  0.00    +0.000 C 
ATOM      9  C   UNL     1       9.653  10.538  18.833  0.00  0.00    +0.000 C 
BRANCH   9  10
ATOM     10  C   UNL     1      10.426  11.658  18.195  0.00  0.00    +0.000 A 
ATOM     11  N   UNL     1      11.719  11.657  17.931  0.00  0.00    +0.000 NA
ATOM     12  N   UNL     1      12.042  12.856  17.344  0.00  0.00    +0.000 NA
ATOM     13  C   UNL     1      10.942  13.566  17.262  0.00  0.00    +0.000 A 
ATOM     14  N   UNL     1       9.904  12.857  17.780  0.00  0.00    +0.000 N 
ATOM     15  C   UNL     1       8.538  13.299  17.857  0.00  0.00    +0.000 C 
ENDBRANCH   9  10
ENDBRANCH   7   9
ENDBRANCH   1   7
BRANCH   5  16
ATOM     16  C   UNL     1       5.420   6.469  16.375  0.00  0.00    +0.000 C 
BRANCH  16  17
ATOM     17  N   UNL     1       4.674   5.409  17.026  0.00  0.00    +0.000 N 
ATOM     18  C   UNL     1       3.696   5.679  18.060  0.00  0.00    +0.000 C 
ATOM     19  C   UNL     1       3.229   4.310  18.421  0.00  0.00    +0.000 A 
ATOM     20  C   UNL     1       3.815   3.367  17.578  0.00  0.00    +0.000 A 
ATOM     21  C   UNL     1       3.547   2.023  17.666  0.00  0.00    +0.000 A 
ATOM     22  C   UNL     1       2.661   1.663  18.661  0.00  0.00    +0.000 A 
ATOM     23  N   UNL     1       2.078   2.545  19.521  0.00  0.00    +0.000 NA
ATOM     24  C   UNL     1       2.365   3.881  19.406  0.00  0.00    +0.000 A 
ATOM     25  C   UNL     1       4.744   4.073  16.682  0.00  0.00    +0.000 C 
ATOM     26  O   UNL     1       5.436   3.536  15.840  0.00  0.00    +0.000 OA
BRANCH  24  27
ATOM     27  C   UNL     1       1.743   4.857  20.394  0.00  0.00    +0.000 C 
ATOM     28  F   UNL     1       1.791   6.157  19.973  0.00  0.00    +0.000 F 
ATOM     29  F   UNL     1       0.424   4.611  20.637  0.00  0.00    +0.000 F 
ATOM     30  F   UNL     1       2.363   4.854  21.607  0.00  0.00    +0.000 F 
ENDBRANCH  24  27
ENDBRANCH  16  17
ENDBRANCH   5  16
TORSDOF 6
ENDMDL
MODEL 3
REMARK VINA RESULT:      -8.2      2.941      4.111
REMARK  Name = 
REMARK  8 active torsions:
REMARK  status: ('A' for Active; 'I' for Inactive)
REMARK    1  A    between atoms: C_1  and  C_2
REMARK    2  A    between atoms: C_2  and  C_3
REMARK    3  A    between atoms: C_2  and  C_25
REMARK    4  A    between atoms: C_3  and  C_4
REMARK    5  A    between atoms: C_8  and  C_9
REMARK    6  A    between atoms: C_9  and  N_10
REMARK    7  A    between atoms: C_17  and  C_18
REMARK    8  A    between atoms: N_29  and  C_30
REMARK                            x       y       z     vdW  Elec       q    Type
REMARK                         _______ _______ _______ _____ _____    ______ ____
ROOT
ATOM      1  C   UNL     1       4.050   3.984  17.037  0.00  0.00    +0.000 A 
ATOM      2  C   UNL     1       2.845   3.323  16.774  0.00  0.00    +0.000 A 
ATOM      3  C   UNL     1       1.710   3.581  17.542  0.00  0.00    +0.000 A 
ATOM      4  C   UNL     1       1.775   4.479  18.606  0.00  0.00    +0.000 A 
ATOM      5  C   UNL     1       2.983   5.117  18.921  0.00  0.00    +0.000 A 
ATOM      6  C   UNL     1       4.112   4.872  18.121  0.00  0.00    +0.000 A 
ENDROOT
BRANCH   1   7
ATOM      7  C   UNL     1       5.257   3.749  16.158  0.00  0.00    +0.000 C 
BRANCH   7   9
ATOM      8  C   UNL     1       7.088   4.878  14.759  0.00  0.00    +0.000 C 
ATOM      9  C   UNL     1       6.146   4.998  15.965  0.00  0.00    +0.000 C 
BRANCH   9  10
ATOM     10  C   UNL     1       6.964   5.228  17.205  0.00  0.00    +0.000 A 
ATOM     11  N   UNL     1       7.544   4.294  17.935  0.00  0.00    +0.000 NA
ATOM     12  N   UNL     1       8.200   4.904  18.976  0.00  0.00    +0.000 NA
ATOM     13  C   UNL     1       8.007   6.196  18.863  0.00  0.00    +0.000 A 
ATOM     14  N   UNL     1       7.241   6.447  17.768  0.00  0.00    +0.000 N 
ATOM     15  C   UNL     1       6.825   7.745  17.311  0.00  0.00    +0.000 C 
ENDBRANCH   9  10
ENDBRANCH   7   9
ENDBRANCH   1   7
BRANCH   5  16
ATOM     16  C   UNL     1       3.094   6.008  20.130  0.00  0.00    +0.000 C 
BRANCH  16  17
ATOM     17  N   UNL     1       2.303   7.215  19.993  0.00  0.00    +0.000 N 
ATOM     18  C   UNL     1       1.578   7.792  21.107  0.00  0.00    +0.000 C 
ATOM     19  C   UNL     1       0.921   8.975  20.481  0.00  0.00    +0.000 A 
ATOM     20  C   UNL     1       1.338   9.109  19.158  0.00  0.00    +0.000 A 
ATOM     21  C   UNL     1       0.912  10.129  18.344  0.00  0.00    +0.000 A 
ATOM     22  C   UNL     1       0.024  11.013  18.924  0.00  0.00    +0.000 A 
ATOM     23  N   UNL     1      -0.427  10.912  20.206  0.00  0.00    +0.000 NA
ATOM     24  C   UNL     1       0.019   9.884  20.994  0.00  0.00    +0.000 A 
ATOM     25  C   UNL     1       2.225   7.978  18.844  0.00  0.00    +0.000 C 
ATOM     26  O   UNL     1       2.742   7.784  17.762  0.00  0.00    +0.000 OA
BRANCH  24  27
ATOM     27  C   UNL     1      -0.519   9.752  22.411  0.00  0.00    +0.000 C 
ATOM     28  F   UNL     1      -1.150   8.562  22.642  0.00  0.00    +0.000 F 
ATOM     29  F   UNL     1       0.452   9.829  23.365  0.00  0.00    +0.000 F 
ATOM     30  F   UNL     1      -1.439  10.707  22.721  0.00  0.00    +0.000 F 
ENDBRANCH  24  27
ENDBRANCH  16  17
ENDBRANCH   5  16
TORSDOF 6
ENDMDL
MODEL 4
REMARK VINA RESULT:      -8.2      2.879      4.015
REMARK  Name = 
REMARK  8 active torsions:
REMARK  status: ('A' for Active; 'I' for Inactive)
REMARK    1  A    between atoms: C_1  and  C_2
REMARK    2  A    between atoms: C_2  and  C_3
REMARK    3  A    between atoms: C_2  and  C_25
REMARK    4  A    between atoms: C_3  and  C_4
REMARK    5  A    between atoms: C_8  and  C_9
REMARK    6  A    between atoms: C_9  and  N_10
REMARK    7  A    between atoms: C_17  and  C_18
REMARK    8  A    between atoms: N_29  and  C_30
REMARK                            x       y       z     vdW  Elec       q    Type
REMARK                         _______ _______ _______ _____ _____    ______ ____
ROOT
ATOM      1  C   UNL     1       2.152   7.684  19.189  0.00  0.00    +0.000 A 
ATOM      2  C   UNL     1       1.878   7.433  20.539  0.00  0.00    +0.000 A 
ATOM      3  C   UNL     1       1.111   8.326  21.286  0.00  0.00    +0.000 A 
ATOM      4  C   UNL     1       0.635   9.499  20.701  0.00  0.00    +0.000 A 
ATOM      5  C   UNL     1       0.938   9.796  19.365  0.00  0.00    +0.000 A 
ATOM      6  C   UNL     1       1.686   8.874  18.614  0.00  0.00    +0.000 A 
ENDROOT
BRANCH   1   7
ATOM      7  C   UNL     1       2.927   6.678  18.369  0.00  0.00    +0.000 C 
BRANCH   7   9
ATOM      8  C   UNL     1       4.949   5.294  19.131  0.00  0.00    +0.000 C 
ATOM      9  C   UNL     1       3.424   5.458  19.178  0.00  0.00    +0.000 C 
BRANCH   9  10
ATOM     10  C   UNL     1       2.780   4.209  18.645  0.00  0.00    +0.000 A 
ATOM     11  N   UNL     1       3.165   3.531  17.581  0.00  0.00    +0.000 NA
ATOM     12  N   UNL     1       2.328   2.452  17.429  0.00  0.00    +0.000 NA
ATOM     13  C   UNL     1       1.450   2.492  18.402  0.00  0.00    +0.000 A 
ATOM     14  N   UNL     1       1.693   3.573  19.190  0.00  0.00    +0.000 N 
ATOM     15  C   UNL     1       0.948   3.946  20.361  0.00  0.00    +0.000 C 
ENDBRANCH   9  10
ENDBRANCH   7   9
ENDBRANCH   1   7
BRANCH   5  16
ATOM     16  C   UNL     1       0.520  11.107  18.752  0.00  0.00    +0.000 C 
BRANCH  16  17
ATOM     17  N   UNL     1      -0.921  11.274  18.750  0.00  0.00    +0.000 N 
ATOM     18  C   UNL     1      -1.586  12.232  19.611  0.00  0.00    +0.000 C 
ATOM     19  C   UNL     1      -3.022  12.022  19.270  0.00  0.00    +0.000 A 
ATOM     20  C   UNL     1      -3.137  11.106  18.227  0.00  0.00    +0.000 A 
ATOM     21  C   UNL     1      -4.346  10.739  17.689  0.00  0.00    +0.000 A 
ATOM     22  C   UNL     1      -5.451  11.334  18.265  0.00  0.00    +0.000 A 
ATOM     23  N   UNL     1      -5.390  12.220  19.299  0.00  0.00    +0.000 NA
ATOM     24  C   UNL     1      -4.167  12.567  19.812  0.00  0.00    +0.000 A 
ATOM     25  C   UNL     1      -1.787  10.625  17.893  0.00  0.00    +0.000 C 
ATOM     26  O   UNL     1      -1.539   9.797  17.039  0.00  0.00    +0.000 OA
BRANCH  24  27
ATOM     27  C   UNL     1      -4.107  13.524  20.992  0.00  0.00    +0.000 C 
ATOM     28  F   UNL     1      -3.372  14.650  20.740  0.00  0.00    +0.000 F 
ATOM     29  F   UNL     1      -5.332  13.980  21.381  0.00  0.00    +0.000 F 
ATOM     30  F   UNL     1      -3.536  12.970  22.099  0.00  0.00    +0.000 F 
ENDBRANCH  24  27
ENDBRANCH  16  17
ENDBRANCH   5  16
TORSDOF 6
ENDMDL
MODEL 5
REMARK VINA RESULT:      -8.2      2.061      3.019
REMARK  Name = 
REMARK  8 active torsions:
REMARK  status: ('A' for Active; 'I' for Inactive)
REMARK    1  A    between atoms: C_1  and  C_2
REMARK    2  A    between atoms: C_2  and  C_3
REMARK    3  A    between atoms: C_2  and  C_25
REMARK    4  A    between atoms: C_3  and  C_4
REMARK    5  A    between atoms: C_8  and  C_9
REMARK    6  A    between atoms: C_9  and  N_10
REMARK    7  A    between atoms: C_17  and  C_18
REMARK    8  A    between atoms: N_29  and  C_30
REMARK                            x       y       z     vdW  Elec       q    Type
REMARK                         _______ _______ _______ _____ _____    ______ ____
ROOT
ATOM      1  C   UNL     1       2.209   7.539  19.075  0.00  0.00    +0.000 A 
ATOM      2  C   UNL     1       1.872   7.004  20.324  0.00  0.00    +0.000 A 
ATOM      3  C   UNL     1       1.111   7.740  21.231  0.00  0.00    +0.000 A 
ATOM      4  C   UNL     1       0.705   9.035  20.914  0.00  0.00    +0.000 A 
ATOM      5  C   UNL     1       1.072   9.612  19.690  0.00  0.00    +0.000 A 
ATOM      6  C   UNL     1       1.813   8.849  18.771  0.00  0.00    +0.000 A 
ENDROOT
BRANCH   1   7
ATOM      7  C   UNL     1       2.978   6.709  18.072  0.00  0.00    +0.000 C 
BRANCH   7   9
ATOM      8  C   UNL     1       5.083   5.243  18.070  0.00  0.00    +0.000 C 
ATOM      9  C   UNL     1       3.701   5.490  18.688  0.00  0.00    +0.000 C 
BRANCH   9  10
ATOM     10  C   UNL     1       2.854   4.262  18.504  0.00  0.00    +0.000 A 
ATOM     11  N   UNL     1       1.804   4.154  17.712  0.00  0.00    +0.000 NA
ATOM     12  N   UNL     1       1.310   2.877  17.818  0.00  0.00    +0.000 NA
ATOM     13  C   UNL     1       2.067   2.230  18.673  0.00  0.00    +0.000 A 
ATOM     14  N   UNL     1       3.048   3.055  19.127  0.00  0.00    +0.000 N 
ATOM     15  C   UNL     1       4.075   2.702  20.068  0.00  0.00    +0.000 C 
ENDBRANCH   9  10
ENDBRANCH   7   9
ENDBRANCH   1   7
BRANCH   5  16
ATOM     16  C   UNL     1       0.730  11.046  19.378  0.00  0.00    +0.000 C 
BRANCH  16  17
ATOM     17  N   UNL     1      -0.657  11.203  18.986  0.00  0.00    +0.000 N 
ATOM     18  C   UNL     1      -1.188  10.605  17.777  0.00  0.00    +0.000 C 
ATOM     19  C   UNL     1      -2.609  11.054  17.798  0.00  0.00    +0.000 A 
ATOM     20  C   UNL     1      -2.875  11.747  18.977  0.00  0.00    +0.000 A 
ATOM     21  C   UNL     1      -4.114  12.257  19.278  0.00  0.00    +0.000 A 
ATOM     22  C   UNL     1      -5.085  12.046  18.319  0.00  0.00    +0.000 A 
ATOM     23  N   UNL     1      -4.869  11.392  17.143  0.00  0.00    +0.000 NA
ATOM     24  C   UNL     1      -3.621  10.894  16.874  0.00  0.00    +0.000 A 
ATOM     25  C   UNL     1      -1.620  11.843  19.741  0.00  0.00    +0.000 C 
ATOM     26  O   UNL     1      -1.502  12.410  20.809  0.00  0.00    +0.000 OA
BRANCH  24  27
ATOM     27  C   UNL     1      -3.374  10.200  15.543  0.00  0.00    +0.000 C 
ATOM     28  F   UNL     1      -2.351  10.755  14.824  0.00  0.00    +0.000 F 
ATOM     29  F   UNL     1      -3.042   8.884  15.673  0.00  0.00    +0.000 F 
ATOM     30  F   UNL     1      -4.454  10.243  14.712  0.00  0.00    +0.000 F 
ENDBRANCH  24  27
ENDBRANCH  16  17
ENDBRANCH   5  16
TORSDOF 6
ENDMDL
MODEL 6
REMARK VINA RESULT:      -8.1      3.632      9.130
REMARK  Name = 
REMARK  8 active torsions:
REMARK  status: ('A' for Active; 'I' for Inactive)
REMARK    1  A    between atoms: C_1  and  C_2
REMARK    2  A    between atoms: C_2  and  C_3
REMARK    3  A    between atoms: C_2  and  C_25
REMARK    4  A    between atoms: C_3  and  C_4
REMARK    5  A    between atoms: C_8  and  C_9
REMARK    6  A    between atoms: C_9  and  N_10
REMARK    7  A    between atoms: C_17  and  C_18
REMARK    8  A    between atoms: N_29  and  C_30
REMARK                            x       y       z     vdW  Elec       q    Type
REMARK                         _______ _______ _______ _____ _____    ______ ____
ROOT
ATOM      1  C   UNL     1      -0.401  10.218  18.729  0.00  0.00    +0.000 A 
ATOM      2  C   UNL     1      -0.388  10.000  20.111  0.00  0.00    +0.000 A 
ATOM      3  C   UNL     1       0.633   9.257  20.704  0.00  0.00    +0.000 A 
ATOM      4  C   UNL     1       1.636   8.695  19.916  0.00  0.00    +0.000 A 
ATOM      5  C   UNL     1       1.617   8.857  18.524  0.00  0.00    +0.000 A 
ATOM      6  C   UNL     1       0.601   9.633  17.942  0.00  0.00    +0.000 A 
ENDROOT
BRANCH   1   7
ATOM      7  C   UNL     1      -1.474  11.080  18.103  0.00  0.00    +0.000 C 
BRANCH   7   9
ATOM      8  C   UNL     1      -2.683   9.685  16.321  0.00  0.00    +0.000 C 
ATOM      9  C   UNL     1      -2.757  10.307  17.722  0.00  0.00    +0.000 C 
BRANCH   9  10
ATOM     10  C   UNL     1      -3.937  11.236  17.784  0.00  0.00    +0.000 A 
ATOM     11  N   UNL     1      -4.837  11.412  16.834  0.00  0.00    +0.000 NA
ATOM     12  N   UNL     1      -5.756  12.333  17.274  0.00  0.00    +0.000 NA
ATOM     13  C   UNL     1      -5.400  12.702  18.481  0.00  0.00    +0.000 A 
ATOM     14  N   UNL     1      -4.269  12.041  18.844  0.00  0.00    +0.000 N 
ATOM     15  C   UNL     1      -3.583  12.173  20.100  0.00  0.00    +0.000 C 
ENDBRANCH   9  10
ENDBRANCH   7   9
ENDBRANCH   1   7
BRANCH   5  16
ATOM     16  C   UNL     1       2.634   8.168  17.652  0.00  0.00    +0.000 C 
BRANCH  16  17
ATOM     17  N   UNL     1       2.971   6.847  18.147  0.00  0.00    +0.000 N 
ATOM     18  C   UNL     1       1.971   5.950  18.692  0.00  0.00    +0.000 C 
ATOM     19  C   UNL     1       2.785   4.761  19.075  0.00  0.00    +0.000 A 
ATOM     20  C   UNL     1       4.107   4.937  18.671  0.00  0.00    +0.000 A 
ATOM     21  C   UNL     1       5.078   3.987  18.872  0.00  0.00    +0.000 A 
ATOM     22  C   UNL     1       4.656   2.841  19.518  0.00  0.00    +0.000 A 
ATOM     23  N   UNL     1       3.380   2.632  19.947  0.00  0.00    +0.000 NA
ATOM     24  C   UNL     1       2.433   3.600  19.730  0.00  0.00    +0.000 A 
ATOM     25  C   UNL     1       4.227   6.277  18.076  0.00  0.00    +0.000 C 
ATOM     26  O   UNL     1       5.259   6.753  17.646  0.00  0.00    +0.000 OA
BRANCH  24  27
ATOM     27  C   UNL     1       1.020   3.379  20.247  0.00  0.00    +0.000 C 
ATOM     28  F   UNL     1       0.970   2.617  21.381  0.00  0.00    +0.000 F 
ATOM     29  F   UNL     1       0.377   4.537  20.571  0.00  0.00    +0.000 F 
ATOM     30  F   UNL     1       0.220   2.734  19.351  0.00  0.00    +0.000 F 
ENDBRANCH  24  27
ENDBRANCH  16  17
ENDBRANCH   5  16
TORSDOF 6
ENDMDL
MODEL 7
REMARK VINA RESULT:      -8.0      3.800      8.974
REMARK  Name = 
REMARK  8 active torsions:
REMARK  status: ('A' for Active; 'I' for Inactive)
REMARK    1  A    between atoms: C_1  and  C_2
REMARK    2  A    between atoms: C_2  and  C_3
REMARK    3  A    between atoms: C_2  and  C_25
REMARK    4  A    between atoms: C_3  and  C_4
REMARK    5  A    between atoms: C_8  and  C_9
REMARK    6  A    between atoms: C_9  and  N_10
REMARK    7  A    between atoms: C_17  and  C_18
REMARK    8  A    between atoms: N_29  and  C_30
REMARK                            x       y       z     vdW  Elec       q    Type
REMARK                         _______ _______ _______ _____ _____    ______ ____
ROOT
ATOM      1  C   UNL     1      -0.200  10.136  20.072  0.00  0.00    +0.000 A 
ATOM      2  C   UNL     1      -0.076   9.515  21.320  0.00  0.00    +0.000 A 
ATOM      3  C   UNL     1       0.930   8.577  21.552  0.00  0.00    +0.000 A 
ATOM      4  C   UNL     1       1.804   8.223  20.526  0.00  0.00    +0.000 A 
ATOM      5  C   UNL     1       1.670   8.794  19.252  0.00  0.00    +0.000 A 
ATOM      6  C   UNL     1       0.672   9.760  19.040  0.00  0.00    +0.000 A 
ENDROOT
BRANCH   1   7
ATOM      7  C   UNL     1      -1.250  11.201  19.850  0.00  0.00    +0.000 C 
BRANCH   7   9
ATOM      8  C   UNL     1      -0.831  12.980  18.050  0.00  0.00    +0.000 C 
ATOM      9  C   UNL     1      -1.431  11.604  18.370  0.00  0.00    +0.000 C 
BRANCH   9  10
ATOM     10  C   UNL     1      -2.896  11.617  18.030  0.00  0.00    +0.000 A 
ATOM     11  N   UNL     1      -3.876  11.980  18.837  0.00  0.00    +0.000 NA
ATOM     12  N   UNL     1      -5.063  11.859  18.157  0.00  0.00    +0.000 NA
ATOM     13  C   UNL     1      -4.786  11.426  16.950  0.00  0.00    +0.000 A 
ATOM     14  N   UNL     1      -3.442  11.262  16.824  0.00  0.00    +0.000 N 
ATOM     15  C   UNL     1      -2.757  10.810  15.644  0.00  0.00    +0.000 C 
ENDBRANCH   9  10
ENDBRANCH   7   9
ENDBRANCH   1   7
BRANCH   5  16
ATOM     16  C   UNL     1       2.539   8.343  18.108  0.00  0.00    +0.000 C 
BRANCH  16  17
ATOM     17  N   UNL     1       2.829   6.923  18.170  0.00  0.00    +0.000 N 
ATOM     18  C   UNL     1       2.069   6.018  19.009  0.00  0.00    +0.000 C 
ATOM     19  C   UNL     1       2.739   4.711  18.754  0.00  0.00    +0.000 A 
ATOM     20  C   UNL     1       3.714   4.857  17.769  0.00  0.00    +0.000 A 
ATOM     21  C   UNL     1       4.474   3.807  17.314  0.00  0.00    +0.000 A 
ATOM     22  C   UNL     1       4.215   2.590  17.912  0.00  0.00    +0.000 A 
ATOM     23  N   UNL     1       3.286   2.402  18.891  0.00  0.00    +0.000 NA
ATOM     24  C   UNL     1       2.542   3.469  19.322  0.00  0.00    +0.000 A 
ATOM     25  C   UNL     1       3.773   6.279  17.394  0.00  0.00    +0.000 C 
ATOM     26  O   UNL     1       4.539   6.747  16.576  0.00  0.00    +0.000 OA
BRANCH  24  27
ATOM     27  C   UNL     1       1.535   3.263  20.443  0.00  0.00    +0.000 C 
ATOM     28  F   UNL     1       1.489   1.975  20.900  0.00  0.00    +0.000 F 
ATOM     29  F   UNL     1       1.794   4.021  21.547  0.00  0.00    +0.000 F 
ATOM     30  F   UNL     1       0.257   3.553  20.070  0.00  0.00    +0.000 F 
ENDBRANCH  24  27
ENDBRANCH  16  17
ENDBRANCH   5  16
TORSDOF 6
ENDMDL
MODEL 8
REMARK VINA RESULT:      -8.0      2.592      3.039
REMARK  Name = 
REMARK  8 active torsions:
REMARK  status: ('A' for Active; 'I' for Inactive)
REMARK    1  A    between atoms: C_1  and  C_2
REMARK    2  A    between atoms: C_2  and  C_3
REMARK    3  A    between atoms: C_2  and  C_25
REMARK    4  A    between atoms: C_3  and  C_4
REMARK    5  A    between atoms: C_8  and  C_9
REMARK    6  A    between atoms: C_9  and  N_10
REMARK    7  A    between atoms: C_17  and  C_18
REMARK    8  A    between atoms: N_29  and  C_30
REMARK                            x       y       z     vdW  Elec       q    Type
REMARK                         _______ _______ _______ _____ _____    ______ ____
ROOT
ATOM      1  C   UNL     1       2.739   6.900  18.484  0.00  0.00    +0.000 A 
ATOM      2  C   UNL     1       2.372   6.586  19.797  0.00  0.00    +0.000 A 
ATOM      3  C   UNL     1       1.639   7.489  20.566  0.00  0.00    +0.000 A 
ATOM      4  C   UNL     1       1.293   8.733  20.042  0.00  0.00    +0.000 A 
ATOM      5  C   UNL     1       1.692   9.091  18.746  0.00  0.00    +0.000 A 
ATOM      6  C   UNL     1       2.403   8.160  17.970  0.00  0.00    +0.000 A 
ENDROOT
BRANCH   1   7
ATOM      7  C   UNL     1       3.476   5.889  17.635  0.00  0.00    +0.000 C 
BRANCH   7   9
ATOM      8  C   UNL     1       5.207   5.793  15.744  0.00  0.00    +0.000 C 
ATOM      9  C   UNL     1       4.843   6.385  17.112  0.00  0.00    +0.000 C 
BRANCH   9  10
ATOM     10  C   UNL     1       5.916   6.028  18.102  0.00  0.00    +0.000 A 
ATOM     11  N   UNL     1       5.845   5.079  19.016  0.00  0.00    +0.000 NA
ATOM     12  N   UNL     1       7.026   5.062  19.716  0.00  0.00    +0.000 NA
ATOM     13  C   UNL     1       7.795   6.001  19.218  0.00  0.00    +0.000 A 
ATOM     14  N   UNL     1       7.144   6.631  18.204  0.00  0.00    +0.000 N 
ATOM     15  C   UNL     1       7.667   7.708  17.409  0.00  0.00    +0.000 C 
ENDBRANCH   9  10
ENDBRANCH   7   9
ENDBRANCH   1   7
BRANCH   5  16
ATOM     16  C   UNL     1       1.416  10.470  18.207  0.00  0.00    +0.000 C 
BRANCH  16  17
ATOM     17  N   UNL     1       0.160  11.006  18.697  0.00  0.00    +0.000 N 
ATOM     18  C   UNL     1       0.101  11.929  19.812  0.00  0.00    +0.000 C 
ATOM     19  C   UNL     1      -1.364  12.169  19.948  0.00  0.00    +0.000 A 
ATOM     20  C   UNL     1      -2.052  11.525  18.922  0.00  0.00    +0.000 A 
ATOM     21  C   UNL     1      -3.416  11.594  18.782  0.00  0.00    +0.000 A 
ATOM     22  C   UNL     1      -4.068  12.341  19.744  0.00  0.00    +0.000 A 
ATOM     23  N   UNL     1      -3.442  12.973  20.776  0.00  0.00    +0.000 NA
ATOM     24  C   UNL     1      -2.079  12.886  20.886  0.00  0.00    +0.000 A 
ATOM     25  C   UNL     1      -1.072  10.777  18.118  0.00  0.00    +0.000 C 
ATOM     26  O   UNL     1      -1.349  10.085  17.158  0.00  0.00    +0.000 OA
BRANCH  24  27
ATOM     27  C   UNL     1      -1.388  13.559  22.062  0.00  0.00    +0.000 C 
ATOM     28  F   UNL     1      -2.251  14.223  22.889  0.00  0.00    +0.000 F 
ATOM     29  F   UNL     1      -0.725  12.684  22.871  0.00  0.00    +0.000 F 
ATOM     30  F   UNL     1      -0.475  14.494  21.679  0.00  0.00    +0.000 F 
ENDBRANCH  24  27
ENDBRANCH  16  17
ENDBRANCH   5  16
TORSDOF 6
ENDMDL
MODEL 9
REMARK VINA RESULT:      -8.0      0.816      1.419
REMARK  Name = 
REMARK  8 active torsions:
REMARK  status: ('A' for Active; 'I' for Inactive)
REMARK    1  A    between atoms: C_1  and  C_2
REMARK    2  A    between atoms: C_2  and  C_3
REMARK    3  A    between atoms: C_2  and  C_25
REMARK    4  A    between atoms: C_3  and  C_4
REMARK    5  A    between atoms: C_8  and  C_9
REMARK    6  A    between atoms: C_9  and  N_10
REMARK    7  A    between atoms: C_17  and  C_18
REMARK    8  A    between atoms: N_29  and  C_30
REMARK                            x       y       z     vdW  Elec       q    Type
REMARK                         _______ _______ _______ _____ _____    ______ ____
ROOT
ATOM      1  C   UNL     1       3.078   6.658  18.299  0.00  0.00    +0.000 A 
ATOM      2  C   UNL     1       2.675   6.345  19.603  0.00  0.00    +0.000 A 
ATOM      3  C   UNL     1       1.939   7.258  20.358  0.00  0.00    +0.000 A 
ATOM      4  C   UNL     1       1.626   8.510  19.830  0.00  0.00    +0.000 A 
ATOM      5  C   UNL     1       2.060   8.865  18.545  0.00  0.00    +0.000 A 
ATOM      6  C   UNL     1       2.775   7.925  17.783  0.00  0.00    +0.000 A 
ENDROOT
BRANCH   1   7
ATOM      7  C   UNL     1       3.817   5.637  17.464  0.00  0.00    +0.000 C 
BRANCH   7   9
ATOM      8  C   UNL     1       5.253   5.341  15.359  0.00  0.00    +0.000 C 
ATOM      9  C   UNL     1       4.906   6.243  16.550  0.00  0.00    +0.000 C 
BRANCH   9  10
ATOM     10  C   UNL     1       6.150   6.495  17.354  0.00  0.00    +0.000 A 
ATOM     11  N   UNL     1       6.942   7.546  17.251  0.00  0.00    +0.000 NA
ATOM     12  N   UNL     1       7.964   7.410  18.158  0.00  0.00    +0.000 NA
ATOM     13  C   UNL     1       7.778   6.280  18.797  0.00  0.00    +0.000 A 
ATOM     14  N   UNL     1       6.654   5.673  18.330  0.00  0.00    +0.000 N 
ATOM     15  C   UNL     1       6.120   4.421  18.791  0.00  0.00    +0.000 C 
ENDBRANCH   9  10
ENDBRANCH   7   9
ENDBRANCH   1   7
BRANCH   5  16
ATOM     16  C   UNL     1       1.820  10.250  18.004  0.00  0.00    +0.000 C 
BRANCH  16  17
ATOM     17  N   UNL     1       0.565  10.808  18.471  0.00  0.00    +0.000 N 
ATOM     18  C   UNL     1      -0.716  10.315  18.006  0.00  0.00    +0.000 C 
ATOM     19  C   UNL     1      -1.677  11.192  18.734  0.00  0.00    +0.000 A 
ATOM     20  C   UNL     1      -0.990  12.024  19.617  0.00  0.00    +0.000 A 
ATOM     21  C   UNL     1      -1.626  12.923  20.439  0.00  0.00    +0.000 A 
ATOM     22  C   UNL     1      -3.001  12.956  20.322  0.00  0.00    +0.000 A 
ATOM     23  N   UNL     1      -3.714  12.177  19.462  0.00  0.00    +0.000 NA
ATOM     24  C   UNL     1      -3.051  11.289  18.656  0.00  0.00    +0.000 A 
ATOM     25  C   UNL     1       0.450  11.778  19.447  0.00  0.00    +0.000 C 
ATOM     26  O   UNL     1       1.328  12.360  20.052  0.00  0.00    +0.000 OA
BRANCH  24  27
ATOM     27  C   UNL     1      -3.847  10.450  17.668  0.00  0.00    +0.000 C 
ATOM     28  F   UNL     1      -3.608   9.108  17.780  0.00  0.00    +0.000 F 
ATOM     29  F   UNL     1      -5.197  10.583  17.813  0.00  0.00    +0.000 F 
ATOM     30  F   UNL     1      -3.570  10.752  16.368  0.00  0.00    +0.000 F 
ENDBRANCH  24  27
ENDBRANCH  16  17
ENDBRANCH   5  16
TORSDOF 6
ENDMDL
