MODEL 1
REMARK VINA RESULT:      -8.1      0.000      0.000
REMARK  Name = 
REMARK  3 active torsions:
REMARK  status: ('A' for Active; 'I' for Inactive)
REMARK    1  A    between atoms: C_2  and  C_3
REMARK    2  A    between atoms: C_8  and  S_9
REMARK    3  A    between atoms: S_9  and  N_12
REMARK                            x       y       z     vdW  Elec       q    Type
REMARK                         _______ _______ _______ _____ _____    ______ ____
ROOT
ATOM      1  C   UNL     1       1.479   9.134  20.276  0.00  0.00    +0.000 A 
ATOM      2  C   UNL     1       1.739  10.005  19.215  0.00  0.00    +0.000 A 
ATOM      3  C   UNL     1       2.145   9.537  17.978  0.00  0.00    +0.000 A 
ATOM      4  C   UNL     1       2.523   8.217  17.868  0.00  0.00    +0.000 A 
ATOM      5  F   UNL     1       3.056   7.844  16.704  0.00  0.00    +0.000 F 
ATOM      6  C   UNL     1       2.425   7.354  18.967  0.00  0.00    +0.000 A 
ATOM      7  C   UNL     1       1.835   7.795  20.162  0.00  0.00    +0.000 A 
ENDROOT
BRANCH   1   9
ATOM      8  O   UNL     1       1.324   9.327  22.570  0.00  0.00    +0.000 OA
ATOM      9  C   UNL     1       0.795   9.622  21.510  0.00  0.00    +0.000 C 
ATOM     10  N   UNL     1      -0.352  10.444  21.407  0.00  0.00    +0.000 N 
ATOM     11  C   UNL     1      -0.817  11.121  22.612  0.00  0.00    +0.000 C 
ATOM     12  C   UNL     1      -0.851  12.624  22.396  0.00  0.00    +0.000 C 
ATOM     13  C   UNL     1      -1.767  12.978  21.227  0.00  0.00    +0.000 C 
ATOM     14  C   UNL     1      -1.700  11.987  20.094  0.00  0.00    +0.000 A 
ATOM     15  C   UNL     1      -2.280  12.343  18.868  0.00  0.00    +0.000 A 
ATOM     16  C   UNL     1      -2.258  11.460  17.759  0.00  0.00    +0.000 A 
ATOM     17  C   UNL     1      -1.693  10.221  17.900  0.00  0.00    +0.000 A 
ATOM     18  C   UNL     1      -1.210   9.830  19.149  0.00  0.00    +0.000 A 
ATOM     19  C   UNL     1      -1.121  10.730  20.225  0.00  0.00    +0.000 A 
ENDBRANCH   1   9
BRANCH   6  20
ATOM     20  S   UNL     1       2.891   5.652  18.854  0.00  0.00    +0.000 S 
ATOM     21  O   UNL     1       2.934   5.145  20.200  0.00  0.00    +0.000 OA
ATOM     22  O   UNL     1       2.033   5.032  17.848  0.00  0.00    +0.000 OA
BRANCH  20  23
ATOM     23  N   UNL     1       4.496   5.645  18.252  0.00  0.00    +0.000 NA
ATOM     24  C   UNL     1       5.549   5.403  19.266  0.00  0.00    +0.000 C 
ATOM     25  C   UNL     1       6.958   5.465  18.693  0.00  0.00    +0.000 C 
ATOM     26  C   UNL     1       7.095   4.638  17.427  0.00  0.00    +0.000 C 
ATOM     27  C   UNL     1       6.104   5.134  16.389  0.00  0.00    +0.000 C 
ATOM     28  C   UNL     1       4.667   5.064  16.895  0.00  0.00    +0.000 C 
ENDBRANCH  20  23
ENDBRANCH   6  20
TORSDOF 3
ENDMDL
MODEL 2
REMARK VINA RESULT:      -7.7      3.190      5.158
REMARK  Name = 
REMARK  3 active torsions:
REMARK  status: ('A' for Active; 'I' for Inactive)
REMARK    1  A    between atoms: C_2  and  C_3
REMARK    2  A    between atoms: C_8  and  S_9
REMARK    3  A    between atoms: S_9  and  N_12
REMARK                            x       y       z     vdW  Elec       q    Type
REMARK                         _______ _______ _______ _____ _____    ______ ____
ROOT
ATOM      1  C   UNL     1      -1.842  11.685  18.788  0.00  0.00    +0.000 A 
ATOM      2  C   UNL     1      -1.104  12.871  18.739  0.00  0.00    +0.000 A 
ATOM      3  C   UNL     1       0.183  12.942  19.241  0.00  0.00    +0.000 A 
ATOM      4  C   UNL     1       0.647  11.896  20.008  0.00  0.00    +0.000 A 
ATOM      5  F   UNL     1       1.828  12.070  20.603  0.00  0.00    +0.000 F 
ATOM      6  C   UNL     1      -0.140  10.755  20.208  0.00  0.00    +0.000 A 
ATOM      7  C   UNL     1      -1.367  10.616  19.540  0.00  0.00    +0.000 A 
ENDROOT
BRANCH   1   9
ATOM      8  O   UNL     1      -3.007  11.100  16.884  0.00  0.00    +0.000 OA
ATOM      9  C   UNL     1      -3.112  11.548  18.015  0.00  0.00    +0.000 C 
ATOM     10  N   UNL     1      -4.350  11.855  18.626  0.00  0.00    +0.000 N 
ATOM     11  C   UNL     1      -5.571  11.444  17.940  0.00  0.00    +0.000 C 
ATOM     12  C   UNL     1      -6.401  10.538  18.833  0.00  0.00    +0.000 C 
ATOM     13  C   UNL     1      -6.763  11.251  20.133  0.00  0.00    +0.000 C 
ATOM     14  C   UNL     1      -5.660  12.133  20.658  0.00  0.00    +0.000 A 
ATOM     15  C   UNL     1      -5.768  12.619  21.969  0.00  0.00    +0.000 A 
ATOM     16  C   UNL     1      -4.771  13.456  22.529  0.00  0.00    +0.000 A 
ATOM     17  C   UNL     1      -3.700  13.828  21.761  0.00  0.00    +0.000 A 
ATOM     18  C   UNL     1      -3.647  13.430  20.425  0.00  0.00    +0.000 A 
ATOM     19  C   UNL     1      -4.565  12.510  19.889  0.00  0.00    +0.000 A 
ENDBRANCH   1   9
BRANCH   6  20
ATOM     20  S   UNL     1       0.433   9.391  21.177  0.00  0.00    +0.000 S 
ATOM     21  O   UNL     1       1.185   9.947  22.270  0.00  0.00    +0.000 OA
ATOM     22  O   UNL     1      -0.715   8.522  21.423  0.00  0.00    +0.000 OA
BRANCH  20  23
ATOM     23  N   UNL     1       1.534   8.537  20.178  0.00  0.00    +0.000 NA
ATOM     24  C   UNL     1       1.710   7.105  20.515  0.00  0.00    +0.000 C 
ATOM     25  C   UNL     1       2.740   6.405  19.638  0.00  0.00    +0.000 C 
ATOM     26  C   UNL     1       2.517   6.688  18.163  0.00  0.00    +0.000 C 
ATOM     27  C   UNL     1       2.578   8.185  17.920  0.00  0.00    +0.000 C 
ATOM     28  C   UNL     1       1.544   8.939  18.748  0.00  0.00    +0.000 C 
ENDBRANCH  20  23
ENDBRANCH   6  20
TORSDOF 3
ENDMDL
MODEL 3
REMARK VINA RESULT:      -7.6      2.304      3.695
REMARK  Name = 
REMARK  3 active torsions:
REMARK  status: ('A' for Active; 'I' for Inactive)
REMARK    1  A    between atoms: C_2  and  C_3
REMARK    2  A    between atoms: C_8  and  S_9
REMARK    3  A    between atoms: S_9  and  N_12
REMARK                            x       y       z     vdW  Elec       q    Type
REMARK                         _______ _______ _______ _____ _____    ______ ____
ROOT
ATOM      1  C   UNL     1       2.257   7.325  18.961  0.00  0.00    +0.000 A 
ATOM      2  C   UNL     1       1.306   6.732  19.794  0.00  0.00    +0.000 A 
ATOM      3  C   UNL     1       1.623   5.651  20.597  0.00  0.00    +0.000 A 
ATOM      4  C   UNL     1       2.824   5.010  20.391  0.00  0.00    +0.000 A 
ATOM      5  F   UNL     1       3.024   3.882  21.073  0.00  0.00    +0.000 F 
ATOM      6  C   UNL     1       3.735   5.492  19.442  0.00  0.00    +0.000 A 
ATOM      7  C   UNL     1       3.483   6.697  18.768  0.00  0.00    +0.000 A 
ENDROOT
BRANCH   1   9
ATOM      8  O   UNL     1       2.316   8.738  17.136  0.00  0.00    +0.000 OA
ATOM      9  C   UNL     1       1.981   8.639  18.307  0.00  0.00    +0.000 C 
ATOM     10  N   UNL     1       1.297   9.654  19.016  0.00  0.00    +0.000 N 
ATOM     11  C   UNL     1       0.804  10.801  18.261  0.00  0.00    +0.000 C 
ATOM     12  C   UNL     1      -0.698  10.944  18.434  0.00  0.00    +0.000 C 
ATOM     13  C   UNL     1      -1.055  11.113  19.908  0.00  0.00    +0.000 C 
ATOM     14  C   UNL     1      -0.198  10.285  20.829  0.00  0.00    +0.000 A 
ATOM     15  C   UNL     1      -0.603  10.147  22.165  0.00  0.00    +0.000 A 
ATOM     16  C   UNL     1       0.155   9.385  23.089  0.00  0.00    +0.000 A 
ATOM     17  C   UNL     1       1.325   8.805  22.680  0.00  0.00    +0.000 A 
ATOM     18  C   UNL     1       1.780   9.030  21.380  0.00  0.00    +0.000 A 
ATOM     19  C   UNL     1       0.988   9.685  20.420  0.00  0.00    +0.000 A 
ENDBRANCH   1   9
BRANCH   6  20
ATOM     20  S   UNL     1       5.291   4.699  19.163  0.00  0.00    +0.000 S 
ATOM     21  O   UNL     1       6.285   5.491  19.839  0.00  0.00    +0.000 OA
ATOM     22  O   UNL     1       5.120   3.284  19.478  0.00  0.00    +0.000 OA
BRANCH  20  23
ATOM     23  N   UNL     1       5.589   4.831  17.480  0.00  0.00    +0.000 NA
ATOM     24  C   UNL     1       7.015   4.965  17.100  0.00  0.00    +0.000 C 
ATOM     25  C   UNL     1       7.223   5.138  15.602  0.00  0.00    +0.000 C 
ATOM     26  C   UNL     1       6.445   4.111  14.798  0.00  0.00    +0.000 C 
ATOM     27  C   UNL     1       4.967   4.228  15.121  0.00  0.00    +0.000 C 
ATOM     28  C   UNL     1       4.692   4.030  16.608  0.00  0.00    +0.000 C 
ENDBRANCH  20  23
ENDBRANCH   6  20
TORSDOF 3
ENDMDL
MODEL 4
REMARK VINA RESULT:      -7.6      5.700      9.091
REMARK  Name = 
REMARK  3 active torsions:
REMARK  status: ('A' for Active; 'I' for Inactive)
REMARK    1  A    between atoms: C_2  and  C_3
REMARK    2  A    between atoms: C_8  and  S_9
REMARK    3  A    between atoms: S_9  and  N_12
REMARK                            x       y       z     vdW  Elec       q    Type
REMARK                         _______ _______ _______ _____ _____    ______ ____
ROOT
ATOM      1  C   UNL     1      -1.937  12.503  23.038  0.00  0.00    +0.000 A 
ATOM      2  C   UNL     1      -1.595  13.632  23.786  0.00  0.00    +0.000 A 
ATOM      3  C   UNL     1      -2.561  14.483  24.293  0.00  0.00    +0.000 A 
ATOM      4  C   UNL     1      -3.858  14.339  23.853  0.00  0.00    +0.000 A 
ATOM      5  F   UNL     1      -4.727  15.273  24.241  0.00  0.00    +0.000 F 
ATOM      6  C   UNL     1      -4.201  13.306  22.970  0.00  0.00    +0.000 A 
ATOM      7  C   UNL     1      -3.250  12.338  22.611  0.00  0.00    +0.000 A 
ENDROOT
BRANCH   1   9
ATOM      8  O   UNL     1      -0.827  10.537  23.521  0.00  0.00    +0.000 OA
ATOM      9  C   UNL     1      -0.914  11.461  22.726  0.00  0.00    +0.000 C 
ATOM     10  N   UNL     1      -0.169  11.536  21.526  0.00  0.00    +0.000 N 
ATOM     11  C   UNL     1       0.607  10.366  21.129  0.00  0.00    +0.000 C 
ATOM     12  C   UNL     1       0.178   9.888  19.753  0.00  0.00    +0.000 C 
ATOM     13  C   UNL     1       0.362  10.996  18.718  0.00  0.00    +0.000 C 
ATOM     14  C   UNL     1       0.038  12.368  19.248  0.00  0.00    +0.000 A 
ATOM     15  C   UNL     1      -0.093  13.419  18.330  0.00  0.00    +0.000 A 
ATOM     16  C   UNL     1      -0.394  14.737  18.756  0.00  0.00    +0.000 A 
ATOM     17  C   UNL     1      -0.521  14.996  20.094  0.00  0.00    +0.000 A 
ATOM     18  C   UNL     1      -0.286  13.972  21.012  0.00  0.00    +0.000 A 
ATOM     19  C   UNL     1      -0.100  12.639  20.605  0.00  0.00    +0.000 A 
ENDBRANCH   1   9
BRANCH   6  20
ATOM     20  S   UNL     1      -5.859  13.088  22.396  0.00  0.00    +0.000 S 
ATOM     21  O   UNL     1      -6.538  12.294  23.386  0.00  0.00    +0.000 OA
ATOM     22  O   UNL     1      -6.364  14.405  22.017  0.00  0.00    +0.000 OA
BRANCH  20  23
ATOM     23  N   UNL     1      -5.741  12.141  20.972  0.00  0.00    +0.000 NA
ATOM     24  C   UNL     1      -6.923  11.299  20.675  0.00  0.00    +0.000 C 
ATOM     25  C   UNL     1      -6.747  10.434  19.435  0.00  0.00    +0.000 C 
ATOM     26  C   UNL     1      -6.222  11.232  18.254  0.00  0.00    +0.000 C 
ATOM     27  C   UNL     1      -4.894  11.867  18.623  0.00  0.00    +0.000 C 
ATOM     28  C   UNL     1      -5.014  12.774  19.842  0.00  0.00    +0.000 C 
ENDBRANCH  20  23
ENDBRANCH   6  20
TORSDOF 3
ENDMDL
MODEL 5
REMARK VINA RESULT:      -7.4      4.676      7.093
REMARK  Name = 
REMARK  3 active torsions:
REMARK  status: ('A' for Active; 'I' for Inactive)
REMARK    1  A    between atoms: C_2  and  C_3
REMARK    2  A    between atoms: C_8  and  S_9
REMARK    3  A    between atoms: S_9  and  N_12
REMARK                            x       y       z     vdW  Elec       q    Type
REMARK                         _______ _______ _______ _____ _____    ______ ____
ROOT
ATOM      1  C   UNL     1       4.840   3.622  17.699  0.00  0.00    +0.000 A 
ATOM      2  C   UNL     1       5.677   4.060  18.729  0.00  0.00    +0.000 A 
ATOM      3  C   UNL     1       6.603   5.068  18.528  0.00  0.00    +0.000 A 
ATOM      4  C   UNL     1       6.860   5.475  17.238  0.00  0.00    +0.000 A 
ATOM      5  F   UNL     1       7.868   6.333  17.072  0.00  0.00    +0.000 F 
ATOM      6  C   UNL     1       6.144   4.933  16.163  0.00  0.00    +0.000 A 
ATOM      7  C   UNL     1       5.078   4.049  16.397  0.00  0.00    +0.000 A 
ENDROOT
BRANCH   1   9
ATOM      8  O   UNL     1       3.792   1.567  17.640  0.00  0.00    +0.000 OA
ATOM      9  C   UNL     1       3.678   2.731  17.991  0.00  0.00    +0.000 C 
ATOM     10  N   UNL     1       2.565   3.230  18.707  0.00  0.00    +0.000 N 
ATOM     11  C   UNL     1       1.590   2.268  19.211  0.00  0.00    +0.000 C 
ATOM     12  C   UNL     1       1.452   2.394  20.718  0.00  0.00    +0.000 C 
ATOM     13  C   UNL     1       1.019   3.806  21.103  0.00  0.00    +0.000 C 
ATOM     14  C   UNL     1       1.641   4.876  20.244  0.00  0.00    +0.000 A 
ATOM     15  C   UNL     1       1.537   6.209  20.667  0.00  0.00    +0.000 A 
ATOM     16  C   UNL     1       2.095   7.268  19.909  0.00  0.00    +0.000 A 
ATOM     17  C   UNL     1       2.715   6.988  18.721  0.00  0.00    +0.000 A 
ATOM     18  C   UNL     1       2.726   5.675  18.250  0.00  0.00    +0.000 A 
ATOM     19  C   UNL     1       2.279   4.601  19.040  0.00  0.00    +0.000 A 
ENDBRANCH   1   9
BRANCH   6  20
ATOM     20  S   UNL     1       6.442   5.444  14.496  0.00  0.00    +0.000 S 
ATOM     21  O   UNL     1       5.520   6.513  14.220  0.00  0.00    +0.000 OA
ATOM     22  O   UNL     1       7.882   5.641  14.354  0.00  0.00    +0.000 OA
BRANCH  20  23
ATOM     23  N   UNL     1       5.994   4.113  13.511  0.00  0.00    +0.000 NA
ATOM     24  C   UNL     1       4.648   4.207  12.900  0.00  0.00    +0.000 C 
ATOM     25  C   UNL     1       4.274   2.977  12.084  0.00  0.00    +0.000 C 
ATOM     26  C   UNL     1       5.380   2.572  11.126  0.00  0.00    +0.000 C 
ATOM     27  C   UNL     1       6.651   2.294  11.908  0.00  0.00    +0.000 C 
ATOM     28  C   UNL     1       7.095   3.504  12.722  0.00  0.00    +0.000 C 
ENDBRANCH  20  23
ENDBRANCH   6  20
TORSDOF 3
ENDMDL
MODEL 6
REMARK VINA RESULT:      -7.4      2.060      2.770
REMARK  Name = 
REMARK  3 active torsions:
REMARK  status: ('A' for Active; 'I' for Inactive)
REMARK    1  A    between atoms: C_2  and  C_3
REMARK    2  A    between atoms: C_8  and  S_9
REMARK    3  A    between atoms: S_9  and  N_12
REMARK                            x       y       z     vdW  Elec       q    Type
REMARK                         _______ _______ _______ _____ _____    ______ ____
ROOT
ATOM      1  C   UNL     1       1.514   8.921  20.148  0.00  0.00    +0.000 A 
ATOM      2  C   UNL     1       1.638   9.829  19.094  0.00  0.00    +0.000 A 
ATOM      3  C   UNL     1       2.108   9.435  17.853  0.00  0.00    +0.000 A 
ATOM      4  C   UNL     1       2.678   8.188  17.733  0.00  0.00    +0.000 A 
ATOM      5  F   UNL     1       3.259   7.907  16.566  0.00  0.00    +0.000 F 
ATOM      6  C   UNL     1       2.712   7.311  18.825  0.00  0.00    +0.000 A 
ATOM      7  C   UNL     1       2.065   7.650  20.024  0.00  0.00    +0.000 A 
ENDROOT
BRANCH   1   9
ATOM      8  O   UNL     1       1.239   8.893  22.440  0.00  0.00    +0.000 OA
ATOM      9  C   UNL     1       0.766   9.292  21.386  0.00  0.00    +0.000 C 
ATOM     10  N   UNL     1      -0.372  10.127  21.304  0.00  0.00    +0.000 N 
ATOM     11  C   UNL     1      -0.899  10.688  22.543  0.00  0.00    +0.000 C 
ATOM     12  C   UNL     1      -0.920  12.205  22.471  0.00  0.00    +0.000 C 
ATOM     13  C   UNL     1      -1.773  12.676  21.296  0.00  0.00    +0.000 C 
ATOM     14  C   UNL     1      -1.648  11.798  20.078  0.00  0.00    +0.000 A 
ATOM     15  C   UNL     1      -2.163  12.273  18.863  0.00  0.00    +0.000 A 
ATOM     16  C   UNL     1      -2.084  11.502  17.677  0.00  0.00    +0.000 A 
ATOM     17  C   UNL     1      -1.529  10.252  17.727  0.00  0.00    +0.000 A 
ATOM     18  C   UNL     1      -1.113   9.738  18.956  0.00  0.00    +0.000 A 
ATOM     19  C   UNL     1      -1.079  10.530  20.117  0.00  0.00    +0.000 A 
ENDBRANCH   1   9
BRANCH   6  20
ATOM     20  S   UNL     1       3.426   5.698  18.699  0.00  0.00    +0.000 S 
ATOM     21  O   UNL     1       3.592   5.428  17.295  0.00  0.00    +0.000 OA
ATOM     22  O   UNL     1       4.567   5.657  19.610  0.00  0.00    +0.000 OA
BRANCH  20  23
ATOM     23  N   UNL     1       2.240   4.613  19.293  0.00  0.00    +0.000 NA
ATOM     24  C   UNL     1       1.661   3.696  18.283  0.00  0.00    +0.000 C 
ATOM     25  C   UNL     1       0.572   2.794  18.847  0.00  0.00    +0.000 C 
ATOM     26  C   UNL     1       1.001   2.124  20.140  0.00  0.00    +0.000 C 
ATOM     27  C   UNL     1       1.361   3.185  21.165  0.00  0.00    +0.000 C 
ATOM     28  C   UNL     1       2.473   4.102  20.669  0.00  0.00    +0.000 C 
ENDBRANCH  20  23
ENDBRANCH   6  20
TORSDOF 3
ENDMDL
MODEL 7
REMARK VINA RESULT:      -7.4      3.110      4.978
REMARK  Name = 
REMARK  3 active torsions:
REMARK  status: ('A' for Active; 'I' for Inactive)
REMARK    1  A    between atoms: C_2  and  C_3
REMARK    2  A    between atoms: C_8  and  S_9
REMARK    3  A    between atoms: S_9  and  N_12
REMARK                            x       y       z     vdW  Elec       q    Type
REMARK                         _______ _______ _______ _____ _____    ______ ____
ROOT
ATOM      1  C   UNL     1      -2.159  12.323  20.430  0.00  0.00    +0.000 A 
ATOM      2  C   UNL     1      -1.361  13.364  19.948  0.00  0.00    +0.000 A 
ATOM      3  C   UNL     1      -0.007  13.190  19.721  0.00  0.00    +0.000 A 
ATOM      4  C   UNL     1       0.598  12.050  20.201  0.00  0.00    +0.000 A 
ATOM      5  F   UNL     1       1.926  11.992  20.102  0.00  0.00    +0.000 F 
ATOM      6  C   UNL     1      -0.158  11.055  20.836  0.00  0.00    +0.000 A 
ATOM      7  C   UNL     1      -1.557  11.158  20.892  0.00  0.00    +0.000 A 
ENDROOT
BRANCH   1   9
ATOM      8  O   UNL     1      -4.154  12.951  21.407  0.00  0.00    +0.000 OA
ATOM      9  C   UNL     1      -3.648  12.440  20.419  0.00  0.00    +0.000 C 
ATOM     10  N   UNL     1      -4.382  12.043  19.277  0.00  0.00    +0.000 N 
ATOM     11  C   UNL     1      -5.787  12.430  19.200  0.00  0.00    +0.000 C 
ATOM     12  C   UNL     1      -6.042  13.247  17.945  0.00  0.00    +0.000 C 
ATOM     13  C   UNL     1      -5.664  12.451  16.699  0.00  0.00    +0.000 C 
ATOM     14  C   UNL     1      -4.438  11.596  16.886  0.00  0.00    +0.000 A 
ATOM     15  C   UNL     1      -3.840  11.037  15.747  0.00  0.00    +0.000 A 
ATOM     16  C   UNL     1      -2.686  10.221  15.846  0.00  0.00    +0.000 A 
ATOM     17  C   UNL     1      -2.168   9.940  17.081  0.00  0.00    +0.000 A 
ATOM     18  C   UNL     1      -2.824  10.410  18.219  0.00  0.00    +0.000 A 
ATOM     19  C   UNL     1      -3.899  11.312  18.136  0.00  0.00    +0.000 A 
ENDBRANCH   1   9
BRANCH   6  20
ATOM     20  S   UNL     1       0.588   9.575  21.451  0.00  0.00    +0.000 S 
ATOM     21  O   UNL     1       1.536   9.976  22.457  0.00  0.00    +0.000 OA
ATOM     22  O   UNL     1      -0.493   8.645  21.769  0.00  0.00    +0.000 OA
BRANCH  20  23
ATOM     23  N   UNL     1       1.477   8.918  20.141  0.00  0.00    +0.000 NA
ATOM     24  C   UNL     1       1.936   7.522  20.327  0.00  0.00    +0.000 C 
ATOM     25  C   UNL     1       2.771   7.005  19.163  0.00  0.00    +0.000 C 
ATOM     26  C   UNL     1       2.112   7.284  17.823  0.00  0.00    +0.000 C 
ATOM     27  C   UNL     1       1.895   8.778  17.667  0.00  0.00    +0.000 C 
ATOM     28  C   UNL     1       1.035   9.349  18.789  0.00  0.00    +0.000 C 
ENDBRANCH  20  23
ENDBRANCH   6  20
TORSDOF 3
ENDMDL
MODEL 8
REMARK VINA RESULT:      -7.3      0.704      1.153
REMARK  Name = 
REMARK  3 active torsions:
REMARK  status: ('A' for Active; 'I' for Inactive)
REMARK    1  A    between atoms: C_2  and  C_3
REMARK    2  A    between atoms: C_8  and  S_9
REMARK    3  A    between atoms: S_9  and  N_12
REMARK                            x       y       z     vdW  Elec       q    Type
REMARK                         _______ _______ _______ _____ _____    ______ ____
ROOT
ATOM      1  C   UNL     1       1.484   8.877  20.405  0.00  0.00    +0.000 A 
ATOM      2  C   UNL     1       1.890   9.566  19.260  0.00  0.00    +0.000 A 
ATOM      3  C   UNL     1       2.249   8.896  18.103  0.00  0.00    +0.000 A 
ATOM      4  C   UNL     1       2.433   7.533  18.164  0.00  0.00    +0.000 A 
ATOM      5  F   UNL     1       2.930   6.948  17.074  0.00  0.00    +0.000 F 
ATOM      6  C   UNL     1       2.186   6.833  19.353  0.00  0.00    +0.000 A 
ATOM      7  C   UNL     1       1.643   7.497  20.464  0.00  0.00    +0.000 A 
ENDROOT
BRANCH   1   9
ATOM      8  O   UNL     1       1.328   9.389  22.650  0.00  0.00    +0.000 OA
ATOM      9  C   UNL     1       0.852   9.605  21.546  0.00  0.00    +0.000 C 
ATOM     10  N   UNL     1      -0.179  10.541  21.305  0.00  0.00    +0.000 N 
ATOM     11  C   UNL     1      -0.569  11.425  22.399  0.00  0.00    +0.000 C 
ATOM     12  C   UNL     1      -0.410  12.878  21.989  0.00  0.00    +0.000 C 
ATOM     13  C   UNL     1      -1.260  13.185  20.758  0.00  0.00    +0.000 C 
ATOM     14  C   UNL     1      -1.306  12.053  19.766  0.00  0.00    +0.000 A 
ATOM     15  C   UNL     1      -1.823  12.312  18.488  0.00  0.00    +0.000 A 
ATOM     16  C   UNL     1      -1.899  11.295  17.504  0.00  0.00    +0.000 A 
ATOM     17  C   UNL     1      -1.497  10.025  17.820  0.00  0.00    +0.000 A 
ATOM     18  C   UNL     1      -1.083   9.745  19.122  0.00  0.00    +0.000 A 
ATOM     19  C   UNL     1      -0.893  10.762  20.075  0.00  0.00    +0.000 A 
ENDBRANCH   1   9
BRANCH   6  20
ATOM     20  S   UNL     1       2.401   5.081  19.460  0.00  0.00    +0.000 S 
ATOM     21  O   UNL     1       2.417   4.751  20.860  0.00  0.00    +0.000 OA
ATOM     22  O   UNL     1       1.431   4.469  18.557  0.00  0.00    +0.000 OA
BRANCH  20  23
ATOM     23  N   UNL     1       3.968   4.763  18.841  0.00  0.00    +0.000 NA
ATOM     24  C   UNL     1       4.010   4.325  17.426  0.00  0.00    +0.000 C 
ATOM     25  C   UNL     1       5.416   3.998  16.941  0.00  0.00    +0.000 C 
ATOM     26  C   UNL     1       6.408   5.091  17.297  0.00  0.00    +0.000 C 
ATOM     27  C   UNL     1       6.425   5.289  18.802  0.00  0.00    +0.000 C 
ATOM     28  C   UNL     1       5.047   5.652  19.344  0.00  0.00    +0.000 C 
ENDBRANCH  20  23
ENDBRANCH   6  20
TORSDOF 3
ENDMDL
MODEL 9
REMARK VINA RESULT:      -7.2      5.167      6.864
REMARK  Name = 
REMARK  3 active torsions:
REMARK  status: ('A' for Active; 'I' for Inactive)
REMARK    1  A    between atoms: C_2  and  C_3
REMARK    2  A    between atoms: C_8  and  S_9
REMARK    3  A    between atoms: S_9  and  N_12
REMARK                            x       y       z     vdW  Elec       q    Type
REMARK                         _______ _______ _______ _____ _____    ______ ____
ROOT
ATOM      1  C   UNL     1      -1.247  12.750  22.521  0.00  0.00    +0.000 A 
ATOM      2  C   UNL     1      -1.328  11.619  23.338  0.00  0.00    +0.000 A 
ATOM      3  C   UNL     1      -0.907  10.377  22.895  0.00  0.00    +0.000 A 
ATOM      4  C   UNL     1      -0.629  10.217  21.556  0.00  0.00    +0.000 A 
ATOM      5  F   UNL     1      -0.382   8.974  21.143  0.00  0.00    +0.000 F 
ATOM      6  C   UNL     1      -0.697  11.307  20.679  0.00  0.00    +0.000 A 
ATOM      7  C   UNL     1      -0.942  12.598  21.173  0.00  0.00    +0.000 A 
ENDROOT
BRANCH   1   9
ATOM      8  O   UNL     1      -0.542  14.551  23.780  0.00  0.00    +0.000 OA
ATOM      9  C   UNL     1      -1.452  14.115  23.091  0.00  0.00    +0.000 C 
ATOM     10  N   UNL     1      -2.610  14.855  22.759  0.00  0.00    +0.000 N 
ATOM     11  C   UNL     1      -2.637  16.273  23.104  0.00  0.00    +0.000 C 
ATOM     12  C   UNL     1      -2.860  17.117  21.861  0.00  0.00    +0.000 C 
ATOM     13  C   UNL     1      -4.171  16.734  21.180  0.00  0.00    +0.000 C 
ATOM     14  C   UNL     1      -4.462  15.256  21.232  0.00  0.00    +0.000 A 
ATOM     15  C   UNL     1      -5.485  14.753  20.414  0.00  0.00    +0.000 A 
ATOM     16  C   UNL     1      -5.816  13.375  20.413  0.00  0.00    +0.000 A 
ATOM     17  C   UNL     1      -5.150  12.525  21.254  0.00  0.00    +0.000 A 
ATOM     18  C   UNL     1      -4.206  13.043  22.141  0.00  0.00    +0.000 A 
ATOM     19  C   UNL     1      -3.786  14.384  22.077  0.00  0.00    +0.000 A 
ENDBRANCH   1   9
BRANCH   6  20
ATOM     20  S   UNL     1      -0.334  11.136  18.956  0.00  0.00    +0.000 S 
ATOM     21  O   UNL     1       0.080  12.433  18.491  0.00  0.00    +0.000 OA
ATOM     22  O   UNL     1       0.537   9.974  18.810  0.00  0.00    +0.000 OA
BRANCH  20  23
ATOM     23  N   UNL     1      -1.828  10.772  18.197  0.00  0.00    +0.000 NA
ATOM     24  C   UNL     1      -2.882  11.800  18.355  0.00  0.00    +0.000 C 
ATOM     25  C   UNL     1      -4.206  11.404  17.714  0.00  0.00    +0.000 C 
ATOM     26  C   UNL     1      -4.021  10.896  16.295  0.00  0.00    +0.000 C 
ATOM     27  C   UNL     1      -3.084   9.702  16.303  0.00  0.00    +0.000 C 
ATOM     28  C   UNL     1      -1.727  10.046  16.904  0.00  0.00    +0.000 C 
ENDBRANCH  20  23
ENDBRANCH   6  20
TORSDOF 3
ENDMDL
