MODEL 1
REMARK VINA RESULT:      -8.0      0.000      0.000
REMARK  Name = 
REMARK  4 active torsions:
REMARK  status: ('A' for Active; 'I' for Inactive)
REMARK    1  A    between atoms: C_7  and  C_8
REMARK    2  A    between atoms: C_8  and  N_9
REMARK    3  A    between atoms: N_9  and  C_10
REMARK    4  A    between atoms: C_12  and  C_13
REMARK                            x       y       z     vdW  Elec       q    Type
REMARK                         _______ _______ _______ _____ _____    ______ ____
ROOT
ATOM      1  C   UNL     1       2.818   6.026  18.576  0.00  0.00    +0.000 A 
ATOM      2  N   UNL     1       2.330   7.188  19.055  0.00  0.00    +0.000 NA
ATOM      3  C   UNL     1       1.720   7.227  20.261  0.00  0.00    +0.000 A 
ATOM      4  N   UNL     1       1.543   6.175  21.077  0.00  0.00    +0.000 NA
ATOM      5  C   UNL     1       2.024   5.030  20.575  0.00  0.00    +0.000 A 
ATOM      6  S   UNL     1       1.875   3.573  21.446  0.00  0.00    +0.000 S 
ATOM      7  C   UNL     1       2.667   2.686  20.220  0.00  0.00    +0.000 A 
ATOM      8  C   UNL     1       3.039   3.491  19.166  0.00  0.00    +0.000 A 
ATOM      9  C   UNL     1       2.664   4.866  19.358  0.00  0.00    +0.000 A 
ENDROOT
BRANCH   3  10
ATOM     10  C   UNL     1       1.176   8.533  20.725  0.00  0.00    +0.000 A 
ATOM     11  C   UNL     1       0.726   8.715  22.037  0.00  0.00    +0.000 A 
ATOM     12  C   UNL     1       0.196   9.944  22.425  0.00  0.00    +0.000 A 
ATOM     13  C   UNL     1       0.129  10.975  21.499  0.00  0.00    +0.000 A 
ATOM     14  C   UNL     1       0.597  10.733  20.220  0.00  0.00    +0.000 A 
ATOM     15  N   UNL     1       1.111   9.550  19.818  0.00  0.00    +0.000 NA
ENDBRANCH   3  10
BRANCH   1  16
ATOM     16  N   UNL     1       3.438   5.986  17.322  0.00  0.00    +0.000 N 
ATOM     17  H   UNL     1       3.170   5.155  16.806  0.00  0.00    +0.000 HD
BRANCH  16  18
ATOM     18  C   UNL     1       4.876   6.260  17.333  0.00  0.00    +0.000 C 
BRANCH  18  25
ATOM     19  O   UNL     1       8.175   4.217  17.129  0.00  0.00    +0.000 OA
ATOM     20  S   UNL     1       7.303   5.246  16.596  0.00  0.00    +0.000 S 
ATOM     21  O   UNL     1       7.636   6.649  16.702  0.00  0.00    +0.000 OA
ATOM     22  C   UNL     1       6.947   4.848  14.887  0.00  0.00    +0.000 C 
ATOM     23  C   UNL     1       5.472   4.456  14.825  0.00  0.00    +0.000 C 
ATOM     24  C   UNL     1       5.069   3.955  16.210  0.00  0.00    +0.000 C 
ATOM     25  C   UNL     1       5.653   4.947  17.226  0.00  0.00    +0.000 C 
ENDBRANCH  18  25
ENDBRANCH  16  18
ENDBRANCH   1  16
TORSDOF 4
ENDMDL
MODEL 2
REMARK VINA RESULT:      -7.7      1.488      1.874
REMARK  Name = 
REMARK  4 active torsions:
REMARK  status: ('A' for Active; 'I' for Inactive)
REMARK    1  A    between atoms: C_7  and  C_8
REMARK    2  A    between atoms: C_8  and  N_9
REMARK    3  A    between atoms: N_9  and  C_10
REMARK    4  A    between atoms: C_12  and  C_13
REMARK                            x       y       z     vdW  Elec       q    Type
REMARK                         _______ _______ _______ _____ _____    ______ ____
ROOT
ATOM      1  C   UNL     1       3.168   5.533  18.656  0.00  0.00    +0.000 A 
ATOM      2  N   UNL     1       2.719   6.737  19.062  0.00  0.00    +0.000 NA
ATOM      3  C   UNL     1       1.894   6.834  20.129  0.00  0.00    +0.000 A 
ATOM      4  N   UNL     1       1.453   5.803  20.867  0.00  0.00    +0.000 NA
ATOM      5  C   UNL     1       1.901   4.616  20.437  0.00  0.00    +0.000 A 
ATOM      6  S   UNL     1       1.435   3.178  21.224  0.00  0.00    +0.000 S 
ATOM      7  C   UNL     1       2.355   2.219  20.150  0.00  0.00    +0.000 A 
ATOM      8  C   UNL     1       3.005   2.986  19.210  0.00  0.00    +0.000 A 
ATOM      9  C   UNL     1       2.745   4.392  19.362  0.00  0.00    +0.000 A 
ENDROOT
BRANCH   3  10
ATOM     10  C   UNL     1       1.408   8.188  20.513  0.00  0.00    +0.000 A 
ATOM     11  C   UNL     1       1.054   8.493  21.832  0.00  0.00    +0.000 A 
ATOM     12  C   UNL     1       0.576   9.763  22.147  0.00  0.00    +0.000 A 
ATOM     13  C   UNL     1       0.464  10.713  21.142  0.00  0.00    +0.000 A 
ATOM     14  C   UNL     1       0.839  10.351  19.860  0.00  0.00    +0.000 A 
ATOM     15  N   UNL     1       1.301   9.126  19.528  0.00  0.00    +0.000 NA
ENDBRANCH   3  10
BRANCH   1  16
ATOM     16  N   UNL     1       4.012   5.434  17.544  0.00  0.00    +0.000 N 
ATOM     17  H   UNL     1       4.417   4.507  17.471  0.00  0.00    +0.000 HD
BRANCH  16  18
ATOM     18  C   UNL     1       4.969   6.531  17.395  0.00  0.00    +0.000 C 
BRANCH  18  25
ATOM     19  O   UNL     1       8.070   4.309  18.135  0.00  0.00    +0.000 OA
ATOM     20  S   UNL     1       7.175   5.382  18.525  0.00  0.00    +0.000 S 
ATOM     21  O   UNL     1       6.225   5.220  19.602  0.00  0.00    +0.000 OA
ATOM     22  C   UNL     1       8.156   6.851  18.813  0.00  0.00    +0.000 C 
ATOM     23  C   UNL     1       7.819   7.832  17.692  0.00  0.00    +0.000 C 
ATOM     24  C   UNL     1       7.330   7.017  16.497  0.00  0.00    +0.000 C 
ATOM     25  C   UNL     1       6.349   5.971  17.048  0.00  0.00    +0.000 C 
ENDBRANCH  18  25
ENDBRANCH  16  18
ENDBRANCH   1  16
TORSDOF 4
ENDMDL
MODEL 3
REMARK VINA RESULT:      -7.6      1.383      2.147
REMARK  Name = 
REMARK  4 active torsions:
REMARK  status: ('A' for Active; 'I' for Inactive)
REMARK    1  A    between atoms: C_7  and  C_8
REMARK    2  A    between atoms: C_8  and  N_9
REMARK    3  A    between atoms: N_9  and  C_10
REMARK    4  A    between atoms: C_12  and  C_13
REMARK                            x       y       z     vdW  Elec       q    Type
REMARK                         _______ _______ _______ _____ _____    ______ ____
ROOT
ATOM      1  C   UNL     1       3.051   4.678  18.097  0.00  0.00    +0.000 A 
ATOM      2  N   UNL     1       2.711   5.982  18.141  0.00  0.00    +0.000 NA
ATOM      3  C   UNL     1       2.193   6.515  19.270  0.00  0.00    +0.000 A 
ATOM      4  N   UNL     1       1.972   5.848  20.414  0.00  0.00    +0.000 NA
ATOM      5  C   UNL     1       2.304   4.553  20.343  0.00  0.00    +0.000 A 
ATOM      6  S   UNL     1       2.076   3.526  21.684  0.00  0.00    +0.000 S 
ATOM      7  C   UNL     1       2.693   2.178  20.836  0.00  0.00    +0.000 A 
ATOM      8  C   UNL     1       3.067   2.509  19.552  0.00  0.00    +0.000 A 
ATOM      9  C   UNL     1       2.840   3.896  19.248  0.00  0.00    +0.000 A 
ENDROOT
BRANCH   3  10
ATOM     10  C   UNL     1       1.810   7.954  19.248  0.00  0.00    +0.000 A 
ATOM     11  C   UNL     1       1.963   8.736  18.097  0.00  0.00    +0.000 A 
ATOM     12  C   UNL     1       1.621  10.086  18.125  0.00  0.00    +0.000 A 
ATOM     13  C   UNL     1       1.126  10.635  19.299  0.00  0.00    +0.000 A 
ATOM     14  C   UNL     1       0.992   9.807  20.399  0.00  0.00    +0.000 A 
ATOM     15  N   UNL     1       1.319   8.497  20.399  0.00  0.00    +0.000 NA
ENDBRANCH   3  10
BRANCH   1  16
ATOM     16  N   UNL     1       3.575   4.125  16.923  0.00  0.00    +0.000 N 
ATOM     17  H   UNL     1       3.097   3.266  16.675  0.00  0.00    +0.000 HD
BRANCH  16  18
ATOM     18  C   UNL     1       5.036   4.045  16.876  0.00  0.00    +0.000 C 
BRANCH  18  25
ATOM     19  O   UNL     1       7.889   5.496  14.673  0.00  0.00    +0.000 OA
ATOM     20  S   UNL     1       7.346   5.200  15.985  0.00  0.00    +0.000 S 
ATOM     21  O   UNL     1       7.892   4.145  16.809  0.00  0.00    +0.000 OA
ATOM     22  C   UNL     1       7.294   6.722  16.925  0.00  0.00    +0.000 C 
ATOM     23  C   UNL     1       5.820   7.084  17.095  0.00  0.00    +0.000 C 
ATOM     24  C   UNL     1       5.051   6.441  15.943  0.00  0.00    +0.000 C 
ATOM     25  C   UNL     1       5.574   5.002  15.812  0.00  0.00    +0.000 C 
ENDBRANCH  18  25
ENDBRANCH  16  18
ENDBRANCH   1  16
TORSDOF 4
ENDMDL
MODEL 4
REMARK VINA RESULT:      -7.6      1.571      2.152
REMARK  Name = 
REMARK  4 active torsions:
REMARK  status: ('A' for Active; 'I' for Inactive)
REMARK    1  A    between atoms: C_7  and  C_8
REMARK    2  A    between atoms: C_8  and  N_9
REMARK    3  A    between atoms: N_9  and  C_10
REMARK    4  A    between atoms: C_12  and  C_13
REMARK                            x       y       z     vdW  Elec       q    Type
REMARK                         _______ _______ _______ _____ _____    ______ ____
ROOT
ATOM      1  C   UNL     1       3.263   5.567  18.564  0.00  0.00    +0.000 A 
ATOM      2  N   UNL     1       2.815   6.764  18.992  0.00  0.00    +0.000 NA
ATOM      3  C   UNL     1       1.930   6.837  20.012  0.00  0.00    +0.000 A 
ATOM      4  N   UNL     1       1.426   5.787  20.680  0.00  0.00    +0.000 NA
ATOM      5  C   UNL     1       1.875   4.609  20.229  0.00  0.00    +0.000 A 
ATOM      6  S   UNL     1       1.334   3.152  20.928  0.00  0.00    +0.000 S 
ATOM      7  C   UNL     1       2.296   2.215  19.872  0.00  0.00    +0.000 A 
ATOM      8  C   UNL     1       3.017   3.004  19.003  0.00  0.00    +0.000 A 
ATOM      9  C   UNL     1       2.777   4.408  19.197  0.00  0.00    +0.000 A 
ENDROOT
BRANCH   3  10
ATOM     10  C   UNL     1       1.450   8.186  20.422  0.00  0.00    +0.000 A 
ATOM     11  C   UNL     1       1.242   9.205  19.486  0.00  0.00    +0.000 A 
ATOM     12  C   UNL     1       0.820  10.463  19.912  0.00  0.00    +0.000 A 
ATOM     13  C   UNL     1       0.607  10.683  21.265  0.00  0.00    +0.000 A 
ATOM     14  C   UNL     1       0.823   9.632  22.138  0.00  0.00    +0.000 A 
ATOM     15  N   UNL     1       1.235   8.405  21.751  0.00  0.00    +0.000 NA
ENDBRANCH   3  10
BRANCH   1  16
ATOM     16  N   UNL     1       4.170   5.494  17.500  0.00  0.00    +0.000 N 
ATOM     17  H   UNL     1       4.604   4.579  17.450  0.00  0.00    +0.000 HD
BRANCH  16  18
ATOM     18  C   UNL     1       5.103   6.618  17.404  0.00  0.00    +0.000 C 
BRANCH  18  25
ATOM     19  O   UNL     1       8.127   4.192  17.659  0.00  0.00    +0.000 OA
ATOM     20  S   UNL     1       7.249   5.168  18.273  0.00  0.00    +0.000 S 
ATOM     21  O   UNL     1       6.267   4.785  19.263  0.00  0.00    +0.000 OA
ATOM     22  C   UNL     1       8.257   6.498  18.920  0.00  0.00    +0.000 C 
ATOM     23  C   UNL     1       7.974   7.725  18.056  0.00  0.00    +0.000 C 
ATOM     24  C   UNL     1       7.497   7.230  16.693  0.00  0.00    +0.000 C 
ATOM     25  C   UNL     1       6.477   6.113  16.962  0.00  0.00    +0.000 C 
ENDBRANCH  18  25
ENDBRANCH  16  18
ENDBRANCH   1  16
TORSDOF 4
ENDMDL
MODEL 5
REMARK VINA RESULT:      -7.6      1.455      1.773
REMARK  Name = 
REMARK  4 active torsions:
REMARK  status: ('A' for Active; 'I' for Inactive)
REMARK    1  A    between atoms: C_7  and  C_8
REMARK    2  A    between atoms: C_8  and  N_9
REMARK    3  A    between atoms: N_9  and  C_10
REMARK    4  A    between atoms: C_12  and  C_13
REMARK                            x       y       z     vdW  Elec       q    Type
REMARK                         _______ _______ _______ _____ _____    ______ ____
ROOT
ATOM      1  C   UNL     1       3.686   5.608  18.881  0.00  0.00    +0.000 A 
ATOM      2  N   UNL     1       3.055   6.783  19.083  0.00  0.00    +0.000 NA
ATOM      3  C   UNL     1       2.114   6.896  20.047  0.00  0.00    +0.000 A 
ATOM      4  N   UNL     1       1.723   5.911  20.871  0.00  0.00    +0.000 NA
ATOM      5  C   UNL     1       2.353   4.751  20.644  0.00  0.00    +0.000 A 
ATOM      6  S   UNL     1       1.980   3.368  21.568  0.00  0.00    +0.000 S 
ATOM      7  C   UNL     1       3.118   2.418  20.719  0.00  0.00    +0.000 A 
ATOM      8  C   UNL     1       3.770   3.146  19.749  0.00  0.00    +0.000 A 
ATOM      9  C   UNL     1       3.329   4.514  19.690  0.00  0.00    +0.000 A 
ENDROOT
BRANCH   3  10
ATOM     10  C   UNL     1       1.432   8.211  20.203  0.00  0.00    +0.000 A 
ATOM     11  C   UNL     1       0.796   8.569  21.397  0.00  0.00    +0.000 A 
ATOM     12  C   UNL     1       0.143   9.795  21.495  0.00  0.00    +0.000 A 
ATOM     13  C   UNL     1       0.140  10.650  20.401  0.00  0.00    +0.000 A 
ATOM     14  C   UNL     1       0.794  10.240  19.254  0.00  0.00    +0.000 A 
ATOM     15  N   UNL     1       1.430   9.055  19.132  0.00  0.00    +0.000 NA
ENDBRANCH   3  10
BRANCH   1  16
ATOM     16  N   UNL     1       4.650   5.490  17.874  0.00  0.00    +0.000 N 
ATOM     17  H   UNL     1       5.500   5.065  18.227  0.00  0.00    +0.000 HD
BRANCH  16  18
ATOM     18  C   UNL     1       4.860   6.698  17.074  0.00  0.00    +0.000 C 
BRANCH  18  25
ATOM     19  O   UNL     1       7.763   5.371  14.858  0.00  0.00    +0.000 OA
ATOM     20  S   UNL     1       6.766   5.142  15.886  0.00  0.00    +0.000 S 
ATOM     21  O   UNL     1       5.591   4.339  15.635  0.00  0.00    +0.000 OA
ATOM     22  C   UNL     1       7.600   4.535  17.349  0.00  0.00    +0.000 C 
ATOM     23  C   UNL     1       7.510   5.641  18.398  0.00  0.00    +0.000 C 
ATOM     24  C   UNL     1       7.349   6.967  17.658  0.00  0.00    +0.000 C 
ATOM     25  C   UNL     1       6.299   6.735  16.561  0.00  0.00    +0.000 C 
ENDBRANCH  18  25
ENDBRANCH  16  18
ENDBRANCH   1  16
TORSDOF 4
ENDMDL
MODEL 6
REMARK VINA RESULT:      -7.4      3.439      7.087
REMARK  Name = 
REMARK  4 active torsions:
REMARK  status: ('A' for Active; 'I' for Inactive)
REMARK    1  A    between atoms: C_7  and  C_8
REMARK    2  A    between atoms: C_8  and  N_9
REMARK    3  A    between atoms: N_9  and  C_10
REMARK    4  A    between atoms: C_12  and  C_13
REMARK                            x       y       z     vdW  Elec       q    Type
REMARK                         _______ _______ _______ _____ _____    ______ ____
ROOT
ATOM      1  C   UNL     1       2.823   5.943  19.352  0.00  0.00    +0.000 A 
ATOM      2  N   UNL     1       3.752   5.920  18.376  0.00  0.00    +0.000 NA
ATOM      3  C   UNL     1       4.121   4.748  17.812  0.00  0.00    +0.000 A 
ATOM      4  N   UNL     1       3.633   3.540  18.138  0.00  0.00    +0.000 NA
ATOM      5  C   UNL     1       2.722   3.586  19.120  0.00  0.00    +0.000 A 
ATOM      6  S   UNL     1       2.000   2.156  19.698  0.00  0.00    +0.000 S 
ATOM      7  C   UNL     1       1.054   3.017  20.831  0.00  0.00    +0.000 A 
ATOM      8  C   UNL     1       1.287   4.372  20.765  0.00  0.00    +0.000 A 
ATOM      9  C   UNL     1       2.266   4.721  19.770  0.00  0.00    +0.000 A 
ENDROOT
BRANCH   3  10
ATOM     10  C   UNL     1       5.172   4.782  16.758  0.00  0.00    +0.000 A 
ATOM     11  C   UNL     1       5.061   4.023  15.587  0.00  0.00    +0.000 A 
ATOM     12  C   UNL     1       6.078   4.060  14.637  0.00  0.00    +0.000 A 
ATOM     13  C   UNL     1       7.190   4.858  14.866  0.00  0.00    +0.000 A 
ATOM     14  C   UNL     1       7.236   5.589  16.039  0.00  0.00    +0.000 A 
ATOM     15  N   UNL     1       6.265   5.569  16.977  0.00  0.00    +0.000 NA
ENDBRANCH   3  10
BRANCH   1  16
ATOM     16  N   UNL     1       2.452   7.156  19.942  0.00  0.00    +0.000 N 
ATOM     17  H   UNL     1       2.084   7.013  20.877  0.00  0.00    +0.000 HD
BRANCH  16  18
ATOM     18  C   UNL     1       1.642   8.034  19.096  0.00  0.00    +0.000 C 
BRANCH  18  25
ATOM     19  O   UNL     1       0.928  10.676  21.854  0.00  0.00    +0.000 OA
ATOM     20  S   UNL     1       0.448   9.658  20.940  0.00  0.00    +0.000 S 
ATOM     21  O   UNL     1       0.001   8.367  21.412  0.00  0.00    +0.000 OA
ATOM     22  C   UNL     1      -0.822  10.386  19.910  0.00  0.00    +0.000 C 
ATOM     23  C   UNL     1      -0.244  10.480  18.499  0.00  0.00    +0.000 C 
ATOM     24  C   UNL     1       1.276  10.536  18.626  0.00  0.00    +0.000 C 
ATOM     25  C   UNL     1       1.674   9.459  19.648  0.00  0.00    +0.000 C 
ENDBRANCH  18  25
ENDBRANCH  16  18
ENDBRANCH   1  16
TORSDOF 4
ENDMDL
MODEL 7
REMARK VINA RESULT:      -7.3      1.264      1.689
REMARK  Name = 
REMARK  4 active torsions:
REMARK  status: ('A' for Active; 'I' for Inactive)
REMARK    1  A    between atoms: C_7  and  C_8
REMARK    2  A    between atoms: C_8  and  N_9
REMARK    3  A    between atoms: N_9  and  C_10
REMARK    4  A    between atoms: C_12  and  C_13
REMARK                            x       y       z     vdW  Elec       q    Type
REMARK                         _______ _______ _______ _____ _____    ______ ____
ROOT
ATOM      1  C   UNL     1       3.024   6.833  18.609  0.00  0.00    +0.000 A 
ATOM      2  N   UNL     1       2.347   7.850  19.179  0.00  0.00    +0.000 NA
ATOM      3  C   UNL     1       1.631   7.646  20.308  0.00  0.00    +0.000 A 
ATOM      4  N   UNL     1       1.519   6.476  20.956  0.00  0.00    +0.000 NA
ATOM      5  C   UNL     1       2.188   5.478  20.364  0.00  0.00    +0.000 A 
ATOM      6  S   UNL     1       2.151   3.904  21.018  0.00  0.00    +0.000 S 
ATOM      7  C   UNL     1       3.161   3.299  19.779  0.00  0.00    +0.000 A 
ATOM      8  C   UNL     1       3.518   4.284  18.885  0.00  0.00    +0.000 A 
ATOM      9  C   UNL     1       2.952   5.564  19.212  0.00  0.00    +0.000 A 
ENDROOT
BRANCH   3  10
ATOM     10  C   UNL     1       0.882   8.801  20.875  0.00  0.00    +0.000 A 
ATOM     11  C   UNL     1       0.604   8.893  22.244  0.00  0.00    +0.000 A 
ATOM     12  C   UNL     1      -0.125   9.974  22.734  0.00  0.00    +0.000 A 
ATOM     13  C   UNL     1      -0.561  10.952  21.850  0.00  0.00    +0.000 A 
ATOM     14  C   UNL     1      -0.247  10.806  20.511  0.00  0.00    +0.000 A 
ATOM     15  N   UNL     1       0.455   9.766  20.011  0.00  0.00    +0.000 NA
ENDBRANCH   3  10
BRANCH   1  16
ATOM     16  N   UNL     1       3.754   7.044  17.434  0.00  0.00    +0.000 N 
ATOM     17  H   UNL     1       3.203   7.542  16.743  0.00  0.00    +0.000 HD
BRANCH  16  18
ATOM     18  C   UNL     1       4.455   5.866  16.921  0.00  0.00    +0.000 C 
BRANCH  18  25
ATOM     19  O   UNL     1       7.756   5.215  14.976  0.00  0.00    +0.000 OA
ATOM     20  S   UNL     1       6.788   4.804  15.974  0.00  0.00    +0.000 S 
ATOM     21  O   UNL     1       5.892   3.692  15.746  0.00  0.00    +0.000 OA
ATOM     22  C   UNL     1       7.651   4.565  17.524  0.00  0.00    +0.000 C 
ATOM     23  C   UNL     1       7.193   5.682  18.459  0.00  0.00    +0.000 C 
ATOM     24  C   UNL     1       6.734   6.851  17.591  0.00  0.00    +0.000 C 
ATOM     25  C   UNL     1       5.864   6.256  16.473  0.00  0.00    +0.000 C 
ENDBRANCH  18  25
ENDBRANCH  16  18
ENDBRANCH   1  16
TORSDOF 4
ENDMDL
MODEL 8
REMARK VINA RESULT:      -7.3      1.655      2.323
REMARK  Name = 
REMARK  4 active torsions:
REMARK  status: ('A' for Active; 'I' for Inactive)
REMARK    1  A    between atoms: C_7  and  C_8
REMARK    2  A    between atoms: C_8  and  N_9
REMARK    3  A    between atoms: N_9  and  C_10
REMARK    4  A    between atoms: C_12  and  C_13
REMARK                            x       y       z     vdW  Elec       q    Type
REMARK                         _______ _______ _______ _____ _____    ______ ____
ROOT
ATOM      1  C   UNL     1       4.401   4.407  19.515  0.00  0.00    +0.000 A 
ATOM      2  N   UNL     1       3.946   5.638  19.203  0.00  0.00    +0.000 NA
ATOM      3  C   UNL     1       2.734   6.049  19.639  0.00  0.00    +0.000 A 
ATOM      4  N   UNL     1       1.891   5.323  20.391  0.00  0.00    +0.000 NA
ATOM      5  C   UNL     1       2.358   4.100  20.676  0.00  0.00    +0.000 A 
ATOM      6  S   UNL     1       1.426   3.012  21.600  0.00  0.00    +0.000 S 
ATOM      7  C   UNL     1       2.632   1.805  21.509  0.00  0.00    +0.000 A 
ATOM      8  C   UNL     1       3.725   2.229  20.787  0.00  0.00    +0.000 A 
ATOM      9  C   UNL     1       3.577   3.570  20.289  0.00  0.00    +0.000 A 
ENDROOT
BRANCH   3  10
ATOM     10  C   UNL     1       2.274   7.407  19.239  0.00  0.00    +0.000 A 
ATOM     11  C   UNL     1       2.565   7.937  17.977  0.00  0.00    +0.000 A 
ATOM     12  C   UNL     1       2.143   9.224  17.650  0.00  0.00    +0.000 A 
ATOM     13  C   UNL     1       1.432   9.961  18.586  0.00  0.00    +0.000 A 
ATOM     14  C   UNL     1       1.171   9.377  19.813  0.00  0.00    +0.000 A 
ATOM     15  N   UNL     1       1.572   8.134  20.155  0.00  0.00    +0.000 NA
ENDBRANCH   3  10
BRANCH   1  16
ATOM     16  N   UNL     1       5.650   3.980  19.053  0.00  0.00    +0.000 N 
ATOM     17  H   UNL     1       6.149   3.462  19.767  0.00  0.00    +0.000 HD
BRANCH  16  18
ATOM     18  C   UNL     1       6.446   5.009  18.379  0.00  0.00    +0.000 C 
BRANCH  18  25
ATOM     19  O   UNL     1       7.841   5.610  14.802  0.00  0.00    +0.000 OA
ATOM     20  S   UNL     1       6.890   5.936  15.848  0.00  0.00    +0.000 S 
ATOM     21  O   UNL     1       6.978   7.174  16.590  0.00  0.00    +0.000 OA
ATOM     22  C   UNL     1       5.240   5.760  15.177  0.00  0.00    +0.000 C 
ATOM     23  C   UNL     1       4.614   4.547  15.863  0.00  0.00    +0.000 C 
ATOM     24  C   UNL     1       5.751   3.636  16.318  0.00  0.00    +0.000 C 
ATOM     25  C   UNL     1       6.808   4.541  16.969  0.00  0.00    +0.000 C 
ENDBRANCH  18  25
ENDBRANCH  16  18
ENDBRANCH   1  16
TORSDOF 4
ENDMDL
MODEL 9
REMARK VINA RESULT:      -7.2      3.419      6.870
REMARK  Name = 
REMARK  4 active torsions:
REMARK  status: ('A' for Active; 'I' for Inactive)
REMARK    1  A    between atoms: C_7  and  C_8
REMARK    2  A    between atoms: C_8  and  N_9
REMARK    3  A    between atoms: N_9  and  C_10
REMARK    4  A    between atoms: C_12  and  C_13
REMARK                            x       y       z     vdW  Elec       q    Type
REMARK                         _______ _______ _______ _____ _____    ______ ____
ROOT
ATOM      1  C   UNL     1       2.173   5.419  20.070  0.00  0.00    +0.000 A 
ATOM      2  N   UNL     1       3.399   5.901  19.784  0.00  0.00    +0.000 NA
ATOM      3  C   UNL     1       4.245   5.195  19.001  0.00  0.00    +0.000 A 
ATOM      4  N   UNL     1       3.979   4.003  18.445  0.00  0.00    +0.000 NA
ATOM      5  C   UNL     1       2.761   3.537  18.753  0.00  0.00    +0.000 A 
ATOM      6  S   UNL     1       2.239   2.024  18.168  0.00  0.00    +0.000 S 
ATOM      7  C   UNL     1       0.727   2.173  18.949  0.00  0.00    +0.000 A 
ATOM      8  C   UNL     1       0.626   3.358  19.643  0.00  0.00    +0.000 A 
ATOM      9  C   UNL     1       1.811   4.165  19.542  0.00  0.00    +0.000 A 
ENDROOT
BRANCH   3  10
ATOM     10  C   UNL     1       5.596   5.767  18.744  0.00  0.00    +0.000 A 
ATOM     11  C   UNL     1       5.833   6.635  17.672  0.00  0.00    +0.000 A 
ATOM     12  C   UNL     1       7.117   7.126  17.447  0.00  0.00    +0.000 A 
ATOM     13  C   UNL     1       8.145   6.748  18.299  0.00  0.00    +0.000 A 
ATOM     14  C   UNL     1       7.844   5.893  19.343  0.00  0.00    +0.000 A 
ATOM     15  N   UNL     1       6.609   5.401  19.581  0.00  0.00    +0.000 NA
ENDBRANCH   3  10
BRANCH   1  16
ATOM     16  N   UNL     1       1.304   6.145  20.891  0.00  0.00    +0.000 N 
ATOM     17  H   UNL     1       0.345   5.836  20.775  0.00  0.00    +0.000 HD
BRANCH  16  18
ATOM     18  C   UNL     1       1.485   7.597  20.852  0.00  0.00    +0.000 C 
BRANCH  18  25
ATOM     19  O   UNL     1      -1.068  10.110  19.345  0.00  0.00    +0.000 OA
ATOM     20  S   UNL     1       0.229   9.844  19.937  0.00  0.00    +0.000 S 
ATOM     21  O   UNL     1       1.443   9.895  19.153  0.00  0.00    +0.000 OA
ATOM     22  C   UNL     1       0.409  10.888  21.380  0.00  0.00    +0.000 C 
ATOM     23  C   UNL     1       0.372   9.967  22.597  0.00  0.00    +0.000 C 
ATOM     24  C   UNL     1      -0.400   8.710  22.201  0.00  0.00    +0.000 C 
ATOM     25  C   UNL     1       0.122   8.289  20.819  0.00  0.00    +0.000 C 
ENDBRANCH  18  25
ENDBRANCH  16  18
ENDBRANCH   1  16
TORSDOF 4
ENDMDL
