MODEL 1
REMARK VINA RESULT:      -8.3      0.000      0.000
REMARK  Name = 
REMARK  4 active torsions:
REMARK  status: ('A' for Active; 'I' for Inactive)
REMARK    1  A    between atoms: C_2  and  C_19
REMARK    2  A    between atoms: N_3  and  C_4
REMARK    3  A    between atoms: N_7  and  C_8
REMARK    4  A    between atoms: C_12  and  C_13
REMARK                            x       y       z     vdW  Elec       q    Type
REMARK                         _______ _______ _______ _____ _____    ______ ____
ROOT
ATOM      1  C   UNL     1       2.343   6.167  19.795  0.00  0.00    +0.000 A 
ATOM      2  C   UNL     1       1.943   4.889  19.357  0.00  0.00    +0.000 A 
ATOM      3  N   UNL     1       2.832   4.331  18.533  0.00  0.00    +0.000 NA
ATOM      4  N   UNL     1       3.840   5.235  18.460  0.00  0.00    +0.000 N 
ATOM      5  C   UNL     1       3.544   6.378  19.170  0.00  0.00    +0.000 A 
ENDROOT
BRANCH   4   6
ATOM      6  C   UNL     1       5.040   4.940  17.759  0.00  0.00    +0.000 A 
ATOM      7  C   UNL     1       6.261   4.914  18.447  0.00  0.00    +0.000 A 
ATOM      8  C   UNL     1       7.449   4.673  17.757  0.00  0.00    +0.000 A 
ATOM      9  C   UNL     1       7.428   4.460  16.377  0.00  0.00    +0.000 A 
ATOM     10  C   UNL     1       6.216   4.477  15.674  0.00  0.00    +0.000 A 
ATOM     11  C   UNL     1       5.023   4.710  16.376  0.00  0.00    +0.000 A 
BRANCH  10  12
ATOM     12  C   UNL     1       6.165   4.266  14.181  0.00  0.00    +0.000 C 
ATOM     13  F   UNL     1       4.952   4.536  13.628  0.00  0.00    +0.000 F 
ATOM     14  F   UNL     1       7.065   5.044  13.519  0.00  0.00    +0.000 F 
ATOM     15  F   UNL     1       6.460   2.982  13.833  0.00  0.00    +0.000 F 
ENDBRANCH  10  12
ENDBRANCH   4   6
BRANCH   1  18
ATOM     16  O   UNL     1       1.531   8.783  19.140  0.00  0.00    +0.000 OA
ATOM     17  C   UNL     1       1.359   8.327  20.269  0.00  0.00    +0.000 C 
ATOM     18  N   UNL     1       1.760   7.070  20.656  0.00  0.00    +0.000 N 
ATOM     19  H   UNL     1       1.575   6.791  21.611  0.00  0.00    +0.000 HD
BRANCH  17  20
ATOM     20  C   UNL     1       0.699   9.084  21.306  0.00  0.00    +0.000 A 
ATOM     21  O   UNL     1       0.785   8.722  22.631  0.00  0.00    +0.000 OA
ATOM     22  C   UNL     1       0.063   9.638  23.345  0.00  0.00    +0.000 A 
ATOM     23  C   UNL     1      -0.489  10.578  22.502  0.00  0.00    +0.000 A 
ATOM     24  C   UNL     1      -0.081  10.213  21.199  0.00  0.00    +0.000 A 
ATOM     25  C   UNL     1      -0.456  11.007  20.005  0.00  0.00    +0.000 C 
ATOM     26  C   UNL     1      -1.654  11.904  20.345  0.00  0.00    +0.000 C 
ATOM     27  O   UNL     1      -1.469  12.614  21.584  0.00  0.00    +0.000 OA
ATOM     28  C   UNL     1      -1.353  11.760  22.747  0.00  0.00    +0.000 C 
ENDBRANCH  17  20
ENDBRANCH   1  18
TORSDOF 4
ENDMDL
MODEL 2
REMARK VINA RESULT:      -8.3      1.768      2.241
REMARK  Name = 
REMARK  4 active torsions:
REMARK  status: ('A' for Active; 'I' for Inactive)
REMARK    1  A    between atoms: C_2  and  C_19
REMARK    2  A    between atoms: N_3  and  C_4
REMARK    3  A    between atoms: N_7  and  C_8
REMARK    4  A    between atoms: C_12  and  C_13
REMARK                            x       y       z     vdW  Elec       q    Type
REMARK                         _______ _______ _______ _____ _____    ______ ____
ROOT
ATOM      1  C   UNL     1       2.460   7.063  19.233  0.00  0.00    +0.000 A 
ATOM      2  C   UNL     1       2.445   5.779  19.811  0.00  0.00    +0.000 A 
ATOM      3  N   UNL     1       3.375   4.976  19.292  0.00  0.00    +0.000 NA
ATOM      4  N   UNL     1       4.029   5.751  18.392  0.00  0.00    +0.000 N 
ATOM      5  C   UNL     1       3.459   7.002  18.297  0.00  0.00    +0.000 A 
ENDROOT
BRANCH   4   6
ATOM      6  C   UNL     1       5.181   5.273  17.711  0.00  0.00    +0.000 A 
ATOM      7  C   UNL     1       6.390   5.126  18.405  0.00  0.00    +0.000 A 
ATOM      8  C   UNL     1       7.536   4.703  17.733  0.00  0.00    +0.000 A 
ATOM      9  C   UNL     1       7.487   4.428  16.366  0.00  0.00    +0.000 A 
ATOM     10  C   UNL     1       6.286   4.564  15.656  0.00  0.00    +0.000 A 
ATOM     11  C   UNL     1       5.133   4.981  16.341  0.00  0.00    +0.000 A 
BRANCH  10  12
ATOM     12  C   UNL     1       6.206   4.290  14.176  0.00  0.00    +0.000 C 
ATOM     13  F   UNL     1       6.437   2.991  13.843  0.00  0.00    +0.000 F 
ATOM     14  F   UNL     1       4.986   4.601  13.657  0.00  0.00    +0.000 F 
ATOM     15  F   UNL     1       7.108   5.026  13.467  0.00  0.00    +0.000 F 
ENDBRANCH  10  12
ENDBRANCH   4   6
BRANCH   1  18
ATOM     16  O   UNL     1       1.907   9.111  17.380  0.00  0.00    +0.000 OA
ATOM     17  C   UNL     1       1.454   9.147  18.523  0.00  0.00    +0.000 C 
ATOM     18  N   UNL     1       1.712   8.193  19.479  0.00  0.00    +0.000 N 
ATOM     19  H   UNL     1       1.292   8.318  20.391  0.00  0.00    +0.000 HD
BRANCH  17  20
ATOM     20  C   UNL     1       0.583  10.210  18.966  0.00  0.00    +0.000 A 
ATOM     21  O   UNL     1       0.976  11.112  19.929  0.00  0.00    +0.000 OA
ATOM     22  C   UNL     1      -0.063  11.982  20.112  0.00  0.00    +0.000 A 
ATOM     23  C   UNL     1      -1.116  11.653  19.287  0.00  0.00    +0.000 A 
ATOM     24  C   UNL     1      -0.697  10.516  18.561  0.00  0.00    +0.000 A 
ATOM     25  C   UNL     1      -1.555   9.872  17.539  0.00  0.00    +0.000 C 
ATOM     26  C   UNL     1      -3.012  10.306  17.750  0.00  0.00    +0.000 C 
ATOM     27  O   UNL     1      -3.137  11.730  17.924  0.00  0.00    +0.000 OA
ATOM     28  C   UNL     1      -2.463  12.248  19.095  0.00  0.00    +0.000 C 
ENDBRANCH  17  20
ENDBRANCH   1  18
TORSDOF 4
ENDMDL
MODEL 3
REMARK VINA RESULT:      -8.3      2.835      3.919
REMARK  Name = 
REMARK  4 active torsions:
REMARK  status: ('A' for Active; 'I' for Inactive)
REMARK    1  A    between atoms: C_2  and  C_19
REMARK    2  A    between atoms: N_3  and  C_4
REMARK    3  A    between atoms: N_7  and  C_8
REMARK    4  A    between atoms: C_12  and  C_13
REMARK                            x       y       z     vdW  Elec       q    Type
REMARK                         _______ _______ _______ _____ _____    ______ ____
ROOT
ATOM      1  C   UNL     1       1.123   9.352  19.338  0.00  0.00    +0.000 A 
ATOM      2  C   UNL     1       1.646   9.777  18.102  0.00  0.00    +0.000 A 
ATOM      3  N   UNL     1       2.429   8.857  17.535  0.00  0.00    +0.000 NA
ATOM      4  N   UNL     1       2.388   7.805  18.389  0.00  0.00    +0.000 N 
ATOM      5  C   UNL     1       1.650   8.099  19.516  0.00  0.00    +0.000 A 
ENDROOT
BRANCH   4   6
ATOM      6  C   UNL     1       3.014   6.572  18.064  0.00  0.00    +0.000 A 
ATOM      7  C   UNL     1       4.269   6.570  17.441  0.00  0.00    +0.000 A 
ATOM      8  C   UNL     1       4.868   5.365  17.075  0.00  0.00    +0.000 A 
ATOM      9  C   UNL     1       4.219   4.154  17.325  0.00  0.00    +0.000 A 
ATOM     10  C   UNL     1       2.966   4.136  17.952  0.00  0.00    +0.000 A 
ATOM     11  C   UNL     1       2.373   5.353  18.327  0.00  0.00    +0.000 A 
BRANCH  10  12
ATOM     12  C   UNL     1       2.235   2.845  18.220  0.00  0.00    +0.000 C 
ATOM     13  F   UNL     1       2.319   1.943  17.205  0.00  0.00    +0.000 F 
ATOM     14  F   UNL     1       2.700   2.208  19.330  0.00  0.00    +0.000 F 
ATOM     15  F   UNL     1       0.904   3.043  18.438  0.00  0.00    +0.000 F 
ENDBRANCH  10  12
ENDBRANCH   4   6
BRANCH   1  18
ATOM     16  O   UNL     1       1.343  11.983  20.319  0.00  0.00    +0.000 OA
ATOM     17  C   UNL     1       0.410  11.254  20.654  0.00  0.00    +0.000 C 
ATOM     18  N   UNL     1       0.266   9.953  20.233  0.00  0.00    +0.000 N 
ATOM     19  H   UNL     1      -0.536   9.437  20.570  0.00  0.00    +0.000 HD
BRANCH  17  20
ATOM     20  C   UNL     1      -0.642  11.713  21.530  0.00  0.00    +0.000 A 
ATOM     21  O   UNL     1      -0.508  11.682  22.899  0.00  0.00    +0.000 OA
ATOM     22  C   UNL     1      -1.664  12.187  23.427  0.00  0.00    +0.000 A 
ATOM     23  C   UNL     1      -2.538  12.538  22.422  0.00  0.00    +0.000 A 
ATOM     24  C   UNL     1      -1.879  12.227  21.212  0.00  0.00    +0.000 A 
ATOM     25  C   UNL     1      -2.494  12.489  19.889  0.00  0.00    +0.000 C 
ATOM     26  C   UNL     1      -4.009  12.665  20.058  0.00  0.00    +0.000 C 
ATOM     27  O   UNL     1      -4.337  13.564  21.134  0.00  0.00    +0.000 OA
ATOM     28  C   UNL     1      -3.908  13.111  22.440  0.00  0.00    +0.000 C 
ENDBRANCH  17  20
ENDBRANCH   1  18
TORSDOF 4
ENDMDL
MODEL 4
REMARK VINA RESULT:      -8.2      5.155      9.676
REMARK  Name = 
REMARK  4 active torsions:
REMARK  status: ('A' for Active; 'I' for Inactive)
REMARK    1  A    between atoms: C_2  and  C_19
REMARK    2  A    between atoms: N_3  and  C_4
REMARK    3  A    between atoms: N_7  and  C_8
REMARK    4  A    between atoms: C_12  and  C_13
REMARK                            x       y       z     vdW  Elec       q    Type
REMARK                         _______ _______ _______ _____ _____    ______ ____
ROOT
ATOM      1  C   UNL     1       1.419   9.546  18.039  0.00  0.00    +0.000 A 
ATOM      2  C   UNL     1       1.876  10.824  18.414  0.00  0.00    +0.000 A 
ATOM      3  N   UNL     1       0.875  11.672  18.661  0.00  0.00    +0.000 NA
ATOM      4  N   UNL     1      -0.247  10.932  18.483  0.00  0.00    +0.000 N 
ATOM      5  C   UNL     1       0.053   9.658  18.052  0.00  0.00    +0.000 A 
ENDROOT
BRANCH   4   6
ATOM      6  C   UNL     1      -1.531  11.465  18.775  0.00  0.00    +0.000 A 
ATOM      7  C   UNL     1      -1.738  12.171  19.967  0.00  0.00    +0.000 A 
ATOM      8  C   UNL     1      -3.007  12.656  20.283  0.00  0.00    +0.000 A 
ATOM      9  C   UNL     1      -4.078  12.438  19.415  0.00  0.00    +0.000 A 
ATOM     10  C   UNL     1      -3.889  11.739  18.216  0.00  0.00    +0.000 A 
ATOM     11  C   UNL     1      -2.607  11.262  17.899  0.00  0.00    +0.000 A 
BRANCH  10  12
ATOM     12  C   UNL     1      -5.030  11.474  17.266  0.00  0.00    +0.000 C 
ATOM     13  F   UNL     1      -5.587  12.601  16.746  0.00  0.00    +0.000 F 
ATOM     14  F   UNL     1      -4.651  10.714  16.202  0.00  0.00    +0.000 F 
ATOM     15  F   UNL     1      -6.048  10.792  17.863  0.00  0.00    +0.000 F 
ENDBRANCH  10  12
ENDBRANCH   4   6
BRANCH   1  18
ATOM     16  O   UNL     1       2.261   7.588  19.880  0.00  0.00    +0.000 OA
ATOM     17  C   UNL     1       2.448   7.449  18.673  0.00  0.00    +0.000 C 
ATOM     18  N   UNL     1       2.087   8.382  17.730  0.00  0.00    +0.000 N 
ATOM     19  H   UNL     1       2.289   8.173  16.760  0.00  0.00    +0.000 HD
BRANCH  17  20
ATOM     20  C   UNL     1       3.068   6.264  18.127  0.00  0.00    +0.000 A 
ATOM     21  O   UNL     1       4.171   6.337  17.308  0.00  0.00    +0.000 OA
ATOM     22  C   UNL     1       4.509   5.055  16.975  0.00  0.00    +0.000 A 
ATOM     23  C   UNL     1       3.641   4.161  17.562  0.00  0.00    +0.000 A 
ATOM     24  C   UNL     1       2.719   4.943  18.293  0.00  0.00    +0.000 A 
ATOM     25  C   UNL     1       1.631   4.334  19.095  0.00  0.00    +0.000 C 
ATOM     26  C   UNL     1       1.401   2.890  18.629  0.00  0.00    +0.000 C 
ATOM     27  O   UNL     1       2.633   2.153  18.511  0.00  0.00    +0.000 OA
ATOM     28  C   UNL     1       3.549   2.680  17.522  0.00  0.00    +0.000 C 
ENDBRANCH  17  20
ENDBRANCH   1  18
TORSDOF 4
ENDMDL
MODEL 5
REMARK VINA RESULT:      -8.2      2.303      3.161
REMARK  Name = 
REMARK  4 active torsions:
REMARK  status: ('A' for Active; 'I' for Inactive)
REMARK    1  A    between atoms: C_2  and  C_19
REMARK    2  A    between atoms: N_3  and  C_4
REMARK    3  A    between atoms: N_7  and  C_8
REMARK    4  A    between atoms: C_12  and  C_13
REMARK                            x       y       z     vdW  Elec       q    Type
REMARK                         _______ _______ _______ _____ _____    ______ ____
ROOT
ATOM      1  C   UNL     1       1.354   9.044  19.158  0.00  0.00    +0.000 A 
ATOM      2  C   UNL     1       1.695   9.403  17.840  0.00  0.00    +0.000 A 
ATOM      3  N   UNL     1       2.539   8.536  17.277  0.00  0.00    +0.000 NA
ATOM      4  N   UNL     1       2.722   7.580  18.221  0.00  0.00    +0.000 N 
ATOM      5  C   UNL     1       2.060   7.892  19.389  0.00  0.00    +0.000 A 
ENDROOT
BRANCH   4   6
ATOM      6  C   UNL     1       3.476   6.409  17.942  0.00  0.00    +0.000 A 
ATOM      7  C   UNL     1       2.828   5.171  17.835  0.00  0.00    +0.000 A 
ATOM      8  C   UNL     1       3.567   4.010  17.610  0.00  0.00    +0.000 A 
ATOM      9  C   UNL     1       4.957   4.075  17.493  0.00  0.00    +0.000 A 
ATOM     10  C   UNL     1       5.622   5.304  17.593  0.00  0.00    +0.000 A 
ATOM     11  C   UNL     1       4.871   6.471  17.810  0.00  0.00    +0.000 A 
BRANCH  10  12
ATOM     12  C   UNL     1       7.123   5.402  17.487  0.00  0.00    +0.000 C 
ATOM     13  F   UNL     1       7.710   4.303  16.940  0.00  0.00    +0.000 F 
ATOM     14  F   UNL     1       7.520   6.459  16.726  0.00  0.00    +0.000 F 
ATOM     15  F   UNL     1       7.714   5.579  18.702  0.00  0.00    +0.000 F 
ENDBRANCH  10  12
ENDBRANCH   4   6
BRANCH   1  18
ATOM     16  O   UNL     1       1.470  11.709  20.060  0.00  0.00    +0.000 OA
ATOM     17  C   UNL     1       0.600  10.938  20.463  0.00  0.00    +0.000 C 
ATOM     18  N   UNL     1       0.510   9.620  20.082  0.00  0.00    +0.000 N 
ATOM     19  H   UNL     1      -0.242   9.069  20.474  0.00  0.00    +0.000 HD
BRANCH  17  20
ATOM     20  C   UNL     1      -0.430  11.362  21.381  0.00  0.00    +0.000 A 
ATOM     21  O   UNL     1      -0.304  11.184  22.740  0.00  0.00    +0.000 OA
ATOM     22  C   UNL     1      -1.434  11.693  23.317  0.00  0.00    +0.000 A 
ATOM     23  C   UNL     1      -2.284  12.191  22.355  0.00  0.00    +0.000 A 
ATOM     24  C   UNL     1      -1.637  11.969  21.118  0.00  0.00    +0.000 A 
ATOM     25  C   UNL     1      -2.231  12.397  19.829  0.00  0.00    +0.000 C 
ATOM     26  C   UNL     1      -3.736  12.635  20.016  0.00  0.00    +0.000 C 
ATOM     27  O   UNL     1      -4.021  13.436  21.179  0.00  0.00    +0.000 OA
ATOM     28  C   UNL     1      -3.622  12.831  22.431  0.00  0.00    +0.000 C 
ENDBRANCH  17  20
ENDBRANCH   1  18
TORSDOF 4
ENDMDL
MODEL 6
REMARK VINA RESULT:      -8.2      4.663      9.287
REMARK  Name = 
REMARK  4 active torsions:
REMARK  status: ('A' for Active; 'I' for Inactive)
REMARK    1  A    between atoms: C_2  and  C_19
REMARK    2  A    between atoms: N_3  and  C_4
REMARK    3  A    between atoms: N_7  and  C_8
REMARK    4  A    between atoms: C_12  and  C_13
REMARK                            x       y       z     vdW  Elec       q    Type
REMARK                         _______ _______ _______ _____ _____    ______ ____
ROOT
ATOM      1  C   UNL     1       1.960   8.251  18.716  0.00  0.00    +0.000 A 
ATOM      2  C   UNL     1       1.721   8.531  20.075  0.00  0.00    +0.000 A 
ATOM      3  N   UNL     1       0.720   9.395  20.249  0.00  0.00    +0.000 NA
ATOM      4  N   UNL     1       0.274   9.655  18.995  0.00  0.00    +0.000 N 
ATOM      5  C   UNL     1       1.044   9.018  18.046  0.00  0.00    +0.000 A 
ENDROOT
BRANCH   4   6
ATOM      6  C   UNL     1      -0.880  10.454  18.778  0.00  0.00    +0.000 A 
ATOM      7  C   UNL     1      -1.268  11.394  19.742  0.00  0.00    +0.000 A 
ATOM      8  C   UNL     1      -2.427  12.148  19.558  0.00  0.00    +0.000 A 
ATOM      9  C   UNL     1      -3.207  11.969  18.414  0.00  0.00    +0.000 A 
ATOM     10  C   UNL     1      -2.831  11.037  17.437  0.00  0.00    +0.000 A 
ATOM     11  C   UNL     1      -1.658  10.288  17.624  0.00  0.00    +0.000 A 
BRANCH  10  12
ATOM     12  C   UNL     1      -3.663  10.811  16.199  0.00  0.00    +0.000 C 
ATOM     13  F   UNL     1      -3.207  11.471  15.100  0.00  0.00    +0.000 F 
ATOM     14  F   UNL     1      -3.723   9.495  15.852  0.00  0.00    +0.000 F 
ATOM     15  F   UNL     1      -4.955  11.208  16.368  0.00  0.00    +0.000 F 
ENDBRANCH  10  12
ENDBRANCH   4   6
BRANCH   1  18
ATOM     16  O   UNL     1       2.341   5.520  19.290  0.00  0.00    +0.000 OA
ATOM     17  C   UNL     1       2.978   6.078  18.398  0.00  0.00    +0.000 C 
ATOM     18  N   UNL     1       2.857   7.412  18.091  0.00  0.00    +0.000 N 
ATOM     19  H   UNL     1       3.430   7.775  17.339  0.00  0.00    +0.000 HD
BRANCH  17  20
ATOM     20  C   UNL     1       3.919   5.362  17.569  0.00  0.00    +0.000 A 
ATOM     21  O   UNL     1       3.620   4.130  17.033  0.00  0.00    +0.000 OA
ATOM     22  C   UNL     1       4.707   3.735  16.304  0.00  0.00    +0.000 A 
ATOM     23  C   UNL     1       5.700   4.688  16.365  0.00  0.00    +0.000 A 
ATOM     24  C   UNL     1       5.190   5.723  17.181  0.00  0.00    +0.000 A 
ATOM     25  C   UNL     1       5.963   6.955  17.467  0.00  0.00    +0.000 C 
ATOM     26  C   UNL     1       7.448   6.705  17.170  0.00  0.00    +0.000 C 
ATOM     27  O   UNL     1       7.649   6.075  15.891  0.00  0.00    +0.000 OA
ATOM     28  C   UNL     1       7.061   4.757  15.778  0.00  0.00    +0.000 C 
ENDBRANCH  17  20
ENDBRANCH   1  18
TORSDOF 4
ENDMDL
MODEL 7
REMARK VINA RESULT:      -8.2      5.092      9.708
REMARK  Name = 
REMARK  4 active torsions:
REMARK  status: ('A' for Active; 'I' for Inactive)
REMARK    1  A    between atoms: C_2  and  C_19
REMARK    2  A    between atoms: N_3  and  C_4
REMARK    3  A    between atoms: N_7  and  C_8
REMARK    4  A    between atoms: C_12  and  C_13
REMARK                            x       y       z     vdW  Elec       q    Type
REMARK                         _______ _______ _______ _____ _____    ______ ____
ROOT
ATOM      1  C   UNL     1       1.654   9.425  17.938  0.00  0.00    +0.000 A 
ATOM      2  C   UNL     1       2.123  10.696  18.324  0.00  0.00    +0.000 A 
ATOM      3  N   UNL     1       1.129  11.543  18.601  0.00  0.00    +0.000 NA
ATOM      4  N   UNL     1       0.002  10.809  18.432  0.00  0.00    +0.000 N 
ATOM      5  C   UNL     1       0.289   9.541  17.977  0.00  0.00    +0.000 A 
ENDROOT
BRANCH   4   6
ATOM      6  C   UNL     1      -1.275  11.343  18.755  0.00  0.00    +0.000 A 
ATOM      7  C   UNL     1      -1.463  12.014  19.971  0.00  0.00    +0.000 A 
ATOM      8  C   UNL     1      -2.725  12.498  20.316  0.00  0.00    +0.000 A 
ATOM      9  C   UNL     1      -3.808  12.312  19.455  0.00  0.00    +0.000 A 
ATOM     10  C   UNL     1      -3.637  11.648  18.233  0.00  0.00    +0.000 A 
ATOM     11  C   UNL     1      -2.362  11.172  17.886  0.00  0.00    +0.000 A 
BRANCH  10  12
ATOM     12  C   UNL     1      -4.792  11.420  17.290  0.00  0.00    +0.000 C 
ATOM     13  F   UNL     1      -5.346  12.566  16.809  0.00  0.00    +0.000 F 
ATOM     14  F   UNL     1      -4.431  10.688  16.199  0.00  0.00    +0.000 F 
ATOM     15  F   UNL     1      -5.808  10.729  17.879  0.00  0.00    +0.000 F 
ENDBRANCH  10  12
ENDBRANCH   4   6
BRANCH   1  18
ATOM     16  O   UNL     1       2.355   7.349  19.708  0.00  0.00    +0.000 OA
ATOM     17  C   UNL     1       2.603   7.272  18.506  0.00  0.00    +0.000 C 
ATOM     18  N   UNL     1       2.312   8.264  17.599  0.00  0.00    +0.000 N 
ATOM     19  H   UNL     1       2.561   8.103  16.631  0.00  0.00    +0.000 HD
BRANCH  17  20
ATOM     20  C   UNL     1       3.225   6.104  17.928  0.00  0.00    +0.000 A 
ATOM     21  O   UNL     1       2.564   4.900  17.845  0.00  0.00    +0.000 OA
ATOM     22  C   UNL     1       3.417   4.014  17.248  0.00  0.00    +0.000 A 
ATOM     23  C   UNL     1       4.615   4.626  16.950  0.00  0.00    +0.000 A 
ATOM     24  C   UNL     1       4.485   5.962  17.393  0.00  0.00    +0.000 A 
ATOM     25  C   UNL     1       5.569   6.958  17.222  0.00  0.00    +0.000 C 
ATOM     26  C   UNL     1       6.896   6.229  16.968  0.00  0.00    +0.000 C 
ATOM     27  O   UNL     1       6.771   5.202  15.965  0.00  0.00    +0.000 OA
ATOM     28  C   UNL     1       5.865   4.131  16.320  0.00  0.00    +0.000 C 
ENDBRANCH  17  20
ENDBRANCH   1  18
TORSDOF 4
ENDMDL
MODEL 8
REMARK VINA RESULT:      -8.1      4.637      9.107
REMARK  Name = 
REMARK  4 active torsions:
REMARK  status: ('A' for Active; 'I' for Inactive)
REMARK    1  A    between atoms: C_2  and  C_19
REMARK    2  A    between atoms: N_3  and  C_4
REMARK    3  A    between atoms: N_7  and  C_8
REMARK    4  A    between atoms: C_12  and  C_13
REMARK                            x       y       z     vdW  Elec       q    Type
REMARK                         _______ _______ _______ _____ _____    ______ ____
ROOT
ATOM      1  C   UNL     1       2.197   7.751  19.308  0.00  0.00    +0.000 A 
ATOM      2  C   UNL     1       1.703   7.798  20.626  0.00  0.00    +0.000 A 
ATOM      3  N   UNL     1       0.786   8.752  20.794  0.00  0.00    +0.000 NA
ATOM      4  N   UNL     1       0.650   9.311  19.566  0.00  0.00    +0.000 N 
ATOM      5  C   UNL     1       1.533   8.761  18.662  0.00  0.00    +0.000 A 
ENDROOT
BRANCH   4   6
ATOM      6  C   UNL     1      -0.338  10.301  19.316  0.00  0.00    +0.000 A 
ATOM      7  C   UNL     1      -0.520  11.350  20.226  0.00  0.00    +0.000 A 
ATOM      8  C   UNL     1      -1.520  12.298  20.012  0.00  0.00    +0.000 A 
ATOM      9  C   UNL     1      -2.348  12.204  18.892  0.00  0.00    +0.000 A 
ATOM     10  C   UNL     1      -2.178  11.165  17.968  0.00  0.00    +0.000 A 
ATOM     11  C   UNL     1      -1.162  10.219  18.184  0.00  0.00    +0.000 A 
BRANCH  10  12
ATOM     12  C   UNL     1      -3.067  11.029  16.758  0.00  0.00    +0.000 C 
ATOM     13  F   UNL     1      -3.578   9.779  16.587  0.00  0.00    +0.000 F 
ATOM     14  F   UNL     1      -4.137  11.870  16.806  0.00  0.00    +0.000 F 
ATOM     15  F   UNL     1      -2.412  11.329  15.602  0.00  0.00    +0.000 F 
ENDBRANCH  10  12
ENDBRANCH   4   6
BRANCH   1  18
ATOM     16  O   UNL     1       1.611   5.327  18.000  0.00  0.00    +0.000 OA
ATOM     17  C   UNL     1       2.760   5.764  18.046  0.00  0.00    +0.000 C 
ATOM     18  N   UNL     1       3.111   6.924  18.695  0.00  0.00    +0.000 N 
ATOM     19  H   UNL     1       4.087   7.195  18.677  0.00  0.00    +0.000 HD
BRANCH  17  20
ATOM     20  C   UNL     1       3.861   5.088  17.402  0.00  0.00    +0.000 A 
ATOM     21  O   UNL     1       3.776   3.768  17.022  0.00  0.00    +0.000 OA
ATOM     22  C   UNL     1       4.970   3.439  16.443  0.00  0.00    +0.000 A 
ATOM     23  C   UNL     1       5.821   4.522  16.447  0.00  0.00    +0.000 A 
ATOM     24  C   UNL     1       5.106   5.571  17.068  0.00  0.00    +0.000 A 
ATOM     25  C   UNL     1       5.683   6.926  17.238  0.00  0.00    +0.000 C 
ATOM     26  C   UNL     1       7.209   6.851  17.095  0.00  0.00    +0.000 C 
ATOM     27  O   UNL     1       7.612   6.097  15.936  0.00  0.00    +0.000 OA
ATOM     28  C   UNL     1       7.212   4.706  15.963  0.00  0.00    +0.000 C 
ENDBRANCH  17  20
ENDBRANCH   1  18
TORSDOF 4
ENDMDL
MODEL 9
REMARK VINA RESULT:      -8.1      1.093      1.905
REMARK  Name = 
REMARK  4 active torsions:
REMARK  status: ('A' for Active; 'I' for Inactive)
REMARK    1  A    between atoms: C_2  and  C_19
REMARK    2  A    between atoms: N_3  and  C_4
REMARK    3  A    between atoms: N_7  and  C_8
REMARK    4  A    between atoms: C_12  and  C_13
REMARK                            x       y       z     vdW  Elec       q    Type
REMARK                         _______ _______ _______ _____ _____    ______ ____
ROOT
ATOM      1  C   UNL     1       2.481   6.976  19.213  0.00  0.00    +0.000 A 
ATOM      2  C   UNL     1       2.166   5.611  19.354  0.00  0.00    +0.000 A 
ATOM      3  N   UNL     1       3.026   4.820  18.708  0.00  0.00    +0.000 NA
ATOM      4  N   UNL     1       3.933   5.673  18.172  0.00  0.00    +0.000 N 
ATOM      5  C   UNL     1       3.594   6.987  18.415  0.00  0.00    +0.000 A 
ENDROOT
BRANCH   4   6
ATOM      6  C   UNL     1       5.087   5.189  17.499  0.00  0.00    +0.000 A 
ATOM      7  C   UNL     1       6.293   5.048  18.199  0.00  0.00    +0.000 A 
ATOM      8  C   UNL     1       7.442   4.619  17.534  0.00  0.00    +0.000 A 
ATOM      9  C   UNL     1       7.397   4.332  16.169  0.00  0.00    +0.000 A 
ATOM     10  C   UNL     1       6.199   4.462  15.455  0.00  0.00    +0.000 A 
ATOM     11  C   UNL     1       5.043   4.885  16.132  0.00  0.00    +0.000 A 
BRANCH  10  12
ATOM     12  C   UNL     1       6.124   4.174  13.976  0.00  0.00    +0.000 C 
ATOM     13  F   UNL     1       6.948   4.950  13.221  0.00  0.00    +0.000 F 
ATOM     14  F   UNL     1       6.448   2.884  13.684  0.00  0.00    +0.000 F 
ATOM     15  F   UNL     1       4.870   4.362  13.478  0.00  0.00    +0.000 F 
ENDBRANCH  10  12
ENDBRANCH   4   6
BRANCH   1  18
ATOM     16  O   UNL     1       1.298   9.040  17.705  0.00  0.00    +0.000 OA
ATOM     17  C   UNL     1       1.309   9.076  18.934  0.00  0.00    +0.000 C 
ATOM     18  N   UNL     1       1.896   8.114  19.723  0.00  0.00    +0.000 N 
ATOM     19  H   UNL     1       1.852   8.239  20.726  0.00  0.00    +0.000 HD
BRANCH  17  20
ATOM     20  C   UNL     1       0.683  10.147  19.673  0.00  0.00    +0.000 A 
ATOM     21  O   UNL     1       0.552  11.410  19.143  0.00  0.00    +0.000 OA
ATOM     22  C   UNL     1      -0.081  12.176  20.081  0.00  0.00    +0.000 A 
ATOM     23  C   UNL     1      -0.356  11.429  21.206  0.00  0.00    +0.000 A 
ATOM     24  C   UNL     1       0.141  10.134  20.938  0.00  0.00    +0.000 A 
ATOM     25  C   UNL     1       0.009   9.023  21.910  0.00  0.00    +0.000 C 
ATOM     26  C   UNL     1      -0.276   9.597  23.305  0.00  0.00    +0.000 C 
ATOM     27  O   UNL     1      -1.319  10.589  23.283  0.00  0.00    +0.000 OA
ATOM     28  C   UNL     1      -1.006  11.764  22.498  0.00  0.00    +0.000 C 
ENDBRANCH  17  20
ENDBRANCH   1  18
TORSDOF 4
ENDMDL
