MODEL 1
REMARK VINA RESULT:      -8.2      0.000      0.000
REMARK  Name = 
REMARK  2 active torsions:
REMARK  status: ('A' for Active; 'I' for Inactive)
REMARK    1  A    between atoms: C_2  and  C_3
REMARK    2  A    between atoms: N_7  and  C_8
REMARK                            x       y       z     vdW  Elec       q    Type
REMARK                         _______ _______ _______ _____ _____    ______ ____
ROOT
ATOM      1  C   UNL     1      -0.240  11.405  19.769  0.00  0.00    +0.000 C 
ATOM      2  C   UNL     1       0.891  11.776  18.821  0.00  0.00    +0.000 C 
ATOM      3  C   UNL     1       1.624  10.506  18.524  0.00  0.00    +0.000 C 
ATOM      4  O   UNL     1       2.531  10.462  17.702  0.00  0.00    +0.000 OA
ATOM      5  N   UNL     1       1.108   9.493  19.320  0.00  0.00    +0.000 N 
ATOM      6  C   UNL     1       0.045   9.966  20.181  0.00  0.00    +0.000 C 
ENDROOT
BRANCH   1   8
ATOM      7  O   UNL     1      -1.921  11.203  18.054  0.00  0.00    +0.000 OA
ATOM      8  C   UNL     1      -1.637  11.616  19.179  0.00  0.00    +0.000 C 
ATOM      9  N   UNL     1      -2.601  12.205  19.998  0.00  0.00    +0.000 N 
ATOM     10  C   UNL     1      -3.996  12.203  19.526  0.00  0.00    +0.000 C 
ATOM     11  C   UNL     1      -4.970  13.063  20.345  0.00  0.00    +0.000 C 
ATOM     12  C   UNL     1      -4.766  12.847  21.820  0.00  0.00    +0.000 A 
ATOM     13  C   UNL     1      -5.819  12.840  22.738  0.00  0.00    +0.000 A 
ATOM     14  C   UNL     1      -5.556  12.679  24.100  0.00  0.00    +0.000 A 
ATOM     15  C   UNL     1      -4.244  12.541  24.555  0.00  0.00    +0.000 A 
ATOM     16  C   UNL     1      -3.190  12.564  23.648  0.00  0.00    +0.000 A 
ATOM     17  C   UNL     1      -3.449  12.708  22.280  0.00  0.00    +0.000 A 
ATOM     18  C   UNL     1      -2.320  12.809  21.299  0.00  0.00    +0.000 C 
ENDBRANCH   1   8
BRANCH   5  19
ATOM     19  C   UNL     1       1.641   8.180  19.432  0.00  0.00    +0.000 A 
ATOM     20  C   UNL     1       1.436   7.408  20.586  0.00  0.00    +0.000 A 
ATOM     21  C   UNL     1       1.928   6.105  20.687  0.00  0.00    +0.000 A 
ATOM     22  C   UNL     1       2.660   5.561  19.641  0.00  0.00    +0.000 A 
ATOM     23  C   UNL     1       2.872   6.308  18.482  0.00  0.00    +0.000 A 
ATOM     24  C   UNL     1       2.365   7.606  18.377  0.00  0.00    +0.000 A 
ATOM     25  O   UNL     1       3.583   5.839  17.406  0.00  0.00    +0.000 OA
ATOM     26  C   UNL     1       3.768   4.421  17.478  0.00  0.00    +0.000 C 
ATOM     27  C   UNL     1       4.173   3.993  18.878  0.00  0.00    +0.000 C 
ATOM     28  O   UNL     1       3.134   4.287  19.817  0.00  0.00    +0.000 OA
ENDBRANCH   5  19
TORSDOF 2
ENDMDL
MODEL 2
REMARK VINA RESULT:      -8.2      1.426      1.937
REMARK  Name = 
REMARK  2 active torsions:
REMARK  status: ('A' for Active; 'I' for Inactive)
REMARK    1  A    between atoms: C_2  and  C_3
REMARK    2  A    between atoms: N_7  and  C_8
REMARK                            x       y       z     vdW  Elec       q    Type
REMARK                         _______ _______ _______ _____ _____    ______ ____
ROOT
ATOM      1  C   UNL     1       0.961  10.069  18.997  0.00  0.00    +0.000 C 
ATOM      2  C   UNL     1       2.036  10.012  17.923  0.00  0.00    +0.000 C 
ATOM      3  C   UNL     1       2.512   8.594  17.878  0.00  0.00    +0.000 C 
ATOM      4  O   UNL     1       3.310   8.208  17.033  0.00  0.00    +0.000 OA
ATOM      5  N   UNL     1       1.917   7.888  18.915  0.00  0.00    +0.000 N 
ATOM      6  C   UNL     1       1.041   8.723  19.708  0.00  0.00    +0.000 C 
ENDROOT
BRANCH   1   8
ATOM      7  O   UNL     1      -0.865   9.876  17.436  0.00  0.00    +0.000 OA
ATOM      8  C   UNL     1      -0.434  10.405  18.462  0.00  0.00    +0.000 C 
ATOM      9  N   UNL     1      -1.232  11.255  19.228  0.00  0.00    +0.000 N 
ATOM     10  C   UNL     1      -2.646  11.400  18.843  0.00  0.00    +0.000 C 
ATOM     11  C   UNL     1      -3.414  12.516  19.567  0.00  0.00    +0.000 C 
ATOM     12  C   UNL     1      -3.125  12.497  21.044  0.00  0.00    +0.000 A 
ATOM     13  C   UNL     1      -4.090  12.793  22.009  0.00  0.00    +0.000 A 
ATOM     14  C   UNL     1      -3.743  12.800  23.362  0.00  0.00    +0.000 A 
ATOM     15  C   UNL     1      -2.433  12.528  23.757  0.00  0.00    +0.000 A 
ATOM     16  C   UNL     1      -1.464  12.248  22.801  0.00  0.00    +0.000 A 
ATOM     17  C   UNL     1      -1.809  12.223  21.444  0.00  0.00    +0.000 A 
ATOM     18  C   UNL     1      -0.761  11.997  20.397  0.00  0.00    +0.000 C 
ENDBRANCH   1   8
BRANCH   5  19
ATOM     19  C   UNL     1       2.231   6.554  19.290  0.00  0.00    +0.000 A 
ATOM     20  C   UNL     1       1.952   6.077  20.580  0.00  0.00    +0.000 A 
ATOM     21  C   UNL     1       2.227   4.756  20.943  0.00  0.00    +0.000 A 
ATOM     22  C   UNL     1       2.813   3.896  20.025  0.00  0.00    +0.000 A 
ATOM     23  C   UNL     1       3.094   4.347  18.735  0.00  0.00    +0.000 A 
ATOM     24  C   UNL     1       2.804   5.664  18.369  0.00  0.00    +0.000 A 
ATOM     25  O   UNL     1       3.670   3.556  17.773  0.00  0.00    +0.000 OA
ATOM     26  C   UNL     1       3.622   2.172  18.133  0.00  0.00    +0.000 C 
ATOM     27  C   UNL     1       4.013   1.973  19.588  0.00  0.00    +0.000 C 
ATOM     28  O   UNL     1       3.079   2.623  20.456  0.00  0.00    +0.000 OA
ENDBRANCH   5  19
TORSDOF 2
ENDMDL
MODEL 3
REMARK VINA RESULT:      -8.2      2.629      9.786
REMARK  Name = 
REMARK  2 active torsions:
REMARK  status: ('A' for Active; 'I' for Inactive)
REMARK    1  A    between atoms: C_2  and  C_3
REMARK    2  A    between atoms: N_7  and  C_8
REMARK                            x       y       z     vdW  Elec       q    Type
REMARK                         _______ _______ _______ _____ _____    ______ ____
ROOT
ATOM      1  C   UNL     1       1.936   8.978  17.884  0.00  0.00    +0.000 C 
ATOM      2  C   UNL     1       2.220  10.370  18.425  0.00  0.00    +0.000 C 
ATOM      3  C   UNL     1       0.891  11.041  18.578  0.00  0.00    +0.000 C 
ATOM      4  O   UNL     1       0.781  12.145  19.095  0.00  0.00    +0.000 OA
ATOM      5  N   UNL     1      -0.091  10.218  18.042  0.00  0.00    +0.000 N 
ATOM      6  C   UNL     1       0.460   8.992  17.506  0.00  0.00    +0.000 C 
ENDROOT
BRANCH   1   8
ATOM      7  O   UNL     1       1.648   7.619  19.853  0.00  0.00    +0.000 OA
ATOM      8  C   UNL     1       2.318   7.849  18.846  0.00  0.00    +0.000 C 
ATOM      9  N   UNL     1       3.392   7.032  18.489  0.00  0.00    +0.000 N 
ATOM     10  C   UNL     1       3.620   5.814  19.285  0.00  0.00    +0.000 C 
ATOM     11  C   UNL     1       4.941   5.082  19.003  0.00  0.00    +0.000 C 
ATOM     12  C   UNL     1       5.185   4.966  17.522  0.00  0.00    +0.000 A 
ATOM     13  C   UNL     1       5.780   3.846  16.937  0.00  0.00    +0.000 A 
ATOM     14  C   UNL     1       6.019   3.821  15.561  0.00  0.00    +0.000 A 
ATOM     15  C   UNL     1       5.681   4.916  14.766  0.00  0.00    +0.000 A 
ATOM     16  C   UNL     1       5.104   6.041  15.344  0.00  0.00    +0.000 A 
ATOM     17  C   UNL     1       4.847   6.065  16.720  0.00  0.00    +0.000 A 
ATOM     18  C   UNL     1       4.294   7.298  17.369  0.00  0.00    +0.000 C 
ENDBRANCH   1   8
BRANCH   5  19
ATOM     19  C   UNL     1      -1.457  10.571  17.868  0.00  0.00    +0.000 A 
ATOM     20  C   UNL     1      -2.179  10.147  16.742  0.00  0.00    +0.000 A 
ATOM     21  C   UNL     1      -3.531  10.462  16.583  0.00  0.00    +0.000 A 
ATOM     22  C   UNL     1      -4.176  11.233  17.539  0.00  0.00    +0.000 A 
ATOM     23  C   UNL     1      -3.480  11.661  18.669  0.00  0.00    +0.000 A 
ATOM     24  C   UNL     1      -2.132  11.332  18.834  0.00  0.00    +0.000 A 
ATOM     25  O   UNL     1      -4.050  12.424  19.657  0.00  0.00    +0.000 OA
ATOM     26  C   UNL     1      -5.478  12.425  19.561  0.00  0.00    +0.000 C 
ATOM     27  C   UNL     1      -5.928  12.618  18.123  0.00  0.00    +0.000 C 
ATOM     28  O   UNL     1      -5.495  11.526  17.307  0.00  0.00    +0.000 OA
ENDBRANCH   5  19
TORSDOF 2
ENDMDL
MODEL 4
REMARK VINA RESULT:      -8.2      0.805      1.500
REMARK  Name = 
REMARK  2 active torsions:
REMARK  status: ('A' for Active; 'I' for Inactive)
REMARK    1  A    between atoms: C_2  and  C_3
REMARK    2  A    between atoms: N_7  and  C_8
REMARK                            x       y       z     vdW  Elec       q    Type
REMARK                         _______ _______ _______ _____ _____    ______ ____
ROOT
ATOM      1  C   UNL     1      -0.501  11.619  20.039  0.00  0.00    +0.000 C 
ATOM      2  C   UNL     1       0.645  12.365  19.374  0.00  0.00    +0.000 C 
ATOM      3  C   UNL     1       1.528  11.323  18.765  0.00  0.00    +0.000 C 
ATOM      4  O   UNL     1       2.488  11.620  18.065  0.00  0.00    +0.000 OA
ATOM      5  N   UNL     1       1.071  10.068  19.146  0.00  0.00    +0.000 N 
ATOM      6  C   UNL     1      -0.093  10.151  20.002  0.00  0.00    +0.000 C 
ENDROOT
BRANCH   1   8
ATOM      7  O   UNL     1      -2.109  11.581  18.245  0.00  0.00    +0.000 OA
ATOM      8  C   UNL     1      -1.870  11.897  19.411  0.00  0.00    +0.000 C 
ATOM      9  N   UNL     1      -2.862  12.430  20.234  0.00  0.00    +0.000 N 
ATOM     10  C   UNL     1      -4.236  12.486  19.706  0.00  0.00    +0.000 C 
ATOM     11  C   UNL     1      -5.234  13.289  20.551  0.00  0.00    +0.000 C 
ATOM     12  C   UNL     1      -5.097  12.951  22.012  0.00  0.00    +0.000 A 
ATOM     13  C   UNL     1      -6.188  12.883  22.880  0.00  0.00    +0.000 A 
ATOM     14  C   UNL     1      -5.985  12.607  24.235  0.00  0.00    +0.000 A 
ATOM     15  C   UNL     1      -4.696  12.414  24.731  0.00  0.00    +0.000 A 
ATOM     16  C   UNL     1      -3.604  12.496  23.874  0.00  0.00    +0.000 A 
ATOM     17  C   UNL     1      -3.802  12.756  22.513  0.00  0.00    +0.000 A 
ATOM     18  C   UNL     1      -2.631  12.921  21.592  0.00  0.00    +0.000 C 
ENDBRANCH   1   8
BRANCH   5  19
ATOM     19  C   UNL     1       1.733   8.837  18.889  0.00  0.00    +0.000 A 
ATOM     20  C   UNL     1       2.477   8.644  17.715  0.00  0.00    +0.000 A 
ATOM     21  C   UNL     1       3.159   7.448  17.474  0.00  0.00    +0.000 A 
ATOM     22  C   UNL     1       3.084   6.414  18.396  0.00  0.00    +0.000 A 
ATOM     23  C   UNL     1       2.355   6.585  19.572  0.00  0.00    +0.000 A 
ATOM     24  C   UNL     1       1.686   7.788  19.818  0.00  0.00    +0.000 A 
ATOM     25  O   UNL     1       2.235   5.611  20.531  0.00  0.00    +0.000 OA
ATOM     26  C   UNL     1       3.202   4.571  20.345  0.00  0.00    +0.000 C 
ATOM     27  C   UNL     1       3.294   4.167  18.883  0.00  0.00    +0.000 C 
ATOM     28  O   UNL     1       3.756   5.260  18.084  0.00  0.00    +0.000 OA
ENDBRANCH   5  19
TORSDOF 2
ENDMDL
MODEL 5
REMARK VINA RESULT:      -8.0      2.531      9.737
REMARK  Name = 
REMARK  2 active torsions:
REMARK  status: ('A' for Active; 'I' for Inactive)
REMARK    1  A    between atoms: C_2  and  C_3
REMARK    2  A    between atoms: N_7  and  C_8
REMARK                            x       y       z     vdW  Elec       q    Type
REMARK                         _______ _______ _______ _____ _____    ______ ____
ROOT
ATOM      1  C   UNL     1       1.849   8.760  17.897  0.00  0.00    +0.000 C 
ATOM      2  C   UNL     1       2.484  10.128  18.095  0.00  0.00    +0.000 C 
ATOM      3  C   UNL     1       1.386  11.040  18.544  0.00  0.00    +0.000 C 
ATOM      4  O   UNL     1       1.606  12.195  18.887  0.00  0.00    +0.000 OA
ATOM      5  N   UNL     1       0.179  10.356  18.478  0.00  0.00    +0.000 N 
ATOM      6  C   UNL     1       0.348   9.001  17.999  0.00  0.00    +0.000 C 
ENDROOT
BRANCH   1   8
ATOM      7  O   UNL     1       1.777   7.434  19.908  0.00  0.00    +0.000 OA
ATOM      8  C   UNL     1       2.371   7.690  18.860  0.00  0.00    +0.000 C 
ATOM      9  N   UNL     1       3.485   6.950  18.461  0.00  0.00    +0.000 N 
ATOM     10  C   UNL     1       3.853   5.774  19.268  0.00  0.00    +0.000 C 
ATOM     11  C   UNL     1       5.209   5.141  18.927  0.00  0.00    +0.000 C 
ATOM     12  C   UNL     1       5.382   5.006  17.438  0.00  0.00    +0.000 A 
ATOM     13  C   UNL     1       6.031   3.922  16.845  0.00  0.00    +0.000 A 
ATOM     14  C   UNL     1       6.195   3.881  15.458  0.00  0.00    +0.000 A 
ATOM     15  C   UNL     1       5.729   4.926  14.660  0.00  0.00    +0.000 A 
ATOM     16  C   UNL     1       5.097   6.017  15.246  0.00  0.00    +0.000 A 
ATOM     17  C   UNL     1       4.914   6.056  16.634  0.00  0.00    +0.000 A 
ATOM     18  C   UNL     1       4.301   7.257  17.287  0.00  0.00    +0.000 C 
ENDBRANCH   1   8
BRANCH   5  19
ATOM     19  C   UNL     1      -1.105  10.930  18.682  0.00  0.00    +0.000 A 
ATOM     20  C   UNL     1      -1.396  11.665  19.842  0.00  0.00    +0.000 A 
ATOM     21  C   UNL     1      -2.646  12.260  20.033  0.00  0.00    +0.000 A 
ATOM     22  C   UNL     1      -3.636  12.107  19.073  0.00  0.00    +0.000 A 
ATOM     23  C   UNL     1      -3.368  11.385  17.910  0.00  0.00    +0.000 A 
ATOM     24  C   UNL     1      -2.112  10.803  17.715  0.00  0.00    +0.000 A 
ATOM     25  O   UNL     1      -4.294  11.191  16.917  0.00  0.00    +0.000 OA
ATOM     26  C   UNL     1      -5.407  12.081  17.056  0.00  0.00    +0.000 C 
ATOM     27  C   UNL     1      -5.872  12.152  18.500  0.00  0.00    +0.000 C 
ATOM     28  O   UNL     1      -4.845  12.695  19.336  0.00  0.00    +0.000 OA
ENDBRANCH   5  19
TORSDOF 2
ENDMDL
MODEL 6
REMARK VINA RESULT:      -8.0      1.397      1.870
REMARK  Name = 
REMARK  2 active torsions:
REMARK  status: ('A' for Active; 'I' for Inactive)
REMARK    1  A    between atoms: C_2  and  C_3
REMARK    2  A    between atoms: N_7  and  C_8
REMARK                            x       y       z     vdW  Elec       q    Type
REMARK                         _______ _______ _______ _____ _____    ______ ____
ROOT
ATOM      1  C   UNL     1      -1.218  11.271  19.180  0.00  0.00    +0.000 C 
ATOM      2  C   UNL     1       0.009  12.089  18.806  0.00  0.00    +0.000 C 
ATOM      3  C   UNL     1       1.132  11.113  18.645  0.00  0.00    +0.000 C 
ATOM      4  O   UNL     1       2.235  11.459  18.242  0.00  0.00    +0.000 OA
ATOM      5  N   UNL     1       0.691   9.854  19.033  0.00  0.00    +0.000 N 
ATOM      6  C   UNL     1      -0.688   9.872  19.469  0.00  0.00    +0.000 C 
ENDROOT
BRANCH   1   8
ATOM      7  O   UNL     1      -2.188  10.763  17.033  0.00  0.00    +0.000 OA
ATOM      8  C   UNL     1      -2.331  11.307  18.129  0.00  0.00    +0.000 C 
ATOM      9  N   UNL     1      -3.544  11.893  18.493  0.00  0.00    +0.000 N 
ATOM     10  C   UNL     1      -4.687  11.729  17.579  0.00  0.00    +0.000 C 
ATOM     11  C   UNL     1      -5.920  12.582  17.907  0.00  0.00    +0.000 C 
ATOM     12  C   UNL     1      -6.233  12.530  19.379  0.00  0.00    +0.000 A 
ATOM     13  C   UNL     1      -7.538  12.527  19.877  0.00  0.00    +0.000 A 
ATOM     14  C   UNL     1      -7.757  12.522  21.257  0.00  0.00    +0.000 A 
ATOM     15  C   UNL     1      -6.681  12.538  22.143  0.00  0.00    +0.000 A 
ATOM     16  C   UNL     1      -5.380  12.559  21.654  0.00  0.00    +0.000 A 
ATOM     17  C   UNL     1      -5.153  12.546  20.273  0.00  0.00    +0.000 A 
ATOM     18  C   UNL     1      -3.759  12.643  19.730  0.00  0.00    +0.000 C 
ENDBRANCH   1   8
BRANCH   5  19
ATOM     19  C   UNL     1       1.509   8.699  19.162  0.00  0.00    +0.000 A 
ATOM     20  C   UNL     1       1.480   7.915  20.325  0.00  0.00    +0.000 A 
ATOM     21  C   UNL     1       2.256   6.759  20.444  0.00  0.00    +0.000 A 
ATOM     22  C   UNL     1       3.097   6.384  19.406  0.00  0.00    +0.000 A 
ATOM     23  C   UNL     1       3.138   7.144  18.237  0.00  0.00    +0.000 A 
ATOM     24  C   UNL     1       2.349   8.292  18.115  0.00  0.00    +0.000 A 
ATOM     25  O   UNL     1       3.941   6.836  17.169  0.00  0.00    +0.000 OA
ATOM     26  C   UNL     1       4.444   5.499  17.259  0.00  0.00    +0.000 C 
ATOM     27  C   UNL     1       4.930   5.192  18.665  0.00  0.00    +0.000 C 
ATOM     28  O   UNL     1       3.848   5.254  19.599  0.00  0.00    +0.000 OA
ENDBRANCH   5  19
TORSDOF 2
ENDMDL
MODEL 7
REMARK VINA RESULT:      -7.9      1.025      1.167
REMARK  Name = 
REMARK  2 active torsions:
REMARK  status: ('A' for Active; 'I' for Inactive)
REMARK    1  A    between atoms: C_2  and  C_3
REMARK    2  A    between atoms: N_7  and  C_8
REMARK                            x       y       z     vdW  Elec       q    Type
REMARK                         _______ _______ _______ _____ _____    ______ ____
ROOT
ATOM      1  C   UNL     1      -1.151  11.842  19.971  0.00  0.00    +0.000 C 
ATOM      2  C   UNL     1       0.026  12.491  19.259  0.00  0.00    +0.000 C 
ATOM      3  C   UNL     1       0.988  11.388  18.947  0.00  0.00    +0.000 C 
ATOM      4  O   UNL     1       1.995  11.581  18.277  0.00  0.00    +0.000 OA
ATOM      5  N   UNL     1       0.535  10.216  19.539  0.00  0.00    +0.000 N 
ATOM      6  C   UNL     1      -0.699  10.417  20.267  0.00  0.00    +0.000 C 
ENDROOT
BRANCH   1   8
ATOM      7  O   UNL     1      -2.562  11.474  18.053  0.00  0.00    +0.000 OA
ATOM      8  C   UNL     1      -2.468  11.926  19.195  0.00  0.00    +0.000 C 
ATOM      9  N   UNL     1      -3.579  12.443  19.862  0.00  0.00    +0.000 N 
ATOM     10  C   UNL     1      -4.893  12.316  19.208  0.00  0.00    +0.000 C 
ATOM     11  C   UNL     1      -6.035  13.102  19.868  0.00  0.00    +0.000 C 
ATOM     12  C   UNL     1      -6.016  12.926  21.363  0.00  0.00    +0.000 A 
ATOM     13  C   UNL     1      -7.179  12.843  22.131  0.00  0.00    +0.000 A 
ATOM     14  C   UNL     1      -7.090  12.724  23.520  0.00  0.00    +0.000 A 
ATOM     15  C   UNL     1      -5.846  12.703  24.149  0.00  0.00    +0.000 A 
ATOM     16  C   UNL     1      -4.684  12.802  23.391  0.00  0.00    +0.000 A 
ATOM     17  C   UNL     1      -4.766  12.905  21.998  0.00  0.00    +0.000 A 
ATOM     18  C   UNL     1      -3.527  13.087  21.174  0.00  0.00    +0.000 C 
ENDBRANCH   1   8
BRANCH   5  19
ATOM     19  C   UNL     1       1.252   8.990  19.591  0.00  0.00    +0.000 A 
ATOM     20  C   UNL     1       1.180   8.155  20.717  0.00  0.00    +0.000 A 
ATOM     21  C   UNL     1       1.855   6.932  20.760  0.00  0.00    +0.000 A 
ATOM     22  C   UNL     1       2.637   6.538  19.684  0.00  0.00    +0.000 A 
ATOM     23  C   UNL     1       2.719   7.349  18.553  0.00  0.00    +0.000 A 
ATOM     24  C   UNL     1       2.031   8.565  18.506  0.00  0.00    +0.000 A 
ATOM     25  O   UNL     1       3.470   7.027  17.450  0.00  0.00    +0.000 OA
ATOM     26  C   UNL     1       3.856   5.649  17.463  0.00  0.00    +0.000 C 
ATOM     27  C   UNL     1       4.344   5.231  18.841  0.00  0.00    +0.000 C 
ATOM     28  O   UNL     1       3.291   5.339  19.804  0.00  0.00    +0.000 OA
ENDBRANCH   5  19
TORSDOF 2
ENDMDL
MODEL 8
REMARK VINA RESULT:      -7.7      1.478      1.698
REMARK  Name = 
REMARK  2 active torsions:
REMARK  status: ('A' for Active; 'I' for Inactive)
REMARK    1  A    between atoms: C_2  and  C_3
REMARK    2  A    between atoms: N_7  and  C_8
REMARK                            x       y       z     vdW  Elec       q    Type
REMARK                         _______ _______ _______ _____ _____    ______ ____
ROOT
ATOM      1  C   UNL     1       0.569  10.598  19.631  0.00  0.00    +0.000 C 
ATOM      2  C   UNL     1       1.457  10.668  18.399  0.00  0.00    +0.000 C 
ATOM      3  C   UNL     1       1.978   9.283  18.176  0.00  0.00    +0.000 C 
ATOM      4  O   UNL     1       2.644   8.995  17.189  0.00  0.00    +0.000 OA
ATOM      5  N   UNL     1       1.588   8.480  19.240  0.00  0.00    +0.000 N 
ATOM      6  C   UNL     1       0.818   9.215  20.221  0.00  0.00    +0.000 C 
ENDROOT
BRANCH   1   8
ATOM      7  O   UNL     1      -1.578  10.152  18.632  0.00  0.00    +0.000 OA
ATOM      8  C   UNL     1      -0.907  10.894  19.350  0.00  0.00    +0.000 C 
ATOM      9  N   UNL     1      -1.486  11.977  20.013  0.00  0.00    +0.000 N 
ATOM     10  C   UNL     1      -2.948  12.131  19.929  0.00  0.00    +0.000 C 
ATOM     11  C   UNL     1      -3.503  13.455  20.473  0.00  0.00    +0.000 C 
ATOM     12  C   UNL     1      -2.872  13.800  21.796  0.00  0.00    +0.000 A 
ATOM     13  C   UNL     1      -3.576  14.416  22.833  0.00  0.00    +0.000 A 
ATOM     14  C   UNL     1      -2.918  14.748  24.020  0.00  0.00    +0.000 A 
ATOM     15  C   UNL     1      -1.557  14.484  24.172  0.00  0.00    +0.000 A 
ATOM     16  C   UNL     1      -0.847  13.886  23.136  0.00  0.00    +0.000 A 
ATOM     17  C   UNL     1      -1.504  13.535  21.951  0.00  0.00    +0.000 A 
ATOM     18  C   UNL     1      -0.738  12.958  20.799  0.00  0.00    +0.000 C 
ENDBRANCH   1   8
BRANCH   5  19
ATOM     19  C   UNL     1       2.014   7.143  19.462  0.00  0.00    +0.000 A 
ATOM     20  C   UNL     1       1.732   6.482  20.667  0.00  0.00    +0.000 A 
ATOM     21  C   UNL     1       2.118   5.155  20.878  0.00  0.00    +0.000 A 
ATOM     22  C   UNL     1       2.819   4.477  19.891  0.00  0.00    +0.000 A 
ATOM     23  C   UNL     1       3.105   5.112  18.683  0.00  0.00    +0.000 A 
ATOM     24  C   UNL     1       2.705   6.434  18.469  0.00  0.00    +0.000 A 
ATOM     25  O   UNL     1       3.792   4.507  17.661  0.00  0.00    +0.000 OA
ATOM     26  C   UNL     1       3.863   3.089  17.844  0.00  0.00    +0.000 C 
ATOM     27  C   UNL     1       4.213   2.741  19.281  0.00  0.00    +0.000 C 
ATOM     28  O   UNL     1       3.188   3.187  20.174  0.00  0.00    +0.000 OA
ENDBRANCH   5  19
TORSDOF 2
ENDMDL
MODEL 9
REMARK VINA RESULT:      -7.6      2.360      3.651
REMARK  Name = 
REMARK  2 active torsions:
REMARK  status: ('A' for Active; 'I' for Inactive)
REMARK    1  A    between atoms: C_2  and  C_3
REMARK    2  A    between atoms: N_7  and  C_8
REMARK                            x       y       z     vdW  Elec       q    Type
REMARK                         _______ _______ _______ _____ _____    ______ ____
ROOT
ATOM      1  C   UNL     1       0.900  10.032  18.819  0.00  0.00    +0.000 C 
ATOM      2  C   UNL     1       0.797   9.253  20.121  0.00  0.00    +0.000 C 
ATOM      3  C   UNL     1       1.679   8.055  19.965  0.00  0.00    +0.000 C 
ATOM      4  O   UNL     1       1.889   7.283  20.892  0.00  0.00    +0.000 OA
ATOM      5  N   UNL     1       2.149   8.010  18.658  0.00  0.00    +0.000 N 
ATOM      6  C   UNL     1       1.646   9.110  17.863  0.00  0.00    +0.000 C 
ENDROOT
BRANCH   1   8
ATOM      7  O   UNL     1       2.257  11.884  18.087  0.00  0.00    +0.000 OA
ATOM      8  C   UNL     1       1.540  11.415  18.972  0.00  0.00    +0.000 C 
ATOM      9  N   UNL     1       1.205  12.161  20.103  0.00  0.00    +0.000 N 
ATOM     10  C   UNL     1       1.630  13.570  20.146  0.00  0.00    +0.000 C 
ATOM     11  C   UNL     1       1.443  14.272  21.499  0.00  0.00    +0.000 C 
ATOM     12  C   UNL     1       0.089  13.967  22.081  0.00  0.00    +0.000 A 
ATOM     13  C   UNL     1      -0.655  14.905  22.800  0.00  0.00    +0.000 A 
ATOM     14  C   UNL     1      -1.887  14.542  23.352  0.00  0.00    +0.000 A 
ATOM     15  C   UNL     1      -2.372  13.243  23.203  0.00  0.00    +0.000 A 
ATOM     16  C   UNL     1      -1.628  12.300  22.502  0.00  0.00    +0.000 A 
ATOM     17  C   UNL     1      -0.402  12.662  21.933  0.00  0.00    +0.000 A 
ATOM     18  C   UNL     1       0.446  11.639  21.239  0.00  0.00    +0.000 C 
ENDBRANCH   1   8
BRANCH   5  19
ATOM     19  C   UNL     1       2.892   6.943  18.086  0.00  0.00    +0.000 A 
ATOM     20  C   UNL     1       2.467   5.611  18.214  0.00  0.00    +0.000 A 
ATOM     21  C   UNL     1       3.175   4.561  17.624  0.00  0.00    +0.000 A 
ATOM     22  C   UNL     1       4.339   4.826  16.917  0.00  0.00    +0.000 A 
ATOM     23  C   UNL     1       4.778   6.142  16.773  0.00  0.00    +0.000 A 
ATOM     24  C   UNL     1       4.060   7.192  17.351  0.00  0.00    +0.000 A 
ATOM     25  O   UNL     1       5.918   6.482  16.089  0.00  0.00    +0.000 OA
ATOM     26  C   UNL     1       6.385   5.400  15.277  0.00  0.00    +0.000 C 
ATOM     27  C   UNL     1       6.343   4.087  16.040  0.00  0.00    +0.000 C 
ATOM     28  O   UNL     1       4.997   3.747  16.387  0.00  0.00    +0.000 OA
ENDBRANCH   5  19
TORSDOF 2
ENDMDL
