MODEL 1
REMARK VINA RESULT:      -8.0      0.000      0.000
REMARK  Name = 
REMARK  6 active torsions:
REMARK  status: ('A' for Active; 'I' for Inactive)
REMARK    1  A    between atoms: C_1  and  C_2
REMARK    2  A    between atoms: C_6  and  N_7
REMARK    3  A    between atoms: C_8  and  C_10
REMARK    4  A    between atoms: N_13  and  C_14
REMARK    5  A    between atoms: C_21  and  C_22
REMARK    6  A    between atoms: C_26  and  C_27
REMARK                            x       y       z     vdW  Elec       q    Type
REMARK                         _______ _______ _______ _____ _____    ______ ____
ROOT
ATOM      1  C   UNL     1       1.059   9.168  20.941  0.00  0.00    +0.000 A 
ATOM      2  C   UNL     1       1.354   9.088  22.310  0.00  0.00    +0.000 A 
ATOM      3  N   UNL     1       0.711  10.003  23.024  0.00  0.00    +0.000 NA
ATOM      4  N   UNL     1      -0.060  10.684  22.131  0.00  0.00    +0.000 N 
ATOM      5  C   UNL     1       0.112  10.182  20.854  0.00  0.00    +0.000 A 
ENDROOT
BRANCH   4   6
ATOM      6  C   UNL     1      -0.963  11.702  22.582  0.00  0.00    +0.000 A 
ATOM      7  N   UNL     1      -2.135  11.274  23.137  0.00  0.00    +0.000 NA
ATOM      8  C   UNL     1      -2.966  12.200  23.665  0.00  0.00    +0.000 A 
ATOM      9  C   UNL     1      -2.699  13.555  23.660  0.00  0.00    +0.000 A 
ATOM     10  C   UNL     1      -1.525  13.988  23.053  0.00  0.00    +0.000 A 
ATOM     11  C   UNL     1      -0.637  13.061  22.496  0.00  0.00    +0.000 A 
ATOM     12 CL   UNL     1       0.696  13.726  21.619  0.00  0.00    +0.000 Cl
ENDBRANCH   4   6
BRANCH   1  14
ATOM     13  N   UNL     1       1.884   7.060  20.222  0.00  0.00    +0.000 N 
ATOM     14  C   UNL     1       1.589   8.365  19.850  0.00  0.00    +0.000 C 
ATOM     15  O   UNL     1       1.732   8.868  18.746  0.00  0.00    +0.000 OA
ATOM     16  H   UNL     1       1.684   6.816  21.179  0.00  0.00    +0.000 HD
BRANCH  13  22
ATOM     17  C   UNL     1       2.326   2.251  18.778  0.00  0.00    +0.000 C 
ATOM     18  C   UNL     1       2.726   3.705  18.735  0.00  0.00    +0.000 A 
ATOM     19  C   UNL     1       3.764   4.072  17.871  0.00  0.00    +0.000 A 
ATOM     20  C   UNL     1       4.167   5.393  17.778  0.00  0.00    +0.000 A 
ATOM     21  C   UNL     1       3.536   6.367  18.549  0.00  0.00    +0.000 A 
ATOM     22  C   UNL     1       2.494   6.053  19.431  0.00  0.00    +0.000 A 
ATOM     23  C   UNL     1       2.081   4.694  19.537  0.00  0.00    +0.000 A 
ATOM     24  C   UNL     1       0.974   4.224  20.455  0.00  0.00    +0.000 C 
ENDBRANCH  13  22
ENDBRANCH   1  14
BRANCH   5  25
ATOM     25  C   UNL     1      -0.545  10.794  19.679  0.00  0.00    +0.000 C 
ATOM     26  F   UNL     1      -1.661  11.490  20.017  0.00  0.00    +0.000 F 
ATOM     27  F   UNL     1       0.250  11.656  19.005  0.00  0.00    +0.000 F 
ATOM     28  F   UNL     1      -0.982   9.849  18.804  0.00  0.00    +0.000 F 
ENDBRANCH   5  25
TORSDOF 4
ENDMDL
MODEL 2
REMARK VINA RESULT:      -7.9      2.498      3.360
REMARK  Name = 
REMARK  6 active torsions:
REMARK  status: ('A' for Active; 'I' for Inactive)
REMARK    1  A    between atoms: C_1  and  C_2
REMARK    2  A    between atoms: C_6  and  N_7
REMARK    3  A    between atoms: C_8  and  C_10
REMARK    4  A    between atoms: N_13  and  C_14
REMARK    5  A    between atoms: C_21  and  C_22
REMARK    6  A    between atoms: C_26  and  C_27
REMARK                            x       y       z     vdW  Elec       q    Type
REMARK                         _______ _______ _______ _____ _____    ______ ____
ROOT
ATOM      1  C   UNL     1       1.375   8.443  20.674  0.00  0.00    +0.000 A 
ATOM      2  C   UNL     1       1.283   9.100  21.910  0.00  0.00    +0.000 A 
ATOM      3  N   UNL     1       1.124  10.410  21.779  0.00  0.00    +0.000 NA
ATOM      4  N   UNL     1       1.067  10.637  20.437  0.00  0.00    +0.000 N 
ATOM      5  C   UNL     1       1.194   9.452  19.736  0.00  0.00    +0.000 A 
ENDROOT
BRANCH   4   6
ATOM      6  C   UNL     1       0.811  11.955  19.935  0.00  0.00    +0.000 A 
ATOM      7  N   UNL     1       1.881  12.801  19.870  0.00  0.00    +0.000 NA
ATOM      8  C   UNL     1       1.700  14.017  19.308  0.00  0.00    +0.000 A 
ATOM      9  C   UNL     1       0.489  14.453  18.807  0.00  0.00    +0.000 A 
ATOM     10  C   UNL     1      -0.608  13.603  18.917  0.00  0.00    +0.000 A 
ATOM     11  C   UNL     1      -0.462  12.336  19.490  0.00  0.00    +0.000 A 
ATOM     12 CL   UNL     1      -1.923  11.443  19.729  0.00  0.00    +0.000 Cl
ENDBRANCH   4   6
BRANCH   1  14
ATOM     13  N   UNL     1       2.819   6.751  19.842  0.00  0.00    +0.000 N 
ATOM     14  C   UNL     1       1.584   7.027  20.413  0.00  0.00    +0.000 C 
ATOM     15  O   UNL     1       0.706   6.227  20.695  0.00  0.00    +0.000 OA
ATOM     16  H   UNL     1       3.426   7.542  19.694  0.00  0.00    +0.000 HD
BRANCH  13  22
ATOM     17  C   UNL     1       5.227   3.930  16.428  0.00  0.00    +0.000 C 
ATOM     18  C   UNL     1       4.456   4.112  17.712  0.00  0.00    +0.000 A 
ATOM     19  C   UNL     1       4.194   2.975  18.485  0.00  0.00    +0.000 A 
ATOM     20  C   UNL     1       3.502   3.081  19.679  0.00  0.00    +0.000 A 
ATOM     21  C   UNL     1       3.064   4.327  20.119  0.00  0.00    +0.000 A 
ATOM     22  C   UNL     1       3.298   5.497  19.383  0.00  0.00    +0.000 A 
ATOM     23  C   UNL     1       4.001   5.392  18.150  0.00  0.00    +0.000 A 
ATOM     24  C   UNL     1       4.312   6.576  17.260  0.00  0.00    +0.000 C 
ENDBRANCH  13  22
ENDBRANCH   1  14
BRANCH   5  25
ATOM     25  C   UNL     1       1.250   9.421  18.258  0.00  0.00    +0.000 C 
ATOM     26  F   UNL     1       2.152  10.306  17.758  0.00  0.00    +0.000 F 
ATOM     27  F   UNL     1       1.588   8.211  17.756  0.00  0.00    +0.000 F 
ATOM     28  F   UNL     1       0.063   9.791  17.707  0.00  0.00    +0.000 F 
ENDBRANCH   5  25
TORSDOF 4
ENDMDL
MODEL 3
REMARK VINA RESULT:      -7.8      2.077      2.674
REMARK  Name = 
REMARK  6 active torsions:
REMARK  status: ('A' for Active; 'I' for Inactive)
REMARK    1  A    between atoms: C_1  and  C_2
REMARK    2  A    between atoms: C_6  and  N_7
REMARK    3  A    between atoms: C_8  and  C_10
REMARK    4  A    between atoms: N_13  and  C_14
REMARK    5  A    between atoms: C_21  and  C_22
REMARK    6  A    between atoms: C_26  and  C_27
REMARK                            x       y       z     vdW  Elec       q    Type
REMARK                         _______ _______ _______ _____ _____    ______ ____
ROOT
ATOM      1  C   UNL     1       1.515   8.459  20.597  0.00  0.00    +0.000 A 
ATOM      2  C   UNL     1       1.287   8.907  21.907  0.00  0.00    +0.000 A 
ATOM      3  N   UNL     1       0.732  10.111  21.944  0.00  0.00    +0.000 NA
ATOM      4  N   UNL     1       0.544  10.465  20.642  0.00  0.00    +0.000 N 
ATOM      5  C   UNL     1       0.990   9.466  19.795  0.00  0.00    +0.000 A 
ENDROOT
BRANCH   4   6
ATOM      6  C   UNL     1      -0.124  11.690  20.312  0.00  0.00    +0.000 A 
ATOM      7  N   UNL     1      -1.487  11.644  20.260  0.00  0.00    +0.000 NA
ATOM      8  C   UNL     1      -2.157  12.800  20.053  0.00  0.00    +0.000 A 
ATOM      9  C   UNL     1      -1.534  14.021  19.877  0.00  0.00    +0.000 A 
ATOM     10  C   UNL     1      -0.143  14.052  19.886  0.00  0.00    +0.000 A 
ATOM     11  C   UNL     1       0.586  12.878  20.100  0.00  0.00    +0.000 A 
ATOM     12 CL   UNL     1       2.300  13.011  19.916  0.00  0.00    +0.000 Cl
ENDBRANCH   4   6
BRANCH   1  14
ATOM     13  N   UNL     1       1.447   6.085  20.583  0.00  0.00    +0.000 N 
ATOM     14  C   UNL     1       2.130   7.217  20.157  0.00  0.00    +0.000 C 
ATOM     15  O   UNL     1       3.149   7.255  19.485  0.00  0.00    +0.000 OA
ATOM     16  H   UNL     1       0.610   6.248  21.119  0.00  0.00    +0.000 HD
BRANCH  13  22
ATOM     17  C   UNL     1       2.370   2.116  17.615  0.00  0.00    +0.000 C 
ATOM     18  C   UNL     1       2.260   2.785  18.963  0.00  0.00    +0.000 A 
ATOM     19  C   UNL     1       2.540   2.015  20.099  0.00  0.00    +0.000 A 
ATOM     20  C   UNL     1       2.468   2.576  21.362  0.00  0.00    +0.000 A 
ATOM     21  C   UNL     1       2.117   3.916  21.508  0.00  0.00    +0.000 A 
ATOM     22  C   UNL     1       1.826   4.730  20.405  0.00  0.00    +0.000 A 
ATOM     23  C   UNL     1       1.889   4.156  19.104  0.00  0.00    +0.000 A 
ATOM     24  C   UNL     1       1.592   4.923  17.834  0.00  0.00    +0.000 C 
ENDBRANCH  13  22
ENDBRANCH   1  14
BRANCH   5  25
ATOM     25  C   UNL     1       0.982   9.627  18.325  0.00  0.00    +0.000 C 
ATOM     26  F   UNL     1       1.295   8.474  17.679  0.00  0.00    +0.000 F 
ATOM     27  F   UNL     1      -0.215  10.024  17.834  0.00  0.00    +0.000 F 
ATOM     28  F   UNL     1       1.924  10.518  17.916  0.00  0.00    +0.000 F 
ENDBRANCH   5  25
TORSDOF 4
ENDMDL
MODEL 4
REMARK VINA RESULT:      -7.8      3.607      8.543
REMARK  Name = 
REMARK  6 active torsions:
REMARK  status: ('A' for Active; 'I' for Inactive)
REMARK    1  A    between atoms: C_1  and  C_2
REMARK    2  A    between atoms: C_6  and  N_7
REMARK    3  A    between atoms: C_8  and  C_10
REMARK    4  A    between atoms: N_13  and  C_14
REMARK    5  A    between atoms: C_21  and  C_22
REMARK    6  A    between atoms: C_26  and  C_27
REMARK                            x       y       z     vdW  Elec       q    Type
REMARK                         _______ _______ _______ _____ _____    ______ ____
ROOT
ATOM      1  C   UNL     1       2.825   5.534  19.780  0.00  0.00    +0.000 A 
ATOM      2  C   UNL     1       3.437   4.356  20.231  0.00  0.00    +0.000 A 
ATOM      3  N   UNL     1       4.370   3.916  19.398  0.00  0.00    +0.000 NA
ATOM      4  N   UNL     1       4.418   4.831  18.390  0.00  0.00    +0.000 N 
ATOM      5  C   UNL     1       3.502   5.845  18.607  0.00  0.00    +0.000 A 
ENDROOT
BRANCH   4   6
ATOM      6  C   UNL     1       5.393   4.709  17.346  0.00  0.00    +0.000 A 
ATOM      7  N   UNL     1       5.009   4.019  16.233  0.00  0.00    +0.000 NA
ATOM      8  C   UNL     1       5.864   3.970  15.186  0.00  0.00    +0.000 A 
ATOM      9  C   UNL     1       7.108   4.570  15.189  0.00  0.00    +0.000 A 
ATOM     10  C   UNL     1       7.511   5.234  16.343  0.00  0.00    +0.000 A 
ATOM     11  C   UNL     1       6.655   5.309  17.447  0.00  0.00    +0.000 A 
ATOM     12 CL   UNL     1       7.329   6.006  18.879  0.00  0.00    +0.000 Cl
ENDBRANCH   4   6
BRANCH   1  14
ATOM     13  N   UNL     1       1.979   7.659  20.421  0.00  0.00    +0.000 N 
ATOM     14  C   UNL     1       1.746   6.291  20.398  0.00  0.00    +0.000 C 
ATOM     15  O   UNL     1       0.768   5.701  20.831  0.00  0.00    +0.000 OA
ATOM     16  H   UNL     1       2.840   7.970  19.999  0.00  0.00    +0.000 HD
BRANCH  13  22
ATOM     17  C   UNL     1      -0.870  11.807  20.117  0.00  0.00    +0.000 C 
ATOM     18  C   UNL     1      -0.198  10.696  20.886  0.00  0.00    +0.000 A 
ATOM     19  C   UNL     1      -0.371  10.664  22.275  0.00  0.00    +0.000 A 
ATOM     20  C   UNL     1       0.210   9.662  23.033  0.00  0.00    +0.000 A 
ATOM     21  C   UNL     1       0.972   8.676  22.412  0.00  0.00    +0.000 A 
ATOM     22  C   UNL     1       1.178   8.662  21.025  0.00  0.00    +0.000 A 
ATOM     23  C   UNL     1       0.591   9.695  20.242  0.00  0.00    +0.000 A 
ATOM     24  C   UNL     1       0.742   9.797  18.740  0.00  0.00    +0.000 C 
ENDBRANCH  13  22
ENDBRANCH   1  14
BRANCH   5  25
ATOM     25  C   UNL     1       3.287   6.926  17.622  0.00  0.00    +0.000 C 
ATOM     26  F   UNL     1       3.676   8.139  18.095  0.00  0.00    +0.000 F 
ATOM     27  F   UNL     1       3.957   6.740  16.461  0.00  0.00    +0.000 F 
ATOM     28  F   UNL     1       1.968   7.078  17.329  0.00  0.00    +0.000 F 
ENDBRANCH   5  25
TORSDOF 4
ENDMDL
MODEL 5
REMARK VINA RESULT:      -7.7      2.772      3.747
REMARK  Name = 
REMARK  6 active torsions:
REMARK  status: ('A' for Active; 'I' for Inactive)
REMARK    1  A    between atoms: C_1  and  C_2
REMARK    2  A    between atoms: C_6  and  N_7
REMARK    3  A    between atoms: C_8  and  C_10
REMARK    4  A    between atoms: N_13  and  C_14
REMARK    5  A    between atoms: C_21  and  C_22
REMARK    6  A    between atoms: C_26  and  C_27
REMARK                            x       y       z     vdW  Elec       q    Type
REMARK                         _______ _______ _______ _____ _____    ______ ____
ROOT
ATOM      1  C   UNL     1       2.212   8.147  18.764  0.00  0.00    +0.000 A 
ATOM      2  C   UNL     1       2.397   8.839  17.558  0.00  0.00    +0.000 A 
ATOM      3  N   UNL     1       1.775  10.010  17.542  0.00  0.00    +0.000 NA
ATOM      4  N   UNL     1       1.194  10.130  18.768  0.00  0.00    +0.000 N 
ATOM      5  C   UNL     1       1.462   9.018  19.547  0.00  0.00    +0.000 A 
ENDROOT
BRANCH   4   6
ATOM      6  C   UNL     1       0.502  11.332  19.129  0.00  0.00    +0.000 A 
ATOM      7  N   UNL     1       1.248  12.310  19.720  0.00  0.00    +0.000 NA
ATOM      8  C   UNL     1       0.654  13.497  19.982  0.00  0.00    +0.000 A 
ATOM      9  C   UNL     1      -0.670  13.765  19.695  0.00  0.00    +0.000 A 
ATOM     10  C   UNL     1      -1.437  12.749  19.134  0.00  0.00    +0.000 A 
ATOM     11  C   UNL     1      -0.859  11.508  18.846  0.00  0.00    +0.000 A 
ATOM     12 CL   UNL     1      -1.947  10.274  18.315  0.00  0.00    +0.000 Cl
ENDBRANCH   4   6
BRANCH   1  14
ATOM     13  N   UNL     1       1.757   5.828  18.995  0.00  0.00    +0.000 N 
ATOM     14  C   UNL     1       2.705   6.832  19.141  0.00  0.00    +0.000 C 
ATOM     15  O   UNL     1       3.853   6.711  19.540  0.00  0.00    +0.000 OA
ATOM     16  H   UNL     1       0.860   6.114  18.635  0.00  0.00    +0.000 HD
BRANCH  13  22
ATOM     17  C   UNL     1       3.622   1.212  18.206  0.00  0.00    +0.000 C 
ATOM     18  C   UNL     1       2.776   2.203  18.966  0.00  0.00    +0.000 A 
ATOM     19  C   UNL     1       2.070   1.740  20.083  0.00  0.00    +0.000 A 
ATOM     20  C   UNL     1       1.286   2.605  20.827  0.00  0.00    +0.000 A 
ATOM     21  C   UNL     1       1.198   3.947  20.466  0.00  0.00    +0.000 A 
ATOM     22  C   UNL     1       1.883   4.462  19.356  0.00  0.00    +0.000 A 
ATOM     23  C   UNL     1       2.682   3.575  18.582  0.00  0.00    +0.000 A 
ATOM     24  C   UNL     1       3.465   4.003  17.359  0.00  0.00    +0.000 C 
ENDBRANCH  13  22
ENDBRANCH   1  14
BRANCH   5  25
ATOM     25  C   UNL     1       0.881   8.851  20.896  0.00  0.00    +0.000 C 
ATOM     26  F   UNL     1      -0.476   8.892  20.882  0.00  0.00    +0.000 F 
ATOM     27  F   UNL     1       1.220   7.682  21.488  0.00  0.00    +0.000 F 
ATOM     28  F   UNL     1       1.247   9.866  21.725  0.00  0.00    +0.000 F 
ENDBRANCH   5  25
TORSDOF 4
ENDMDL
MODEL 6
REMARK VINA RESULT:      -7.7      2.239      3.147
REMARK  Name = 
REMARK  6 active torsions:
REMARK  status: ('A' for Active; 'I' for Inactive)
REMARK    1  A    between atoms: C_1  and  C_2
REMARK    2  A    between atoms: C_6  and  N_7
REMARK    3  A    between atoms: C_8  and  C_10
REMARK    4  A    between atoms: N_13  and  C_14
REMARK    5  A    between atoms: C_21  and  C_22
REMARK    6  A    between atoms: C_26  and  C_27
REMARK                            x       y       z     vdW  Elec       q    Type
REMARK                         _______ _______ _______ _____ _____    ______ ____
ROOT
ATOM      1  C   UNL     1       1.494   9.003  19.389  0.00  0.00    +0.000 A 
ATOM      2  C   UNL     1       1.665   9.993  18.410  0.00  0.00    +0.000 A 
ATOM      3  N   UNL     1       0.997  11.105  18.688  0.00  0.00    +0.000 NA
ATOM      4  N   UNL     1       0.399  10.879  19.891  0.00  0.00    +0.000 N 
ATOM      5  C   UNL     1       0.702   9.611  20.357  0.00  0.00    +0.000 A 
ENDROOT
BRANCH   4   6
ATOM      6  C   UNL     1      -0.344  11.919  20.539  0.00  0.00    +0.000 A 
ATOM      7  N   UNL     1       0.272  12.546  21.584  0.00  0.00    +0.000 NA
ATOM      8  C   UNL     1      -0.355  13.600  22.155  0.00  0.00    +0.000 A 
ATOM      9  C   UNL     1      -1.589  14.066  21.745  0.00  0.00    +0.000 A 
ATOM     10  C   UNL     1      -2.231  13.394  20.709  0.00  0.00    +0.000 A 
ATOM     11  C   UNL     1      -1.615  12.301  20.091  0.00  0.00    +0.000 A 
ATOM     12 CL   UNL     1      -2.579  11.444  18.940  0.00  0.00    +0.000 Cl
ENDBRANCH   4   6
BRANCH   1  14
ATOM     13  N   UNL     1       2.308   7.144  18.157  0.00  0.00    +0.000 N 
ATOM     14  C   UNL     1       2.034   7.653  19.419  0.00  0.00    +0.000 C 
ATOM     15  O   UNL     1       2.196   7.093  20.492  0.00  0.00    +0.000 OA
ATOM     16  H   UNL     1       2.124   7.759  17.381  0.00  0.00    +0.000 HD
BRANCH  13  22
ATOM     17  C   UNL     1       5.842   3.991  16.430  0.00  0.00    +0.000 C 
ATOM     18  C   UNL     1       4.467   4.296  16.972  0.00  0.00    +0.000 A 
ATOM     19  C   UNL     1       3.583   3.225  17.151  0.00  0.00    +0.000 A 
ATOM     20  C   UNL     1       2.312   3.440  17.656  0.00  0.00    +0.000 A 
ATOM     21  C   UNL     1       1.908   4.730  17.992  0.00  0.00    +0.000 A 
ATOM     22  C   UNL     1       2.753   5.836  17.830  0.00  0.00    +0.000 A 
ATOM     23  C   UNL     1       4.057   5.622  17.302  0.00  0.00    +0.000 A 
ATOM     24  C   UNL     1       5.062   6.731  17.074  0.00  0.00    +0.000 C 
ENDBRANCH  13  22
ENDBRANCH   1  14
BRANCH   5  25
ATOM     25  C   UNL     1       0.113   9.076  21.603  0.00  0.00    +0.000 C 
ATOM     26  F   UNL     1      -0.806   9.919  22.142  0.00  0.00    +0.000 F 
ATOM     27  F   UNL     1      -0.512   7.888  21.437  0.00  0.00    +0.000 F 
ATOM     28  F   UNL     1       1.054   8.927  22.574  0.00  0.00    +0.000 F 
ENDBRANCH   5  25
TORSDOF 4
ENDMDL
MODEL 7
REMARK VINA RESULT:      -7.5      2.731      3.414
REMARK  Name = 
REMARK  6 active torsions:
REMARK  status: ('A' for Active; 'I' for Inactive)
REMARK    1  A    between atoms: C_1  and  C_2
REMARK    2  A    between atoms: C_6  and  N_7
REMARK    3  A    between atoms: C_8  and  C_10
REMARK    4  A    between atoms: N_13  and  C_14
REMARK    5  A    between atoms: C_21  and  C_22
REMARK    6  A    between atoms: C_26  and  C_27
REMARK                            x       y       z     vdW  Elec       q    Type
REMARK                         _______ _______ _______ _____ _____    ______ ____
ROOT
ATOM      1  C   UNL     1       1.652   8.294  20.390  0.00  0.00    +0.000 A 
ATOM      2  C   UNL     1       1.181   8.797  21.612  0.00  0.00    +0.000 A 
ATOM      3  N   UNL     1       0.747  10.046  21.515  0.00  0.00    +0.000 NA
ATOM      4  N   UNL     1       0.889  10.380  20.202  0.00  0.00    +0.000 N 
ATOM      5  C   UNL     1       1.417   9.322  19.484  0.00  0.00    +0.000 A 
ENDROOT
BRANCH   4   6
ATOM      6  C   UNL     1       0.429  11.650  19.722  0.00  0.00    +0.000 A 
ATOM      7  N   UNL     1       1.197  12.734  20.038  0.00  0.00    +0.000 NA
ATOM      8  C   UNL     1       0.851  13.933  19.518  0.00  0.00    +0.000 A 
ATOM      9  C   UNL     1      -0.243  14.122  18.697  0.00  0.00    +0.000 A 
ATOM     10  C   UNL     1      -1.047  13.021  18.417  0.00  0.00    +0.000 A 
ATOM     11  C   UNL     1      -0.723  11.763  18.933  0.00  0.00    +0.000 A 
ATOM     12 CL   UNL     1      -1.886  10.513  18.661  0.00  0.00    +0.000 Cl
ENDBRANCH   4   6
BRANCH   1  14
ATOM     13  N   UNL     1       1.373   5.936  20.390  0.00  0.00    +0.000 N 
ATOM     14  C   UNL     1       2.232   6.990  20.108  0.00  0.00    +0.000 C 
ATOM     15  O   UNL     1       3.370   6.919  19.670  0.00  0.00    +0.000 OA
ATOM     16  H   UNL     1       0.459   6.188  20.732  0.00  0.00    +0.000 HD
BRANCH  13  22
ATOM     17  C   UNL     1       2.322   1.767  17.719  0.00  0.00    +0.000 C 
ATOM     18  C   UNL     1       2.101   2.507  19.015  0.00  0.00    +0.000 A 
ATOM     19  C   UNL     1       2.171   1.774  20.206  0.00  0.00    +0.000 A 
ATOM     20  C   UNL     1       1.990   2.399  21.428  0.00  0.00    +0.000 A 
ATOM     21  C   UNL     1       1.737   3.768  21.476  0.00  0.00    +0.000 A 
ATOM     22  C   UNL     1       1.656   4.548  20.314  0.00  0.00    +0.000 A 
ATOM     23  C   UNL     1       1.832   3.908  19.055  0.00  0.00    +0.000 A 
ATOM     24  C   UNL     1       1.762   4.634  17.729  0.00  0.00    +0.000 C 
ENDBRANCH  13  22
ENDBRANCH   1  14
BRANCH   5  25
ATOM     25  C   UNL     1       1.752   9.443  18.049  0.00  0.00    +0.000 C 
ATOM     26  F   UNL     1       2.245  10.669  17.736  0.00  0.00    +0.000 F 
ATOM     27  F   UNL     1       2.675   8.545  17.633  0.00  0.00    +0.000 F 
ATOM     28  F   UNL     1       0.647   9.307  17.267  0.00  0.00    +0.000 F 
ENDBRANCH   5  25
TORSDOF 4
ENDMDL
MODEL 8
REMARK VINA RESULT:      -7.5      1.177      1.256
REMARK  Name = 
REMARK  6 active torsions:
REMARK  status: ('A' for Active; 'I' for Inactive)
REMARK    1  A    between atoms: C_1  and  C_2
REMARK    2  A    between atoms: C_6  and  N_7
REMARK    3  A    between atoms: C_8  and  C_10
REMARK    4  A    between atoms: N_13  and  C_14
REMARK    5  A    between atoms: C_21  and  C_22
REMARK    6  A    between atoms: C_26  and  C_27
REMARK                            x       y       z     vdW  Elec       q    Type
REMARK                         _______ _______ _______ _____ _____    ______ ____
ROOT
ATOM      1  C   UNL     1       1.405   8.832  20.568  0.00  0.00    +0.000 A 
ATOM      2  C   UNL     1       1.348   8.860  21.969  0.00  0.00    +0.000 A 
ATOM      3  N   UNL     1       0.779   9.965  22.433  0.00  0.00    +0.000 NA
ATOM      4  N   UNL     1       0.408  10.674  21.331  0.00  0.00    +0.000 N 
ATOM      5  C   UNL     1       0.756   9.997  20.175  0.00  0.00    +0.000 A 
ENDROOT
BRANCH   4   6
ATOM      6  C   UNL     1      -0.323  11.899  21.468  0.00  0.00    +0.000 A 
ATOM      7  N   UNL     1      -1.660  11.784  21.722  0.00  0.00    +0.000 NA
ATOM      8  C   UNL     1      -2.364  12.914  21.958  0.00  0.00    +0.000 A 
ATOM      9  C   UNL     1      -1.805  14.177  21.943  0.00  0.00    +0.000 A 
ATOM     10  C   UNL     1      -0.452  14.290  21.639  0.00  0.00    +0.000 A 
ATOM     11  C   UNL     1       0.312  13.145  21.390  0.00  0.00    +0.000 A 
ATOM     12 CL   UNL     1       1.932  13.420  20.854  0.00  0.00    +0.000 Cl
ENDBRANCH   4   6
BRANCH   1  14
ATOM     13  N   UNL     1       2.295   6.639  20.374  0.00  0.00    +0.000 N 
ATOM     14  C   UNL     1       1.980   7.813  19.703  0.00  0.00    +0.000 C 
ATOM     15  O   UNL     1       2.140   8.051  18.516  0.00  0.00    +0.000 OA
ATOM     16  H   UNL     1       2.077   6.617  21.357  0.00  0.00    +0.000 HD
BRANCH  13  22
ATOM     17  C   UNL     1       2.302   1.758  19.114  0.00  0.00    +0.000 C 
ATOM     18  C   UNL     1       2.962   3.108  19.249  0.00  0.00    +0.000 A 
ATOM     19  C   UNL     1       4.297   3.227  18.842  0.00  0.00    +0.000 A 
ATOM     20  C   UNL     1       4.952   4.442  18.930  0.00  0.00    +0.000 A 
ATOM     21  C   UNL     1       4.282   5.558  19.426  0.00  0.00    +0.000 A 
ATOM     22  C   UNL     1       2.947   5.493  19.849  0.00  0.00    +0.000 A 
ATOM     23  C   UNL     1       2.271   4.243  19.770  0.00  0.00    +0.000 A 
ATOM     24  C   UNL     1       0.835   4.038  20.199  0.00  0.00    +0.000 C 
ENDBRANCH  13  22
ENDBRANCH   1  14
BRANCH   5  25
ATOM     25  C   UNL     1       0.544  10.582  18.834  0.00  0.00    +0.000 C 
ATOM     26  F   UNL     1      -0.357  11.598  18.851  0.00  0.00    +0.000 F 
ATOM     27  F   UNL     1       1.672  11.084  18.280  0.00  0.00    +0.000 F 
ATOM     28  F   UNL     1       0.019   9.671  17.970  0.00  0.00    +0.000 F 
ENDBRANCH   5  25
TORSDOF 4
ENDMDL
MODEL 9
REMARK VINA RESULT:      -7.4      2.096      2.972
REMARK  Name = 
REMARK  6 active torsions:
REMARK  status: ('A' for Active; 'I' for Inactive)
REMARK    1  A    between atoms: C_1  and  C_2
REMARK    2  A    between atoms: C_6  and  N_7
REMARK    3  A    between atoms: C_8  and  C_10
REMARK    4  A    between atoms: N_13  and  C_14
REMARK    5  A    between atoms: C_21  and  C_22
REMARK    6  A    between atoms: C_26  and  C_27
REMARK                            x       y       z     vdW  Elec       q    Type
REMARK                         _______ _______ _______ _____ _____    ______ ____
ROOT
ATOM      1  C   UNL     1       1.477   8.982  19.321  0.00  0.00    +0.000 A 
ATOM      2  C   UNL     1       1.519   9.911  18.270  0.00  0.00    +0.000 A 
ATOM      3  N   UNL     1       0.871  11.033  18.556  0.00  0.00    +0.000 NA
ATOM      4  N   UNL     1       0.420  10.877  19.832  0.00  0.00    +0.000 N 
ATOM      5  C   UNL     1       0.794   9.644  20.335  0.00  0.00    +0.000 A 
ENDROOT
BRANCH   4   6
ATOM      6  C   UNL     1      -0.259  11.950  20.497  0.00  0.00    +0.000 A 
ATOM      7  N   UNL     1      -1.623  11.897  20.503  0.00  0.00    +0.000 NA
ATOM      8  C   UNL     1      -2.295  12.836  21.207  0.00  0.00    +0.000 A 
ATOM      9  C   UNL     1      -1.675  13.851  21.909  0.00  0.00    +0.000 A 
ATOM     10  C   UNL     1      -0.286  13.925  21.862  0.00  0.00    +0.000 A 
ATOM     11  C   UNL     1       0.446  12.972  21.147  0.00  0.00    +0.000 A 
ATOM     12 CL   UNL     1       2.144  13.267  21.017  0.00  0.00    +0.000 Cl
ENDBRANCH   4   6
BRANCH   1  14
ATOM     13  N   UNL     1       2.372   7.141  18.118  0.00  0.00    +0.000 N 
ATOM     14  C   UNL     1       2.037   7.641  19.369  0.00  0.00    +0.000 C 
ATOM     15  O   UNL     1       2.162   7.080  20.447  0.00  0.00    +0.000 OA
ATOM     16  H   UNL     1       2.212   7.757  17.337  0.00  0.00    +0.000 HD
BRANCH  13  22
ATOM     17  C   UNL     1       5.967   4.068  16.371  0.00  0.00    +0.000 C 
ATOM     18  C   UNL     1       4.596   4.340  16.939  0.00  0.00    +0.000 A 
ATOM     19  C   UNL     1       3.751   3.245  17.159  0.00  0.00    +0.000 A 
ATOM     20  C   UNL     1       2.486   3.430  17.690  0.00  0.00    +0.000 A 
ATOM     21  C   UNL     1       2.047   4.713  18.009  0.00  0.00    +0.000 A 
ATOM     22  C   UNL     1       2.852   5.842  17.807  0.00  0.00    +0.000 A 
ATOM     23  C   UNL     1       4.150   5.659  17.253  0.00  0.00    +0.000 A 
ATOM     24  C   UNL     1       5.113   6.795  16.980  0.00  0.00    +0.000 C 
ENDBRANCH  13  22
ENDBRANCH   1  14
BRANCH   5  25
ATOM     25  C   UNL     1       0.361   9.182  21.672  0.00  0.00    +0.000 C 
ATOM     26  F   UNL     1       1.406   8.776  22.439  0.00  0.00    +0.000 F 
ATOM     27  F   UNL     1      -0.288  10.130  22.386  0.00  0.00    +0.000 F 
ATOM     28  F   UNL     1      -0.447   8.091  21.585  0.00  0.00    +0.000 F 
ENDBRANCH   5  25
TORSDOF 4
ENDMDL
