MODEL 1
REMARK VINA RESULT:      -9.0      0.000      0.000
REMARK  Name = 
REMARK  3 active torsions:
REMARK  status: ('A' for Active; 'I' for Inactive)
REMARK    1  A    between atoms: C_2  and  C_14
REMARK    2  A    between atoms: N_3  and  C_4
REMARK    3  A    between atoms: C_20  and  C_21
REMARK                            x       y       z     vdW  Elec       q    Type
REMARK                         _______ _______ _______ _____ _____    ______ ____
ROOT
ATOM      1  O   UNL     1       5.182   7.527  17.897  0.00  0.00    +0.000 OA
ATOM      2  C   UNL     1       4.374   6.729  17.443  0.00  0.00    +0.000 C 
ATOM      3  N   UNL     1       3.006   6.730  17.671  0.00  0.00    +0.000 N 
ATOM      4  H   UNL     1       2.504   5.878  17.449  0.00  0.00    +0.000 HD
ENDROOT
BRANCH   3   5
ATOM      5  C   UNL     1       2.352   7.637  18.531  0.00  0.00    +0.000 A 
ATOM      6  C   UNL     1       1.795   8.791  17.933  0.00  0.00    +0.000 A 
ATOM      7  C   UNL     1       1.059   9.709  18.688  0.00  0.00    +0.000 A 
ATOM      8  C   UNL     1       0.957   9.477  20.040  0.00  0.00    +0.000 A 
ATOM      9  O   UNL     1       0.296  10.282  20.953  0.00  0.00    +0.000 OA
ATOM     10  C   UNL     1       0.542   9.615  22.165  0.00  0.00    +0.000 A 
ATOM     11  O   UNL     1       0.141  10.005  23.246  0.00  0.00    +0.000 OA
ATOM     12  N   UNL     1       1.287   8.481  21.962  0.00  0.00    +0.000 N 
ATOM     13  C   UNL     1       1.547   8.376  20.625  0.00  0.00    +0.000 A 
ATOM     14  C   UNL     1       2.239   7.423  19.911  0.00  0.00    +0.000 A 
ATOM     15  H   UNL     1       1.578   7.860  22.701  0.00  0.00    +0.000 HD
ENDBRANCH   3   5
BRANCH   2  16
ATOM     16  C   UNL     1       4.842   5.580  16.618  0.00  0.00    +0.000 A 
ATOM     17  C   UNL     1       5.694   5.939  15.554  0.00  0.00    +0.000 A 
ATOM     18  C   UNL     1       6.237   4.960  14.741  0.00  0.00    +0.000 A 
ATOM     19  F   UNL     1       7.031   5.311  13.722  0.00  0.00    +0.000 F 
ATOM     20  C   UNL     1       5.965   3.624  14.969  0.00  0.00    +0.000 A 
ATOM     21  C   UNL     1       5.112   3.266  16.017  0.00  0.00    +0.000 A 
ATOM     22  C   UNL     1       4.514   4.223  16.877  0.00  0.00    +0.000 A 
BRANCH  22  23
ATOM     23  C   UNL     1       3.562   3.740  17.926  0.00  0.00    +0.000 A 
ATOM     24  C   UNL     1       2.210   3.467  17.618  0.00  0.00    +0.000 A 
ATOM     25  C   UNL     1       1.287   3.078  18.598  0.00  0.00    +0.000 A 
ATOM     26  C   UNL     1       1.697   2.920  19.916  0.00  0.00    +0.000 A 
ATOM     27  C   UNL     1       3.020   3.172  20.252  0.00  0.00    +0.000 A 
ATOM     28  C   UNL     1       3.931   3.597  19.274  0.00  0.00    +0.000 A 
ENDBRANCH  22  23
ENDBRANCH   2  16
TORSDOF 3
ENDMDL
MODEL 2
REMARK VINA RESULT:      -8.7      2.953      4.534
REMARK  Name = 
REMARK  3 active torsions:
REMARK  status: ('A' for Active; 'I' for Inactive)
REMARK    1  A    between atoms: C_2  and  C_14
REMARK    2  A    between atoms: N_3  and  C_4
REMARK    3  A    between atoms: C_20  and  C_21
REMARK                            x       y       z     vdW  Elec       q    Type
REMARK                         _______ _______ _______ _____ _____    ______ ____
ROOT
ATOM      1  O   UNL     1       2.486   6.667  20.427  0.00  0.00    +0.000 OA
ATOM      2  C   UNL     1       2.437   6.440  19.226  0.00  0.00    +0.000 C 
ATOM      3  N   UNL     1       2.178   7.366  18.228  0.00  0.00    +0.000 N 
ATOM      4  H   UNL     1       1.916   7.000  17.320  0.00  0.00    +0.000 HD
ENDROOT
BRANCH   3   5
ATOM      5  C   UNL     1       1.863   8.720  18.472  0.00  0.00    +0.000 A 
ATOM      6  C   UNL     1       0.884   8.977  19.457  0.00  0.00    +0.000 A 
ATOM      7  C   UNL     1       0.561  10.286  19.827  0.00  0.00    +0.000 A 
ATOM      8  C   UNL     1       1.185  11.306  19.148  0.00  0.00    +0.000 A 
ATOM      9  O   UNL     1       0.979  12.660  19.350  0.00  0.00    +0.000 OA
ATOM     10  C   UNL     1       1.818  13.234  18.380  0.00  0.00    +0.000 A 
ATOM     11  O   UNL     1       1.928  14.434  18.204  0.00  0.00    +0.000 OA
ATOM     12  N   UNL     1       2.485  12.268  17.670  0.00  0.00    +0.000 N 
ATOM     13  C   UNL     1       2.103  11.047  18.150  0.00  0.00    +0.000 A 
ATOM     14  C   UNL     1       2.484   9.774  17.790  0.00  0.00    +0.000 A 
ATOM     15  H   UNL     1       3.132  12.466  16.925  0.00  0.00    +0.000 HD
ENDBRANCH   3   5
BRANCH   2  16
ATOM     16  C   UNL     1       2.592   5.046  18.724  0.00  0.00    +0.000 A 
ATOM     17  C   UNL     1       1.425   4.261  18.820  0.00  0.00    +0.000 A 
ATOM     18  C   UNL     1       1.422   2.962  18.343  0.00  0.00    +0.000 A 
ATOM     19  F   UNL     1       0.314   2.219  18.455  0.00  0.00    +0.000 F 
ATOM     20  C   UNL     1       2.552   2.425  17.756  0.00  0.00    +0.000 A 
ATOM     21  C   UNL     1       3.714   3.197  17.668  0.00  0.00    +0.000 A 
ATOM     22  C   UNL     1       3.784   4.530  18.150  0.00  0.00    +0.000 A 
BRANCH  22  23
ATOM     23  C   UNL     1       5.095   5.247  18.070  0.00  0.00    +0.000 A 
ATOM     24  C   UNL     1       6.088   5.070  19.060  0.00  0.00    +0.000 A 
ATOM     25  C   UNL     1       7.296   5.782  19.039  0.00  0.00    +0.000 A 
ATOM     26  C   UNL     1       7.560   6.673  18.006  0.00  0.00    +0.000 A 
ATOM     27  C   UNL     1       6.609   6.864  17.012  0.00  0.00    +0.000 A 
ATOM     28  C   UNL     1       5.387   6.177  17.059  0.00  0.00    +0.000 A 
ENDBRANCH  22  23
ENDBRANCH   2  16
TORSDOF 3
ENDMDL
MODEL 3
REMARK VINA RESULT:      -8.5      1.180      1.713
REMARK  Name = 
REMARK  3 active torsions:
REMARK  status: ('A' for Active; 'I' for Inactive)
REMARK    1  A    between atoms: C_2  and  C_14
REMARK    2  A    between atoms: N_3  and  C_4
REMARK    3  A    between atoms: C_20  and  C_21
REMARK                            x       y       z     vdW  Elec       q    Type
REMARK                         _______ _______ _______ _____ _____    ______ ____
ROOT
ATOM      1  O   UNL     1       5.030   7.758  17.822  0.00  0.00    +0.000 OA
ATOM      2  C   UNL     1       4.244   6.911  17.419  0.00  0.00    +0.000 C 
ATOM      3  N   UNL     1       2.871   6.914  17.610  0.00  0.00    +0.000 N 
ATOM      4  H   UNL     1       2.385   6.038  17.451  0.00  0.00    +0.000 HD
ENDROOT
BRANCH   3   5
ATOM      5  C   UNL     1       2.182   7.884  18.367  0.00  0.00    +0.000 A 
ATOM      6  C   UNL     1       1.985   7.599  19.737  0.00  0.00    +0.000 A 
ATOM      7  C   UNL     1       1.384   8.532  20.588  0.00  0.00    +0.000 A 
ATOM      8  C   UNL     1       0.937   9.704  20.024  0.00  0.00    +0.000 A 
ATOM      9  O   UNL     1       0.296  10.733  20.694  0.00  0.00    +0.000 OA
ATOM     10  C   UNL     1       0.027  11.639  19.654  0.00  0.00    +0.000 A 
ATOM     11  O   UNL     1      -0.552  12.698  19.810  0.00  0.00    +0.000 OA
ATOM     12  N   UNL     1       0.502  11.169  18.455  0.00  0.00    +0.000 N 
ATOM     13  C   UNL     1       1.087   9.954  18.676  0.00  0.00    +0.000 A 
ATOM     14  C   UNL     1       1.715   9.084  17.814  0.00  0.00    +0.000 A 
ATOM     15  H   UNL     1       0.409  11.663  17.582  0.00  0.00    +0.000 HD
ENDBRANCH   3   5
BRANCH   2  16
ATOM     16  C   UNL     1       4.749   5.701  16.712  0.00  0.00    +0.000 A 
ATOM     17  C   UNL     1       5.654   5.973  15.668  0.00  0.00    +0.000 A 
ATOM     18  C   UNL     1       6.234   4.933  14.964  0.00  0.00    +0.000 A 
ATOM     19  F   UNL     1       7.080   5.202  13.962  0.00  0.00    +0.000 F 
ATOM     20  C   UNL     1       5.944   3.619  15.283  0.00  0.00    +0.000 A 
ATOM     21  C   UNL     1       5.039   3.346  16.312  0.00  0.00    +0.000 A 
ATOM     22  C   UNL     1       4.402   4.369  17.062  0.00  0.00    +0.000 A 
BRANCH  22  23
ATOM     23  C   UNL     1       3.397   3.971  18.096  0.00  0.00    +0.000 A 
ATOM     24  C   UNL     1       2.085   3.587  17.733  0.00  0.00    +0.000 A 
ATOM     25  C   UNL     1       1.110   3.275  18.690  0.00  0.00    +0.000 A 
ATOM     26  C   UNL     1       1.426   3.307  20.042  0.00  0.00    +0.000 A 
ATOM     27  C   UNL     1       2.707   3.672  20.433  0.00  0.00    +0.000 A 
ATOM     28  C   UNL     1       3.669   4.020  19.473  0.00  0.00    +0.000 A 
ENDBRANCH  22  23
ENDBRANCH   2  16
TORSDOF 3
ENDMDL
MODEL 4
REMARK VINA RESULT:      -8.5      2.597      4.065
REMARK  Name = 
REMARK  3 active torsions:
REMARK  status: ('A' for Active; 'I' for Inactive)
REMARK    1  A    between atoms: C_2  and  C_14
REMARK    2  A    between atoms: N_3  and  C_4
REMARK    3  A    between atoms: C_20  and  C_21
REMARK                            x       y       z     vdW  Elec       q    Type
REMARK                         _______ _______ _______ _____ _____    ______ ____
ROOT
ATOM      1  O   UNL     1       2.531   6.362  20.665  0.00  0.00    +0.000 OA
ATOM      2  C   UNL     1       2.426   6.221  19.455  0.00  0.00    +0.000 C 
ATOM      3  N   UNL     1       2.097   7.211  18.542  0.00  0.00    +0.000 N 
ATOM      4  H   UNL     1       1.798   6.905  17.623  0.00  0.00    +0.000 HD
ENDROOT
BRANCH   3   5
ATOM      5  C   UNL     1       1.768   8.535  18.900  0.00  0.00    +0.000 A 
ATOM      6  C   UNL     1       2.082   9.544  17.962  0.00  0.00    +0.000 A 
ATOM      7  C   UNL     1       1.724  10.876  18.190  0.00  0.00    +0.000 A 
ATOM      8  C   UNL     1       1.116  11.170  19.388  0.00  0.00    +0.000 A 
ATOM      9  O   UNL     1       0.713  12.427  19.807  0.00  0.00    +0.000 OA
ATOM     10  C   UNL     1       0.208  12.162  21.091  0.00  0.00    +0.000 A 
ATOM     11  O   UNL     1      -0.245  13.017  21.830  0.00  0.00    +0.000 OA
ATOM     12  N   UNL     1       0.297  10.827  21.391  0.00  0.00    +0.000 N 
ATOM     13  C   UNL     1       0.858  10.187  20.322  0.00  0.00    +0.000 A 
ATOM     14  C   UNL     1       1.151   8.857  20.116  0.00  0.00    +0.000 A 
ATOM     15  H   UNL     1      -0.005  10.426  22.264  0.00  0.00    +0.000 HD
ENDBRANCH   3   5
BRANCH   2  16
ATOM     16  C   UNL     1       2.584   4.871  18.844  0.00  0.00    +0.000 A 
ATOM     17  C   UNL     1       1.442   4.051  18.945  0.00  0.00    +0.000 A 
ATOM     18  C   UNL     1       1.442   2.790  18.375  0.00  0.00    +0.000 A 
ATOM     19  F   UNL     1       0.359   2.012  18.492  0.00  0.00    +0.000 F 
ATOM     20  C   UNL     1       2.550   2.327  17.690  0.00  0.00    +0.000 A 
ATOM     21  C   UNL     1       3.687   3.134  17.597  0.00  0.00    +0.000 A 
ATOM     22  C   UNL     1       3.754   4.430  18.171  0.00  0.00    +0.000 A 
BRANCH  22  23
ATOM     23  C   UNL     1       5.042   5.185  18.073  0.00  0.00    +0.000 A 
ATOM     24  C   UNL     1       6.064   5.018  19.035  0.00  0.00    +0.000 A 
ATOM     25  C   UNL     1       7.250   5.764  18.999  0.00  0.00    +0.000 A 
ATOM     26  C   UNL     1       7.464   6.681  17.978  0.00  0.00    +0.000 A 
ATOM     27  C   UNL     1       6.484   6.865  17.011  0.00  0.00    +0.000 A 
ATOM     28  C   UNL     1       5.283   6.143  17.073  0.00  0.00    +0.000 A 
ENDBRANCH  22  23
ENDBRANCH   2  16
TORSDOF 3
ENDMDL
MODEL 5
REMARK VINA RESULT:      -8.3      2.785      4.470
REMARK  Name = 
REMARK  3 active torsions:
REMARK  status: ('A' for Active; 'I' for Inactive)
REMARK    1  A    between atoms: C_2  and  C_14
REMARK    2  A    between atoms: N_3  and  C_4
REMARK    3  A    between atoms: C_20  and  C_21
REMARK                            x       y       z     vdW  Elec       q    Type
REMARK                         _______ _______ _______ _____ _____    ______ ____
ROOT
ATOM      1  O   UNL     1       3.842   6.649  19.426  0.00  0.00    +0.000 OA
ATOM      2  C   UNL     1       2.865   6.266  18.797  0.00  0.00    +0.000 C 
ATOM      3  N   UNL     1       1.828   7.062  18.334  0.00  0.00    +0.000 N 
ATOM      4  H   UNL     1       0.975   6.588  18.060  0.00  0.00    +0.000 HD
ENDROOT
BRANCH   3   5
ATOM      5  C   UNL     1       1.723   8.445  18.587  0.00  0.00    +0.000 A 
ATOM      6  C   UNL     1       1.047   8.826  19.768  0.00  0.00    +0.000 A 
ATOM      7  C   UNL     1       0.959  10.169  20.147  0.00  0.00    +0.000 A 
ATOM      8  C   UNL     1       1.499  11.102  19.293  0.00  0.00    +0.000 A 
ATOM      9  O   UNL     1       1.488  12.474  19.480  0.00  0.00    +0.000 OA
ATOM     10  C   UNL     1       2.118  12.936  18.312  0.00  0.00    +0.000 A 
ATOM     11  O   UNL     1       2.304  14.112  18.062  0.00  0.00    +0.000 OA
ATOM     12  N   UNL     1       2.488  11.890  17.505  0.00  0.00    +0.000 N 
ATOM     13  C   UNL     1       2.113  10.727  18.116  0.00  0.00    +0.000 A 
ATOM     14  C   UNL     1       2.262   9.414  17.730  0.00  0.00    +0.000 A 
ATOM     15  H   UNL     1       2.950  12.002  16.617  0.00  0.00    +0.000 HD
ENDBRANCH   3   5
BRANCH   2  16
ATOM     16  C   UNL     1       2.672   4.814  18.528  0.00  0.00    +0.000 A 
ATOM     17  C   UNL     1       1.501   4.269  19.093  0.00  0.00    +0.000 A 
ATOM     18  C   UNL     1       1.180   2.941  18.876  0.00  0.00    +0.000 A 
ATOM     19  F   UNL     1       0.075   2.429  19.431  0.00  0.00    +0.000 F 
ATOM     20  C   UNL     1       1.991   2.139  18.095  0.00  0.00    +0.000 A 
ATOM     21  C   UNL     1       3.158   2.673  17.542  0.00  0.00    +0.000 A 
ATOM     22  C   UNL     1       3.549   4.024  17.738  0.00  0.00    +0.000 A 
BRANCH  22  23
ATOM     23  C   UNL     1       4.851   4.478  17.160  0.00  0.00    +0.000 A 
ATOM     24  C   UNL     1       4.951   4.883  15.809  0.00  0.00    +0.000 A 
ATOM     25  C   UNL     1       6.174   5.248  15.229  0.00  0.00    +0.000 A 
ATOM     26  C   UNL     1       7.334   5.249  15.994  0.00  0.00    +0.000 A 
ATOM     27  C   UNL     1       7.270   4.864  17.327  0.00  0.00    +0.000 A 
ATOM     28  C   UNL     1       6.050   4.463  17.892  0.00  0.00    +0.000 A 
ENDBRANCH  22  23
ENDBRANCH   2  16
TORSDOF 3
ENDMDL
MODEL 6
REMARK VINA RESULT:      -8.3      2.838      4.558
REMARK  Name = 
REMARK  3 active torsions:
REMARK  status: ('A' for Active; 'I' for Inactive)
REMARK    1  A    between atoms: C_2  and  C_14
REMARK    2  A    between atoms: N_3  and  C_4
REMARK    3  A    between atoms: C_20  and  C_21
REMARK                            x       y       z     vdW  Elec       q    Type
REMARK                         _______ _______ _______ _____ _____    ______ ____
ROOT
ATOM      1  O   UNL     1       1.938   5.700  17.972  0.00  0.00    +0.000 OA
ATOM      2  C   UNL     1       2.301   5.679  19.140  0.00  0.00    +0.000 C 
ATOM      3  N   UNL     1       2.281   6.749  20.022  0.00  0.00    +0.000 N 
ATOM      4  H   UNL     1       2.841   6.659  20.863  0.00  0.00    +0.000 HD
ENDROOT
BRANCH   3   5
ATOM      5  C   UNL     1       1.890   8.056  19.666  0.00  0.00    +0.000 A 
ATOM      6  C   UNL     1       2.324   8.529  18.407  0.00  0.00    +0.000 A 
ATOM      7  C   UNL     1       1.922   9.781  17.930  0.00  0.00    +0.000 A 
ATOM      8  C   UNL     1       1.145  10.553  18.762  0.00  0.00    +0.000 A 
ATOM      9  O   UNL     1       0.673  11.824  18.480  0.00  0.00    +0.000 OA
ATOM     10  C   UNL     1      -0.008  12.154  19.664  0.00  0.00    +0.000 A 
ATOM     11  O   UNL     1      -0.572  13.217  19.848  0.00  0.00    +0.000 OA
ATOM     12  N   UNL     1       0.052  11.126  20.571  0.00  0.00    +0.000 N 
ATOM     13  C   UNL     1       0.768  10.106  20.011  0.00  0.00    +0.000 A 
ATOM     14  C   UNL     1       1.101   8.862  20.498  0.00  0.00    +0.000 A 
ATOM     15  H   UNL     1      -0.368  11.159  21.486  0.00  0.00    +0.000 HD
ENDBRANCH   3   5
BRANCH   2  16
ATOM     16  C   UNL     1       2.898   4.441  19.715  0.00  0.00    +0.000 A 
ATOM     17  C   UNL     1       2.096   3.806  20.684  0.00  0.00    +0.000 A 
ATOM     18  C   UNL     1       2.514   2.619  21.260  0.00  0.00    +0.000 A 
ATOM     19  F   UNL     1       1.754   2.033  22.193  0.00  0.00    +0.000 F 
ATOM     20  C   UNL     1       3.710   2.036  20.883  0.00  0.00    +0.000 A 
ATOM     21  C   UNL     1       4.512   2.669  19.929  0.00  0.00    +0.000 A 
ATOM     22  C   UNL     1       4.145   3.893  19.312  0.00  0.00    +0.000 A 
BRANCH  22  23
ATOM     23  C   UNL     1       5.106   4.522  18.354  0.00  0.00    +0.000 A 
ATOM     24  C   UNL     1       6.105   5.417  18.800  0.00  0.00    +0.000 A 
ATOM     25  C   UNL     1       6.972   6.068  17.912  0.00  0.00    +0.000 A 
ATOM     26  C   UNL     1       6.887   5.819  16.548  0.00  0.00    +0.000 A 
ATOM     27  C   UNL     1       5.921   4.939  16.076  0.00  0.00    +0.000 A 
ATOM     28  C   UNL     1       5.032   4.319  16.966  0.00  0.00    +0.000 A 
ENDBRANCH  22  23
ENDBRANCH   2  16
TORSDOF 3
ENDMDL
MODEL 7
REMARK VINA RESULT:      -8.3      2.175      2.812
REMARK  Name = 
REMARK  3 active torsions:
REMARK  status: ('A' for Active; 'I' for Inactive)
REMARK    1  A    between atoms: C_2  and  C_14
REMARK    2  A    between atoms: N_3  and  C_4
REMARK    3  A    between atoms: C_20  and  C_21
REMARK                            x       y       z     vdW  Elec       q    Type
REMARK                         _______ _______ _______ _____ _____    ______ ____
ROOT
ATOM      1  O   UNL     1       2.435   7.143  19.532  0.00  0.00    +0.000 OA
ATOM      2  C   UNL     1       2.786   7.320  18.374  0.00  0.00    +0.000 C 
ATOM      3  N   UNL     1       2.463   8.410  17.579  0.00  0.00    +0.000 N 
ATOM      4  H   UNL     1       2.601   8.305  16.581  0.00  0.00    +0.000 HD
ENDROOT
BRANCH   3   5
ATOM      5  C   UNL     1       1.612   9.458  17.988  0.00  0.00    +0.000 A 
ATOM      6  C   UNL     1       2.226  10.695  18.287  0.00  0.00    +0.000 A 
ATOM      7  C   UNL     1       1.461  11.816  18.624  0.00  0.00    +0.000 A 
ATOM      8  C   UNL     1       0.099  11.646  18.716  0.00  0.00    +0.000 A 
ATOM      9  O   UNL     1      -0.818  12.624  19.062  0.00  0.00    +0.000 OA
ATOM     10  C   UNL     1      -2.029  11.911  19.046  0.00  0.00    +0.000 A 
ATOM     11  O   UNL     1      -3.109  12.405  19.313  0.00  0.00    +0.000 OA
ATOM     12  N   UNL     1      -1.825  10.601  18.695  0.00  0.00    +0.000 N 
ATOM     13  C   UNL     1      -0.489  10.422  18.474  0.00  0.00    +0.000 A 
ATOM     14  C   UNL     1       0.223   9.307  18.093  0.00  0.00    +0.000 A 
ATOM     15  H   UNL     1      -2.562   9.916  18.628  0.00  0.00    +0.000 HD
ENDBRANCH   3   5
BRANCH   2  16
ATOM     16  C   UNL     1       3.576   6.275  17.664  0.00  0.00    +0.000 A 
ATOM     17  C   UNL     1       4.393   6.769  16.627  0.00  0.00    +0.000 A 
ATOM     18  C   UNL     1       5.214   5.907  15.922  0.00  0.00    +0.000 A 
ATOM     19  F   UNL     1       5.973   6.382  14.927  0.00  0.00    +0.000 F 
ATOM     20  C   UNL     1       5.254   4.560  16.233  0.00  0.00    +0.000 A 
ATOM     21  C   UNL     1       4.438   4.066  17.254  0.00  0.00    +0.000 A 
ATOM     22  C   UNL     1       3.565   4.897  18.005  0.00  0.00    +0.000 A 
BRANCH  22  23
ATOM     23  C   UNL     1       2.683   4.257  19.030  0.00  0.00    +0.000 A 
ATOM     24  C   UNL     1       3.120   4.078  20.363  0.00  0.00    +0.000 A 
ATOM     25  C   UNL     1       2.335   3.421  21.321  0.00  0.00    +0.000 A 
ATOM     26  C   UNL     1       1.073   2.951  20.983  0.00  0.00    +0.000 A 
ATOM     27  C   UNL     1       0.610   3.117  19.685  0.00  0.00    +0.000 A 
ATOM     28  C   UNL     1       1.414   3.742  18.720  0.00  0.00    +0.000 A 
ENDBRANCH  22  23
ENDBRANCH   2  16
TORSDOF 3
ENDMDL
MODEL 8
REMARK VINA RESULT:      -8.2      2.841      4.674
REMARK  Name = 
REMARK  3 active torsions:
REMARK  status: ('A' for Active; 'I' for Inactive)
REMARK    1  A    between atoms: C_2  and  C_14
REMARK    2  A    between atoms: N_3  and  C_4
REMARK    3  A    between atoms: C_20  and  C_21
REMARK                            x       y       z     vdW  Elec       q    Type
REMARK                         _______ _______ _______ _____ _____    ______ ____
ROOT
ATOM      1  O   UNL     1       2.861   6.665  18.406  0.00  0.00    +0.000 OA
ATOM      2  C   UNL     1       2.563   6.210  19.502  0.00  0.00    +0.000 C 
ATOM      3  N   UNL     1       1.882   6.879  20.507  0.00  0.00    +0.000 N 
ATOM      4  H   UNL     1       1.931   6.478  21.437  0.00  0.00    +0.000 HD
ENDROOT
BRANCH   3   5
ATOM      5  C   UNL     1       1.485   8.230  20.426  0.00  0.00    +0.000 A 
ATOM      6  C   UNL     1       1.126   8.861  21.638  0.00  0.00    +0.000 A 
ATOM      7  C   UNL     1       0.794  10.219  21.672  0.00  0.00    +0.000 A 
ATOM      8  C   UNL     1       0.769  10.893  20.473  0.00  0.00    +0.000 A 
ATOM      9  O   UNL     1       0.440  12.227  20.300  0.00  0.00    +0.000 OA
ATOM     10  C   UNL     1       0.531  12.374  18.906  0.00  0.00    +0.000 A 
ATOM     11  O   UNL     1       0.301  13.414  18.318  0.00  0.00    +0.000 OA
ATOM     12  N   UNL     1       0.907  11.197  18.309  0.00  0.00    +0.000 N 
ATOM     13  C   UNL     1       1.071  10.257  19.287  0.00  0.00    +0.000 A 
ATOM     14  C   UNL     1       1.449   8.935  19.216  0.00  0.00    +0.000 A 
ATOM     15  H   UNL     1       1.026  11.084  17.315  0.00  0.00    +0.000 HD
ENDBRANCH   3   5
BRANCH   2  16
ATOM     16  C   UNL     1       3.004   4.840  19.886  0.00  0.00    +0.000 A 
ATOM     17  C   UNL     1       2.142   4.183  20.787  0.00  0.00    +0.000 A 
ATOM     18  C   UNL     1       2.413   2.886  21.185  0.00  0.00    +0.000 A 
ATOM     19  F   UNL     1       1.597   2.276  22.054  0.00  0.00    +0.000 F 
ATOM     20  C   UNL     1       3.519   2.216  20.697  0.00  0.00    +0.000 A 
ATOM     21  C   UNL     1       4.382   2.868  19.811  0.00  0.00    +0.000 A 
ATOM     22  C   UNL     1       4.166   4.202  19.376  0.00  0.00    +0.000 A 
BRANCH  22  23
ATOM     23  C   UNL     1       5.186   4.831  18.481  0.00  0.00    +0.000 A 
ATOM     24  C   UNL     1       5.148   4.642  17.080  0.00  0.00    +0.000 A 
ATOM     25  C   UNL     1       6.133   5.167  16.231  0.00  0.00    +0.000 A 
ATOM     26  C   UNL     1       7.171   5.926  16.756  0.00  0.00    +0.000 A 
ATOM     27  C   UNL     1       7.234   6.138  18.127  0.00  0.00    +0.000 A 
ATOM     28  C   UNL     1       6.267   5.579  18.976  0.00  0.00    +0.000 A 
ENDBRANCH  22  23
ENDBRANCH   2  16
TORSDOF 3
ENDMDL
MODEL 9
REMARK VINA RESULT:      -8.2      1.891      2.646
REMARK  Name = 
REMARK  3 active torsions:
REMARK  status: ('A' for Active; 'I' for Inactive)
REMARK    1  A    between atoms: C_2  and  C_14
REMARK    2  A    between atoms: N_3  and  C_4
REMARK    3  A    between atoms: C_20  and  C_21
REMARK                            x       y       z     vdW  Elec       q    Type
REMARK                         _______ _______ _______ _____ _____    ______ ____
ROOT
ATOM      1  O   UNL     1       2.684   8.042  17.116  0.00  0.00    +0.000 OA
ATOM      2  C   UNL     1       3.049   7.365  18.068  0.00  0.00    +0.000 C 
ATOM      3  N   UNL     1       2.565   7.449  19.364  0.00  0.00    +0.000 N 
ATOM      4  H   UNL     1       3.127   7.020  20.091  0.00  0.00    +0.000 HD
ENDROOT
BRANCH   3   5
ATOM      5  C   UNL     1       1.607   8.394  19.788  0.00  0.00    +0.000 A 
ATOM      6  C   UNL     1       1.069   8.216  21.082  0.00  0.00    +0.000 A 
ATOM      7  C   UNL     1       0.172   9.143  21.623  0.00  0.00    +0.000 A 
ATOM      8  C   UNL     1      -0.211  10.192  20.820  0.00  0.00    +0.000 A 
ATOM      9  O   UNL     1      -1.105  11.192  21.165  0.00  0.00    +0.000 OA
ATOM     10  C   UNL     1      -1.162  11.956  19.986  0.00  0.00    +0.000 A 
ATOM     11  O   UNL     1      -1.859  12.945  19.853  0.00  0.00    +0.000 OA
ATOM     12  N   UNL     1      -0.334  11.438  19.023  0.00  0.00    +0.000 N 
ATOM     13  C   UNL     1       0.279  10.331  19.538  0.00  0.00    +0.000 A 
ATOM     14  C   UNL     1       1.200   9.468  18.986  0.00  0.00    +0.000 A 
ATOM     15  H   UNL     1      -0.230  11.832  18.101  0.00  0.00    +0.000 HD
ENDBRANCH   3   5
BRANCH   2  16
ATOM     16  C   UNL     1       4.164   6.390  17.906  0.00  0.00    +0.000 A 
ATOM     17  C   UNL     1       5.327   6.928  17.320  0.00  0.00    +0.000 A 
ATOM     18  C   UNL     1       6.451   6.138  17.159  0.00  0.00    +0.000 A 
ATOM     19  F   UNL     1       7.546   6.654  16.586  0.00  0.00    +0.000 F 
ATOM     20  C   UNL     1       6.453   4.822  17.581  0.00  0.00    +0.000 A 
ATOM     21  C   UNL     1       5.298   4.282  18.153  0.00  0.00    +0.000 A 
ATOM     22  C   UNL     1       4.109   5.037  18.334  0.00  0.00    +0.000 A 
BRANCH  22  23
ATOM     23  C   UNL     1       2.907   4.345  18.893  0.00  0.00    +0.000 A 
ATOM     24  C   UNL     1       2.680   4.282  20.287  0.00  0.00    +0.000 A 
ATOM     25  C   UNL     1       1.596   3.582  20.834  0.00  0.00    +0.000 A 
ATOM     26  C   UNL     1       0.684   2.948  19.999  0.00  0.00    +0.000 A 
ATOM     27  C   UNL     1       0.873   2.997  18.624  0.00  0.00    +0.000 A 
ATOM     28  C   UNL     1       1.980   3.667  18.084  0.00  0.00    +0.000 A 
ENDBRANCH  22  23
ENDBRANCH   2  16
TORSDOF 3
ENDMDL
