MODEL 1
REMARK VINA RESULT:      -9.1      0.000      0.000
REMARK  Name = 
REMARK  4 active torsions:
REMARK  status: ('A' for Active; 'I' for Inactive)
REMARK    1  A    between atoms: S_2  and  C_4
REMARK    2  A    between atoms: S_2  and  N_14
REMARK    3  A    between atoms: C_4  and  C_5
REMARK    4  A    between atoms: C_23  and  C_24
REMARK                            x       y       z     vdW  Elec       q    Type
REMARK                         _______ _______ _______ _____ _____    ______ ____
ROOT
ATOM      1  N   UNL     1       4.371   5.206  17.580  0.00  0.00    +0.000 NA
ATOM      2  C   UNL     1       3.989   3.960  16.887  0.00  0.00    +0.000 C 
ATOM      3  C   UNL     1       2.491   3.681  16.992  0.00  0.00    +0.000 C 
ATOM      4  C   UNL     1       2.067   3.651  18.435  0.00  0.00    +0.000 A 
ATOM      5  C   UNL     1       0.967   2.897  18.851  0.00  0.00    +0.000 A 
ATOM      6  C   UNL     1       0.612   2.865  20.199  0.00  0.00    +0.000 A 
ATOM      7  C   UNL     1       1.360   3.572  21.140  0.00  0.00    +0.000 A 
ATOM      8  C   UNL     1       2.424   4.370  20.726  0.00  0.00    +0.000 A 
ATOM      9  C   UNL     1       2.759   4.450  19.366  0.00  0.00    +0.000 A 
ATOM     10  C   UNL     1       3.719   5.542  18.867  0.00  0.00    +0.000 C 
ENDROOT
BRANCH  10  11
ATOM     11  C   UNL     1       2.948   6.873  18.859  0.00  0.00    +0.000 A 
ATOM     12  C   UNL     1       2.337   7.343  20.031  0.00  0.00    +0.000 A 
ATOM     13  C   UNL     1       1.499   8.462  19.998  0.00  0.00    +0.000 A 
ATOM     14  C   UNL     1       1.270   9.137  18.800  0.00  0.00    +0.000 A 
ATOM     15  C   UNL     1       1.906   8.717  17.638  0.00  0.00    +0.000 A 
ATOM     16  C   UNL     1       2.743   7.602  17.670  0.00  0.00    +0.000 A 
ENDBRANCH  10  11
BRANCH   1  18
ATOM     17  O   UNL     1       5.952   7.121  17.956  0.00  0.00    +0.000 OA
ATOM     18  S   UNL     1       5.519   6.227  16.897  0.00  0.00    +0.000 S 
ATOM     19  O   UNL     1       4.985   6.747  15.664  0.00  0.00    +0.000 OA
BRANCH  18  20
ATOM     20  C   UNL     1       6.820   5.053  16.557  0.00  0.00    +0.000 C 
BRANCH  20  21
ATOM     21  C   UNL     1       7.300   4.986  15.159  0.00  0.00    +0.000 A 
ATOM     22  N   UNL     1       8.306   5.792  14.782  0.00  0.00    +0.000 NA
ATOM     23  O   UNL     1       8.371   5.704  13.405  0.00  0.00    +0.000 OA
ATOM     24  C   UNL     1       7.409   4.859  12.958  0.00  0.00    +0.000 A 
ATOM     25  C   UNL     1       7.129   4.573  11.624  0.00  0.00    +0.000 A 
ATOM     26  C   UNL     1       6.085   3.673  11.391  0.00  0.00    +0.000 A 
ATOM     27  C   UNL     1       5.374   3.104  12.450  0.00  0.00    +0.000 A 
ATOM     28  C   UNL     1       5.668   3.433  13.783  0.00  0.00    +0.000 A 
ATOM     29  C   UNL     1       6.716   4.336  14.037  0.00  0.00    +0.000 A 
ENDBRANCH  20  21
ENDBRANCH  18  20
ENDBRANCH   1  18
TORSDOF 4
ENDMDL
MODEL 2
REMARK VINA RESULT:      -8.9      0.996      1.140
REMARK  Name = 
REMARK  4 active torsions:
REMARK  status: ('A' for Active; 'I' for Inactive)
REMARK    1  A    between atoms: S_2  and  C_4
REMARK    2  A    between atoms: S_2  and  N_14
REMARK    3  A    between atoms: C_4  and  C_5
REMARK    4  A    between atoms: C_23  and  C_24
REMARK                            x       y       z     vdW  Elec       q    Type
REMARK                         _______ _______ _______ _____ _____    ______ ____
ROOT
ATOM      1  N   UNL     1       4.843   4.413  18.204  0.00  0.00    +0.000 NA
ATOM      2  C   UNL     1       4.534   3.203  17.417  0.00  0.00    +0.000 C 
ATOM      3  C   UNL     1       3.038   3.060  17.145  0.00  0.00    +0.000 C 
ATOM      4  C   UNL     1       2.271   3.076  18.439  0.00  0.00    +0.000 A 
ATOM      5  C   UNL     1       1.040   2.427  18.559  0.00  0.00    +0.000 A 
ATOM      6  C   UNL     1       0.362   2.434  19.778  0.00  0.00    +0.000 A 
ATOM      7  C   UNL     1       0.914   3.075  20.885  0.00  0.00    +0.000 A 
ATOM      8  C   UNL     1       2.114   3.772  20.760  0.00  0.00    +0.000 A 
ATOM      9  C   UNL     1       2.780   3.814  19.525  0.00  0.00    +0.000 A 
ATOM     10  C   UNL     1       3.926   4.813  19.297  0.00  0.00    +0.000 C 
ENDROOT
BRANCH  10  11
ATOM     11  C   UNL     1       3.302   6.208  19.122  0.00  0.00    +0.000 A 
ATOM     12  C   UNL     1       2.628   6.819  20.190  0.00  0.00    +0.000 A 
ATOM     13  C   UNL     1       1.918   8.008  19.997  0.00  0.00    +0.000 A 
ATOM     14  C   UNL     1       1.882   8.613  18.741  0.00  0.00    +0.000 A 
ATOM     15  C   UNL     1       2.585   8.050  17.683  0.00  0.00    +0.000 A 
ATOM     16  C   UNL     1       3.295   6.865  17.874  0.00  0.00    +0.000 A 
ENDBRANCH  10  11
BRANCH   1  18
ATOM     17  O   UNL     1       7.312   4.382  17.745  0.00  0.00    +0.000 OA
ATOM     18  S   UNL     1       6.209   5.322  17.842  0.00  0.00    +0.000 S 
ATOM     19  O   UNL     1       6.267   6.436  18.756  0.00  0.00    +0.000 OA
BRANCH  18  20
ATOM     20  C   UNL     1       5.783   5.892  16.205  0.00  0.00    +0.000 C 
BRANCH  20  21
ATOM     21  C   UNL     1       6.594   5.357  15.088  0.00  0.00    +0.000 A 
ATOM     22  N   UNL     1       7.830   5.844  14.896  0.00  0.00    +0.000 NA
ATOM     23  O   UNL     1       8.243   5.365  13.667  0.00  0.00    +0.000 OA
ATOM     24  C   UNL     1       7.261   4.603  13.124  0.00  0.00    +0.000 A 
ATOM     25  C   UNL     1       7.293   4.007  11.866  0.00  0.00    +0.000 A 
ATOM     26  C   UNL     1       6.164   3.266  11.505  0.00  0.00    +0.000 A 
ATOM     27  C   UNL     1       5.074   3.144  12.371  0.00  0.00    +0.000 A 
ATOM     28  C   UNL     1       5.067   3.779  13.623  0.00  0.00    +0.000 A 
ATOM     29  C   UNL     1       6.195   4.527  14.004  0.00  0.00    +0.000 A 
ENDBRANCH  20  21
ENDBRANCH  18  20
ENDBRANCH   1  18
TORSDOF 4
ENDMDL
MODEL 3
REMARK VINA RESULT:      -8.7      4.024      6.861
REMARK  Name = 
REMARK  4 active torsions:
REMARK  status: ('A' for Active; 'I' for Inactive)
REMARK    1  A    between atoms: S_2  and  C_4
REMARK    2  A    between atoms: S_2  and  N_14
REMARK    3  A    between atoms: C_4  and  C_5
REMARK    4  A    between atoms: C_23  and  C_24
REMARK                            x       y       z     vdW  Elec       q    Type
REMARK                         _______ _______ _______ _____ _____    ______ ____
ROOT
ATOM      1  N   UNL     1       1.187   9.237  19.579  0.00  0.00    +0.000 NA
ATOM      2  C   UNL     1       1.287   8.487  20.846  0.00  0.00    +0.000 C 
ATOM      3  C   UNL     1       0.003   8.577  21.669  0.00  0.00    +0.000 C 
ATOM      4  C   UNL     1      -0.355  10.016  21.917  0.00  0.00    +0.000 A 
ATOM      5  C   UNL     1      -1.087  10.396  23.045  0.00  0.00    +0.000 A 
ATOM      6  C   UNL     1      -1.383  11.741  23.266  0.00  0.00    +0.000 A 
ATOM      7  C   UNL     1      -0.938  12.714  22.372  0.00  0.00    +0.000 A 
ATOM      8  C   UNL     1      -0.255  12.339  21.217  0.00  0.00    +0.000 A 
ATOM      9  C   UNL     1       0.004  10.984  20.959  0.00  0.00    +0.000 A 
ATOM     10  C   UNL     1       0.477  10.537  19.567  0.00  0.00    +0.000 C 
ENDROOT
BRANCH  10  11
ATOM     11  C   UNL     1      -0.734  10.590  18.621  0.00  0.00    +0.000 A 
ATOM     12  C   UNL     1      -0.965  11.725  17.831  0.00  0.00    +0.000 A 
ATOM     13  C   UNL     1      -2.148  11.852  17.095  0.00  0.00    +0.000 A 
ATOM     14  C   UNL     1      -3.109  10.843  17.124  0.00  0.00    +0.000 A 
ATOM     15  C   UNL     1      -2.876   9.688  17.860  0.00  0.00    +0.000 A 
ATOM     16  C   UNL     1      -1.697   9.560  18.594  0.00  0.00    +0.000 A 
ENDBRANCH  10  11
BRANCH   1  18
ATOM     17  O   UNL     1       2.483   9.716  17.481  0.00  0.00    +0.000 OA
ATOM     18  S   UNL     1       1.860   8.603  18.174  0.00  0.00    +0.000 S 
ATOM     19  O   UNL     1       0.863   7.791  17.522  0.00  0.00    +0.000 OA
BRANCH  18  20
ATOM     20  C   UNL     1       3.133   7.567  18.876  0.00  0.00    +0.000 C 
BRANCH  20  21
ATOM     21  C   UNL     1       3.098   6.135  18.505  0.00  0.00    +0.000 A 
ATOM     22  N   UNL     1       3.689   5.748  17.364  0.00  0.00    +0.000 NA
ATOM     23  O   UNL     1       3.290   4.443  17.149  0.00  0.00    +0.000 OA
ATOM     24  C   UNL     1       2.461   4.052  18.149  0.00  0.00    +0.000 A 
ATOM     25  C   UNL     1       1.810   2.824  18.235  0.00  0.00    +0.000 A 
ATOM     26  C   UNL     1       0.994   2.635  19.355  0.00  0.00    +0.000 A 
ATOM     27  C   UNL     1       0.852   3.635  20.321  0.00  0.00    +0.000 A 
ATOM     28  C   UNL     1       1.504   4.871  20.188  0.00  0.00    +0.000 A 
ATOM     29  C   UNL     1       2.331   5.078  19.069  0.00  0.00    +0.000 A 
ENDBRANCH  20  21
ENDBRANCH  18  20
ENDBRANCH   1  18
TORSDOF 4
ENDMDL
MODEL 4
REMARK VINA RESULT:      -8.3      3.668      6.446
REMARK  Name = 
REMARK  4 active torsions:
REMARK  status: ('A' for Active; 'I' for Inactive)
REMARK    1  A    between atoms: S_2  and  C_4
REMARK    2  A    between atoms: S_2  and  N_14
REMARK    3  A    between atoms: C_4  and  C_5
REMARK    4  A    between atoms: C_23  and  C_24
REMARK                            x       y       z     vdW  Elec       q    Type
REMARK                         _______ _______ _______ _____ _____    ______ ____
ROOT
ATOM      1  N   UNL     1       0.994   9.603  19.550  0.00  0.00    +0.000 NA
ATOM      2  C   UNL     1       1.182   8.877  20.822  0.00  0.00    +0.000 C 
ATOM      3  C   UNL     1      -0.077   8.898  21.687  0.00  0.00    +0.000 C 
ATOM      4  C   UNL     1      -0.515  10.316  21.931  0.00  0.00    +0.000 A 
ATOM      5  C   UNL     1      -1.232  10.665  23.078  0.00  0.00    +0.000 A 
ATOM      6  C   UNL     1      -1.603  11.992  23.294  0.00  0.00    +0.000 A 
ATOM      7  C   UNL     1      -1.248  12.978  22.376  0.00  0.00    +0.000 A 
ATOM      8  C   UNL     1      -0.583  12.631  21.202  0.00  0.00    +0.000 A 
ATOM      9  C   UNL     1      -0.249  11.292  20.950  0.00  0.00    +0.000 A 
ATOM     10  C   UNL     1       0.206  10.857  19.548  0.00  0.00    +0.000 C 
ENDROOT
BRANCH  10  11
ATOM     11  C   UNL     1      -1.038  10.822  18.643  0.00  0.00    +0.000 A 
ATOM     12  C   UNL     1      -1.942   9.753  18.725  0.00  0.00    +0.000 A 
ATOM     13  C   UNL     1      -2.982   9.627  17.799  0.00  0.00    +0.000 A 
ATOM     14  C   UNL     1      -3.145  10.573  16.789  0.00  0.00    +0.000 A 
ATOM     15  C   UNL     1      -2.291  11.667  16.721  0.00  0.00    +0.000 A 
ATOM     16  C   UNL     1      -1.254  11.794  17.645  0.00  0.00    +0.000 A 
ENDBRANCH  10  11
BRANCH   1  18
ATOM     17  O   UNL     1       2.298  10.114  17.465  0.00  0.00    +0.000 OA
ATOM     18  S   UNL     1       1.658   8.993  18.131  0.00  0.00    +0.000 S 
ATOM     19  O   UNL     1       0.651   8.212  17.459  0.00  0.00    +0.000 OA
BRANCH  18  20
ATOM     20  C   UNL     1       2.917   7.923  18.808  0.00  0.00    +0.000 C 
BRANCH  20  21
ATOM     21  C   UNL     1       3.007   6.563  18.230  0.00  0.00    +0.000 A 
ATOM     22  N   UNL     1       2.284   5.577  18.783  0.00  0.00    +0.000 NA
ATOM     23  O   UNL     1       2.747   4.402  18.223  0.00  0.00    +0.000 OA
ATOM     24  C   UNL     1       3.744   4.680  17.345  0.00  0.00    +0.000 A 
ATOM     25  C   UNL     1       4.493   3.743  16.639  0.00  0.00    +0.000 A 
ATOM     26  C   UNL     1       5.479   4.254  15.790  0.00  0.00    +0.000 A 
ATOM     27  C   UNL     1       5.687   5.631  15.672  0.00  0.00    +0.000 A 
ATOM     28  C   UNL     1       4.927   6.546  16.418  0.00  0.00    +0.000 A 
ATOM     29  C   UNL     1       3.929   6.050  17.277  0.00  0.00    +0.000 A 
ENDBRANCH  20  21
ENDBRANCH  18  20
ENDBRANCH   1  18
TORSDOF 4
ENDMDL
MODEL 5
REMARK VINA RESULT:      -8.2      4.061      8.055
REMARK  Name = 
REMARK  4 active torsions:
REMARK  status: ('A' for Active; 'I' for Inactive)
REMARK    1  A    between atoms: S_2  and  C_4
REMARK    2  A    between atoms: S_2  and  N_14
REMARK    3  A    between atoms: C_4  and  C_5
REMARK    4  A    between atoms: C_23  and  C_24
REMARK                            x       y       z     vdW  Elec       q    Type
REMARK                         _______ _______ _______ _____ _____    ______ ____
ROOT
ATOM      1  N   UNL     1       2.306   7.597  19.716  0.00  0.00    +0.000 NA
ATOM      2  C   UNL     1       2.532   8.372  18.480  0.00  0.00    +0.000 C 
ATOM      3  C   UNL     1       2.775   7.469  17.273  0.00  0.00    +0.000 C 
ATOM      4  C   UNL     1       3.922   6.535  17.545  0.00  0.00    +0.000 A 
ATOM      5  C   UNL     1       4.707   6.029  16.505  0.00  0.00    +0.000 A 
ATOM      6  C   UNL     1       5.782   5.186  16.788  0.00  0.00    +0.000 A 
ATOM      7  C   UNL     1       6.087   4.855  18.107  0.00  0.00    +0.000 A 
ATOM      8  C   UNL     1       5.277   5.309  19.145  0.00  0.00    +0.000 A 
ATOM      9  C   UNL     1       4.163   6.117  18.868  0.00  0.00    +0.000 A 
ATOM     10  C   UNL     1       3.102   6.370  19.952  0.00  0.00    +0.000 C 
ENDROOT
BRANCH  10  11
ATOM     11  C   UNL     1       2.264   5.089  20.094  0.00  0.00    +0.000 A 
ATOM     12  C   UNL     1       2.225   4.402  21.317  0.00  0.00    +0.000 A 
ATOM     13  C   UNL     1       1.604   3.153  21.412  0.00  0.00    +0.000 A 
ATOM     14  C   UNL     1       0.999   2.578  20.296  0.00  0.00    +0.000 A 
ATOM     15  C   UNL     1       0.983   3.265  19.088  0.00  0.00    +0.000 A 
ATOM     16  C   UNL     1       1.601   4.511  18.991  0.00  0.00    +0.000 A 
ENDBRANCH  10  11
BRANCH   1  18
ATOM     17  O   UNL     1       1.874   8.588  21.984  0.00  0.00    +0.000 OA
ATOM     18  S   UNL     1       1.147   8.105  20.823  0.00  0.00    +0.000 S 
ATOM     19  O   UNL     1       0.158   7.064  20.951  0.00  0.00    +0.000 OA
BRANCH  18  20
ATOM     20  C   UNL     1       0.462   9.499  19.944  0.00  0.00    +0.000 C 
BRANCH  20  21
ATOM     21  C   UNL     1       0.820  10.841  20.452  0.00  0.00    +0.000 A 
ATOM     22  N   UNL     1       0.357  11.222  21.654  0.00  0.00    +0.000 NA
ATOM     23  O   UNL     1       0.625  12.573  21.757  0.00  0.00    +0.000 OA
ATOM     24  C   UNL     1       1.237  13.002  20.624  0.00  0.00    +0.000 A 
ATOM     25  C   UNL     1       1.598  14.317  20.341  0.00  0.00    +0.000 A 
ATOM     26  C   UNL     1       2.215  14.534  19.105  0.00  0.00    +0.000 A 
ATOM     27  C   UNL     1       2.446  13.479  18.218  0.00  0.00    +0.000 A 
ATOM     28  C   UNL     1       2.046  12.170  18.528  0.00  0.00    +0.000 A 
ATOM     29  C   UNL     1       1.425  11.931  19.768  0.00  0.00    +0.000 A 
ENDBRANCH  20  21
ENDBRANCH  18  20
ENDBRANCH   1  18
TORSDOF 4
ENDMDL
MODEL 6
REMARK VINA RESULT:      -8.1      6.792      9.765
REMARK  Name = 
REMARK  4 active torsions:
REMARK  status: ('A' for Active; 'I' for Inactive)
REMARK    1  A    between atoms: S_2  and  C_4
REMARK    2  A    between atoms: S_2  and  N_14
REMARK    3  A    between atoms: C_4  and  C_5
REMARK    4  A    between atoms: C_23  and  C_24
REMARK                            x       y       z     vdW  Elec       q    Type
REMARK                         _______ _______ _______ _____ _____    ______ ____
ROOT
ATOM      1  N   UNL     1       0.541  12.711  18.755  0.00  0.00    +0.000 NA
ATOM      2  C   UNL     1      -0.510  13.739  18.880  0.00  0.00    +0.000 C 
ATOM      3  C   UNL     1      -1.775  13.190  19.538  0.00  0.00    +0.000 C 
ATOM      4  C   UNL     1      -2.276  11.992  18.780  0.00  0.00    +0.000 A 
ATOM      5  C   UNL     1      -3.631  11.648  18.782  0.00  0.00    +0.000 A 
ATOM      6  C   UNL     1      -4.073  10.547  18.049  0.00  0.00    +0.000 A 
ATOM      7  C   UNL     1      -3.171   9.793  17.300  0.00  0.00    +0.000 A 
ATOM      8  C   UNL     1      -1.812  10.095  17.337  0.00  0.00    +0.000 A 
ATOM      9  C   UNL     1      -1.348  11.169  18.111  0.00  0.00    +0.000 A 
ATOM     10  C   UNL     1       0.153  11.325  18.401  0.00  0.00    +0.000 C 
ENDROOT
BRANCH  10  11
ATOM     11  C   UNL     1       0.539  10.270  19.451  0.00  0.00    +0.000 A 
ATOM     12  C   UNL     1       1.404   9.219  19.113  0.00  0.00    +0.000 A 
ATOM     13  C   UNL     1       1.630   8.167  20.006  0.00  0.00    +0.000 A 
ATOM     14  C   UNL     1       1.010   8.156  21.254  0.00  0.00    +0.000 A 
ATOM     15  C   UNL     1       0.190   9.214  21.628  0.00  0.00    +0.000 A 
ATOM     16  C   UNL     1      -0.036  10.263  20.739  0.00  0.00    +0.000 A 
ENDBRANCH  10  11
BRANCH   1  18
ATOM     17  O   UNL     1       2.935  12.331  18.095  0.00  0.00    +0.000 OA
ATOM     18  S   UNL     1       2.149  13.118  19.029  0.00  0.00    +0.000 S 
ATOM     19  O   UNL     1       2.398  13.046  20.447  0.00  0.00    +0.000 OA
BRANCH  18  20
ATOM     20  C   UNL     1       2.138  14.820  18.492  0.00  0.00    +0.000 C 
BRANCH  20  21
ATOM     21  C   UNL     1       3.272  15.660  18.936  0.00  0.00    +0.000 A 
ATOM     22  N   UNL     1       3.012  16.826  19.549  0.00  0.00    +0.000 NA
ATOM     23  O   UNL     1       4.217  17.499  19.618  0.00  0.00    +0.000 OA
ATOM     24  C   UNL     1       5.190  16.747  19.047  0.00  0.00    +0.000 A 
ATOM     25  C   UNL     1       6.519  17.127  18.874  0.00  0.00    +0.000 A 
ATOM     26  C   UNL     1       7.352  16.192  18.252  0.00  0.00    +0.000 A 
ATOM     27  C   UNL     1       6.861  14.954  17.832  0.00  0.00    +0.000 A 
ATOM     28  C   UNL     1       5.509  14.614  18.001  0.00  0.00    +0.000 A 
ATOM     29  C   UNL     1       4.655  15.541  18.627  0.00  0.00    +0.000 A 
ENDBRANCH  20  21
ENDBRANCH  18  20
ENDBRANCH   1  18
TORSDOF 4
ENDMDL
MODEL 7
REMARK VINA RESULT:      -8.1      2.759      6.409
REMARK  Name = 
REMARK  4 active torsions:
REMARK  status: ('A' for Active; 'I' for Inactive)
REMARK    1  A    between atoms: S_2  and  C_4
REMARK    2  A    between atoms: S_2  and  N_14
REMARK    3  A    between atoms: C_4  and  C_5
REMARK    4  A    between atoms: C_23  and  C_24
REMARK                            x       y       z     vdW  Elec       q    Type
REMARK                         _______ _______ _______ _____ _____    ______ ____
ROOT
ATOM      1  N   UNL     1       6.264   5.002  16.699  0.00  0.00    +0.000 NA
ATOM      2  C   UNL     1       7.532   4.554  17.306  0.00  0.00    +0.000 C 
ATOM      3  C   UNL     1       7.841   5.295  18.605  0.00  0.00    +0.000 C 
ATOM      4  C   UNL     1       7.848   6.780  18.368  0.00  0.00    +0.000 A 
ATOM      5  C   UNL     1       8.615   7.637  19.161  0.00  0.00    +0.000 A 
ATOM      6  C   UNL     1       8.626   9.007  18.902  0.00  0.00    +0.000 A 
ATOM      7  C   UNL     1       7.883   9.527  17.843  0.00  0.00    +0.000 A 
ATOM      8  C   UNL     1       7.072   8.688  17.082  0.00  0.00    +0.000 A 
ATOM      9  C   UNL     1       7.015   7.315  17.366  0.00  0.00    +0.000 A 
ATOM     10  C   UNL     1       5.913   6.441  16.745  0.00  0.00    +0.000 C 
ENDROOT
BRANCH  10  11
ATOM     11  C   UNL     1       4.600   6.751  17.482  0.00  0.00    +0.000 A 
ATOM     12  C   UNL     1       3.728   7.734  16.989  0.00  0.00    +0.000 A 
ATOM     13  C   UNL     1       2.617   8.138  17.735  0.00  0.00    +0.000 A 
ATOM     14  C   UNL     1       2.350   7.559  18.975  0.00  0.00    +0.000 A 
ATOM     15  C   UNL     1       3.173   6.548  19.457  0.00  0.00    +0.000 A 
ATOM     16  C   UNL     1       4.280   6.143  18.713  0.00  0.00    +0.000 A 
ENDBRANCH  10  11
BRANCH   1  18
ATOM     17  O   UNL     1       6.038   3.138  15.030  0.00  0.00    +0.000 OA
ATOM     18  S   UNL     1       5.234   3.881  15.984  0.00  0.00    +0.000 S 
ATOM     19  O   UNL     1       4.038   4.568  15.566  0.00  0.00    +0.000 OA
BRANCH  18  20
ATOM     20  C   UNL     1       4.884   2.837  17.389  0.00  0.00    +0.000 C 
BRANCH  20  21
ATOM     21  C   UNL     1       3.479   2.803  17.852  0.00  0.00    +0.000 A 
ATOM     22  N   UNL     1       2.498   3.007  16.958  0.00  0.00    +0.000 NA
ATOM     23  O   UNL     1       1.339   3.173  17.691  0.00  0.00    +0.000 OA
ATOM     24  C   UNL     1       1.622   3.075  19.015  0.00  0.00    +0.000 A 
ATOM     25  C   UNL     1       0.716   3.252  20.057  0.00  0.00    +0.000 A 
ATOM     26  C   UNL     1       1.228   3.110  21.351  0.00  0.00    +0.000 A 
ATOM     27  C   UNL     1       2.576   2.809  21.564  0.00  0.00    +0.000 A 
ATOM     28  C   UNL     1       3.466   2.662  20.489  0.00  0.00    +0.000 A 
ATOM     29  C   UNL     1       2.968   2.799  19.180  0.00  0.00    +0.000 A 
ENDBRANCH  20  21
ENDBRANCH  18  20
ENDBRANCH   1  18
TORSDOF 4
ENDMDL
MODEL 8
REMARK VINA RESULT:      -8.0      3.873      6.857
REMARK  Name = 
REMARK  4 active torsions:
REMARK  status: ('A' for Active; 'I' for Inactive)
REMARK    1  A    between atoms: S_2  and  C_4
REMARK    2  A    between atoms: S_2  and  N_14
REMARK    3  A    between atoms: C_4  and  C_5
REMARK    4  A    between atoms: C_23  and  C_24
REMARK                            x       y       z     vdW  Elec       q    Type
REMARK                         _______ _______ _______ _____ _____    ______ ____
ROOT
ATOM      1  N   UNL     1       0.826   9.936  19.437  0.00  0.00    +0.000 NA
ATOM      2  C   UNL     1       1.023   9.493  20.831  0.00  0.00    +0.000 C 
ATOM      3  C   UNL     1      -0.260   9.597  21.654  0.00  0.00    +0.000 C 
ATOM      4  C   UNL     1      -0.798  11.000  21.602  0.00  0.00    +0.000 A 
ATOM      5  C   UNL     1      -1.570  11.519  22.644  0.00  0.00    +0.000 A 
ATOM      6  C   UNL     1      -2.034  12.833  22.583  0.00  0.00    +0.000 A 
ATOM      7  C   UNL     1      -1.718  13.639  21.491  0.00  0.00    +0.000 A 
ATOM      8  C   UNL     1      -0.996  13.113  20.422  0.00  0.00    +0.000 A 
ATOM      9  C   UNL     1      -0.567  11.777  20.450  0.00  0.00    +0.000 A 
ATOM     10  C   UNL     1      -0.044  11.105  19.170  0.00  0.00    +0.000 C 
ENDROOT
BRANCH  10  11
ATOM     11  C   UNL     1      -1.254  10.804  18.271  0.00  0.00    +0.000 A 
ATOM     12  C   UNL     1      -1.516  11.601  17.147  0.00  0.00    +0.000 A 
ATOM     13  C   UNL     1      -2.700  11.441  16.420  0.00  0.00    +0.000 A 
ATOM     14  C   UNL     1      -3.632  10.474  16.794  0.00  0.00    +0.000 A 
ATOM     15  C   UNL     1      -3.367   9.640  17.873  0.00  0.00    +0.000 A 
ATOM     16  C   UNL     1      -2.187   9.798  18.599  0.00  0.00    +0.000 A 
ENDBRANCH  10  11
BRANCH   1  18
ATOM     17  O   UNL     1       2.519  10.029  17.583  0.00  0.00    +0.000 OA
ATOM     18  S   UNL     1       1.571   9.105  18.180  0.00  0.00    +0.000 S 
ATOM     19  O   UNL     1       0.547   8.480  17.381  0.00  0.00    +0.000 OA
BRANCH  18  20
ATOM     20  C   UNL     1       2.466   7.870  19.107  0.00  0.00    +0.000 C 
BRANCH  20  21
ATOM     21  C   UNL     1       2.676   6.566  18.439  0.00  0.00    +0.000 A 
ATOM     22  N   UNL     1       1.984   5.500  18.870  0.00  0.00    +0.000 NA
ATOM     23  O   UNL     1       2.553   4.400  18.257  0.00  0.00    +0.000 OA
ATOM     24  C   UNL     1       3.582   4.802  17.469  0.00  0.00    +0.000 A 
ATOM     25  C   UNL     1       4.430   3.966  16.747  0.00  0.00    +0.000 A 
ATOM     26  C   UNL     1       5.432   4.598  16.003  0.00  0.00    +0.000 A 
ATOM     27  C   UNL     1       5.560   5.989  16.000  0.00  0.00    +0.000 A 
ATOM     28  C   UNL     1       4.701   6.799  16.760  0.00  0.00    +0.000 A 
ATOM     29  C   UNL     1       3.685   6.182  17.513  0.00  0.00    +0.000 A 
ENDBRANCH  20  21
ENDBRANCH  18  20
ENDBRANCH   1  18
TORSDOF 4
ENDMDL
MODEL 9
REMARK VINA RESULT:      -8.0      4.070      7.554
REMARK  Name = 
REMARK  4 active torsions:
REMARK  status: ('A' for Active; 'I' for Inactive)
REMARK    1  A    between atoms: S_2  and  C_4
REMARK    2  A    between atoms: S_2  and  N_14
REMARK    3  A    between atoms: C_4  and  C_5
REMARK    4  A    between atoms: C_23  and  C_24
REMARK                            x       y       z     vdW  Elec       q    Type
REMARK                         _______ _______ _______ _____ _____    ______ ____
ROOT
ATOM      1  N   UNL     1       0.650  10.194  19.464  0.00  0.00    +0.000 NA
ATOM      2  C   UNL     1       0.788   9.949  20.913  0.00  0.00    +0.000 C 
ATOM      3  C   UNL     1      -0.532  10.141  21.656  0.00  0.00    +0.000 C 
ATOM      4  C   UNL     1      -1.085  11.513  21.388  0.00  0.00    +0.000 A 
ATOM      5  C   UNL     1      -1.912  12.155  22.314  0.00  0.00    +0.000 A 
ATOM      6  C   UNL     1      -2.389  13.439  22.053  0.00  0.00    +0.000 A 
ATOM      7  C   UNL     1      -2.033  14.095  20.875  0.00  0.00    +0.000 A 
ATOM      8  C   UNL     1      -1.256  13.441  19.921  0.00  0.00    +0.000 A 
ATOM      9  C   UNL     1      -0.811  12.130  20.152  0.00  0.00    +0.000 A 
ATOM     10  C   UNL     1      -0.220  11.299  19.001  0.00  0.00    +0.000 C 
ENDROOT
BRANCH  10  11
ATOM     11  C   UNL     1      -1.384  10.855  18.100  0.00  0.00    +0.000 A 
ATOM     12  C   UNL     1      -1.626  11.510  16.883  0.00  0.00    +0.000 A 
ATOM     13  C   UNL     1      -2.774  11.226  16.137  0.00  0.00    +0.000 A 
ATOM     14  C   UNL     1      -3.689  10.274  16.585  0.00  0.00    +0.000 A 
ATOM     15  C   UNL     1      -3.442   9.578  17.761  0.00  0.00    +0.000 A 
ATOM     16  C   UNL     1      -2.297   9.859  18.506  0.00  0.00    +0.000 A 
ENDBRANCH  10  11
BRANCH   1  18
ATOM     17  O   UNL     1       2.502  10.036  17.774  0.00  0.00    +0.000 OA
ATOM     18  S   UNL     1       1.463   9.212  18.368  0.00  0.00    +0.000 S 
ATOM     19  O   UNL     1       0.485   8.549  17.543  0.00  0.00    +0.000 OA
BRANCH  18  20
ATOM     20  C   UNL     1       2.215   8.045  19.489  0.00  0.00    +0.000 C 
BRANCH  20  21
ATOM     21  C   UNL     1       2.595   6.733  18.919  0.00  0.00    +0.000 A 
ATOM     22  N   UNL     1       3.352   6.704  17.811  0.00  0.00    +0.000 NA
ATOM     23  O   UNL     1       3.336   5.395  17.369  0.00  0.00    +0.000 OA
ATOM     24  C   UNL     1       2.570   4.645  18.201  0.00  0.00    +0.000 A 
ATOM     25  C   UNL     1       2.269   3.296  18.037  0.00  0.00    +0.000 A 
ATOM     26  C   UNL     1       1.452   2.722  19.016  0.00  0.00    +0.000 A 
ATOM     27  C   UNL     1       0.973   3.478  20.090  0.00  0.00    +0.000 A 
ATOM     28  C   UNL     1       1.278   4.843  20.210  0.00  0.00    +0.000 A 
ATOM     29  C   UNL     1       2.100   5.437  19.235  0.00  0.00    +0.000 A 
ENDBRANCH  20  21
ENDBRANCH  18  20
ENDBRANCH   1  18
TORSDOF 4
ENDMDL
