MODEL 1
REMARK VINA RESULT:      -9.1      0.000      0.000
REMARK  Name = 
REMARK  6 active torsions:
REMARK  status: ('A' for Active; 'I' for Inactive)
REMARK    1  A    between atoms: C_2  and  C_3
REMARK    2  A    between atoms: N_5  and  C_6
REMARK    3  A    between atoms: C_6  and  C_7
REMARK    4  A    between atoms: C_14  and  C_15
REMARK    5  A    between atoms: C_24  and  O_25
REMARK    6  A    between atoms: C_24  and  C_26
REMARK                            x       y       z     vdW  Elec       q    Type
REMARK                         _______ _______ _______ _____ _____    ______ ____
ROOT
ATOM      1  C   UNL     1       3.729   6.343  18.195  0.00  0.00    +0.000 A 
ATOM      2  C   UNL     1       3.624   7.678  17.844  0.00  0.00    +0.000 A 
ATOM      3  N   UNL     1       2.335   8.042  18.083  0.00  0.00    +0.000 N 
ATOM      4  N   UNL     1       1.560   7.023  18.479  0.00  0.00    +0.000 NA
ATOM      5  C   UNL     1       2.388   5.964  18.552  0.00  0.00    +0.000 A 
ENDROOT
BRANCH   1   7
ATOM      6  O   UNL     1       5.152   4.687  19.002  0.00  0.00    +0.000 OA
ATOM      7  C   UNL     1       4.917   5.503  18.115  0.00  0.00    +0.000 C 
ATOM      8  N   UNL     1       5.788   5.658  17.029  0.00  0.00    +0.000 N 
ATOM      9  C   UNL     1       6.934   4.765  16.906  0.00  0.00    +0.000 C 
ATOM     10  C   UNL     1       6.783   3.906  15.653  0.00  0.00    +0.000 C 
ATOM     11  C   UNL     1       6.540   4.755  14.390  0.00  0.00    +0.000 C 
ATOM     12  C   UNL     1       5.430   5.803  14.626  0.00  0.00    +0.000 C 
ATOM     13  C   UNL     1       5.665   6.593  15.913  0.00  0.00    +0.000 C 
BRANCH  11  14
ATOM     14  C   UNL     1       6.184   3.843  13.180  0.00  0.00    +0.000 C 
ATOM     15  F   UNL     1       6.890   4.155  12.071  0.00  0.00    +0.000 F 
ATOM     16  F   UNL     1       6.377   2.532  13.434  0.00  0.00    +0.000 F 
ATOM     17  F   UNL     1       4.872   4.001  12.860  0.00  0.00    +0.000 F 
ENDBRANCH  11  14
BRANCH  11  18
ATOM     18  O   UNL     1       7.762   5.502  14.144  0.00  0.00    +0.000 OA
ATOM     19  H   UNL     1       7.608   6.081  13.371  0.00  0.00    +0.000 HD
ENDBRANCH  11  18
ENDBRANCH   1   7
BRANCH   5  20
ATOM     20  C   UNL     1       1.858   4.676  19.020  0.00  0.00    +0.000 A 
ATOM     21  C   UNL     1       1.660   4.458  20.394  0.00  0.00    +0.000 A 
ATOM     22  C   UNL     1       1.236   3.214  20.870  0.00  0.00    +0.000 A 
ATOM     23  C   UNL     1       1.001   2.173  19.977  0.00  0.00    +0.000 A 
ATOM     24  C   UNL     1       1.183   2.377  18.611  0.00  0.00    +0.000 A 
ATOM     25  C   UNL     1       1.612   3.619  18.135  0.00  0.00    +0.000 A 
ENDBRANCH   5  20
BRANCH   3  26
ATOM     26  C   UNL     1       1.787   9.393  18.043  0.00  0.00    +0.000 C 
BRANCH  26  27
ATOM     27  C   UNL     1       1.009   9.728  19.288  0.00  0.00    +0.000 A 
ATOM     28  C   UNL     1      -0.028  10.673  19.251  0.00  0.00    +0.000 A 
ATOM     29  C   UNL     1      -0.756  10.974  20.401  0.00  0.00    +0.000 A 
ATOM     30  C   UNL     1      -0.463  10.326  21.599  0.00  0.00    +0.000 A 
ATOM     31  C   UNL     1       0.556   9.378  21.647  0.00  0.00    +0.000 A 
ATOM     32  C   UNL     1       1.288   9.077  20.497  0.00  0.00    +0.000 A 
ENDBRANCH  26  27
ENDBRANCH   3  26
TORSDOF 6
ENDMDL
MODEL 2
REMARK VINA RESULT:      -9.0      0.081      1.098
REMARK  Name = 
REMARK  6 active torsions:
REMARK  status: ('A' for Active; 'I' for Inactive)
REMARK    1  A    between atoms: C_2  and  C_3
REMARK    2  A    between atoms: N_5  and  C_6
REMARK    3  A    between atoms: C_6  and  C_7
REMARK    4  A    between atoms: C_14  and  C_15
REMARK    5  A    between atoms: C_24  and  O_25
REMARK    6  A    between atoms: C_24  and  C_26
REMARK                            x       y       z     vdW  Elec       q    Type
REMARK                         _______ _______ _______ _____ _____    ______ ____
ROOT
ATOM      1  C   UNL     1       3.706   6.366  18.255  0.00  0.00    +0.000 A 
ATOM      2  C   UNL     1       3.589   7.702  17.909  0.00  0.00    +0.000 A 
ATOM      3  N   UNL     1       2.297   8.054  18.151  0.00  0.00    +0.000 N 
ATOM      4  N   UNL     1       1.532   7.027  18.543  0.00  0.00    +0.000 NA
ATOM      5  C   UNL     1       2.369   5.975  18.611  0.00  0.00    +0.000 A 
ENDROOT
BRANCH   1   7
ATOM      6  O   UNL     1       5.150   4.727  19.061  0.00  0.00    +0.000 OA
ATOM      7  C   UNL     1       4.900   5.537  18.171  0.00  0.00    +0.000 C 
ATOM      8  N   UNL     1       5.762   5.693  17.077  0.00  0.00    +0.000 N 
ATOM      9  C   UNL     1       6.915   4.810  16.951  0.00  0.00    +0.000 C 
ATOM     10  C   UNL     1       6.763   3.942  15.705  0.00  0.00    +0.000 C 
ATOM     11  C   UNL     1       6.503   4.782  14.438  0.00  0.00    +0.000 C 
ATOM     12  C   UNL     1       5.385   5.821  14.676  0.00  0.00    +0.000 C 
ATOM     13  C   UNL     1       5.623   6.620  15.958  0.00  0.00    +0.000 C 
BRANCH  11  14
ATOM     14  C   UNL     1       6.146   3.859  13.237  0.00  0.00    +0.000 C 
ATOM     15  F   UNL     1       6.435   2.562  13.477  0.00  0.00    +0.000 F 
ATOM     16  F   UNL     1       4.845   3.932  12.885  0.00  0.00    +0.000 F 
ATOM     17  F   UNL     1       6.876   4.222  12.149  0.00  0.00    +0.000 F 
ENDBRANCH  11  14
BRANCH  11  18
ATOM     18  O   UNL     1       7.716   5.538  14.179  0.00  0.00    +0.000 OA
ATOM     19  H   UNL     1       8.236   5.049  13.509  0.00  0.00    +0.000 HD
ENDBRANCH  11  18
ENDBRANCH   1   7
BRANCH   5  20
ATOM     20  C   UNL     1       1.849   4.680  19.074  0.00  0.00    +0.000 A 
ATOM     21  C   UNL     1       1.721   4.429  20.450  0.00  0.00    +0.000 A 
ATOM     22  C   UNL     1       1.309   3.177  20.917  0.00  0.00    +0.000 A 
ATOM     23  C   UNL     1       1.016   2.162  20.011  0.00  0.00    +0.000 A 
ATOM     24  C   UNL     1       1.128   2.399  18.643  0.00  0.00    +0.000 A 
ATOM     25  C   UNL     1       1.546   3.649  18.177  0.00  0.00    +0.000 A 
ENDBRANCH   5  20
BRANCH   3  26
ATOM     26  C   UNL     1       1.738   9.400  18.117  0.00  0.00    +0.000 C 
BRANCH  26  27
ATOM     27  C   UNL     1       0.966   9.727  19.368  0.00  0.00    +0.000 A 
ATOM     28  C   UNL     1       1.249   9.068  20.575  0.00  0.00    +0.000 A 
ATOM     29  C   UNL     1       0.543   9.379  21.736  0.00  0.00    +0.000 A 
ATOM     30  C   UNL     1      -0.445  10.361  21.706  0.00  0.00    +0.000 A 
ATOM     31  C   UNL     1      -0.727  11.031  20.518  0.00  0.00    +0.000 A 
ATOM     32  C   UNL     1      -0.024  10.718  19.353  0.00  0.00    +0.000 A 
ENDBRANCH  26  27
ENDBRANCH   3  26
TORSDOF 6
ENDMDL
MODEL 3
REMARK VINA RESULT:      -9.0      0.086      1.227
REMARK  Name = 
REMARK  6 active torsions:
REMARK  status: ('A' for Active; 'I' for Inactive)
REMARK    1  A    between atoms: C_2  and  C_3
REMARK    2  A    between atoms: N_5  and  C_6
REMARK    3  A    between atoms: C_6  and  C_7
REMARK    4  A    between atoms: C_14  and  C_15
REMARK    5  A    between atoms: C_24  and  O_25
REMARK    6  A    between atoms: C_24  and  C_26
REMARK                            x       y       z     vdW  Elec       q    Type
REMARK                         _______ _______ _______ _____ _____    ______ ____
ROOT
ATOM      1  C   UNL     1       3.775   6.327  18.219  0.00  0.00    +0.000 A 
ATOM      2  C   UNL     1       3.635   7.654  17.847  0.00  0.00    +0.000 A 
ATOM      3  N   UNL     1       2.346   7.998  18.114  0.00  0.00    +0.000 N 
ATOM      4  N   UNL     1       1.602   6.972  18.549  0.00  0.00    +0.000 NA
ATOM      5  C   UNL     1       2.451   5.931  18.618  0.00  0.00    +0.000 A 
ENDROOT
BRANCH   1   7
ATOM      6  O   UNL     1       5.241   4.700  19.009  0.00  0.00    +0.000 OA
ATOM      7  C   UNL     1       4.975   5.509  18.122  0.00  0.00    +0.000 C 
ATOM      8  N   UNL     1       5.825   5.673  17.020  0.00  0.00    +0.000 N 
ATOM      9  C   UNL     1       6.984   4.800  16.881  0.00  0.00    +0.000 C 
ATOM     10  C   UNL     1       6.827   3.932  15.636  0.00  0.00    +0.000 C 
ATOM     11  C   UNL     1       6.546   4.770  14.373  0.00  0.00    +0.000 C 
ATOM     12  C   UNL     1       5.422   5.799  14.623  0.00  0.00    +0.000 C 
ATOM     13  C   UNL     1       5.666   6.600  15.902  0.00  0.00    +0.000 C 
BRANCH  11  14
ATOM     14  C   UNL     1       6.185   3.846  13.174  0.00  0.00    +0.000 C 
ATOM     15  F   UNL     1       6.869   4.162  12.052  0.00  0.00    +0.000 F 
ATOM     16  F   UNL     1       6.401   2.539  13.432  0.00  0.00    +0.000 F 
ATOM     17  F   UNL     1       4.867   3.982  12.873  0.00  0.00    +0.000 F 
ENDBRANCH  11  14
BRANCH  11  18
ATOM     18  O   UNL     1       7.750   5.537  14.102  0.00  0.00    +0.000 OA
ATOM     19  H   UNL     1       8.078   5.277  13.217  0.00  0.00    +0.000 HD
ENDBRANCH  11  18
ENDBRANCH   1   7
BRANCH   5  20
ATOM     20  C   UNL     1       1.957   4.642  19.123  0.00  0.00    +0.000 A 
ATOM     21  C   UNL     1       1.540   3.650  18.219  0.00  0.00    +0.000 A 
ATOM     22  C   UNL     1       0.989   2.449  18.675  0.00  0.00    +0.000 A 
ATOM     23  C   UNL     1       0.851   2.224  20.041  0.00  0.00    +0.000 A 
ATOM     24  C   UNL     1       1.269   3.193  20.950  0.00  0.00    +0.000 A 
ATOM     25  C   UNL     1       1.815   4.397  20.494  0.00  0.00    +0.000 A 
ENDBRANCH   5  20
BRANCH   3  26
ATOM     26  C   UNL     1       1.772   9.338  18.065  0.00  0.00    +0.000 C 
BRANCH  26  27
ATOM     27  C   UNL     1       0.986   9.665  19.307  0.00  0.00    +0.000 A 
ATOM     28  C   UNL     1       1.296   9.053  20.531  0.00  0.00    +0.000 A 
ATOM     29  C   UNL     1       0.577   9.366  21.684  0.00  0.00    +0.000 A 
ATOM     30  C   UNL     1      -0.454  10.302  21.628  0.00  0.00    +0.000 A 
ATOM     31  C   UNL     1      -0.764  10.925  20.421  0.00  0.00    +0.000 A 
ATOM     32  C   UNL     1      -0.047  10.611  19.265  0.00  0.00    +0.000 A 
ENDBRANCH  26  27
ENDBRANCH   3  26
TORSDOF 6
ENDMDL
MODEL 4
REMARK VINA RESULT:      -9.0      3.738      7.824
REMARK  Name = 
REMARK  6 active torsions:
REMARK  status: ('A' for Active; 'I' for Inactive)
REMARK    1  A    between atoms: C_2  and  C_3
REMARK    2  A    between atoms: N_5  and  C_6
REMARK    3  A    between atoms: C_6  and  C_7
REMARK    4  A    between atoms: C_14  and  C_15
REMARK    5  A    between atoms: C_24  and  O_25
REMARK    6  A    between atoms: C_24  and  C_26
REMARK                            x       y       z     vdW  Elec       q    Type
REMARK                         _______ _______ _______ _____ _____    ______ ____
ROOT
ATOM      1  C   UNL     1       5.707   4.656  17.148  0.00  0.00    +0.000 A 
ATOM      2  C   UNL     1       6.423   4.261  16.030  0.00  0.00    +0.000 A 
ATOM      3  N   UNL     1       6.163   5.179  15.060  0.00  0.00    +0.000 N 
ATOM      4  N   UNL     1       5.258   6.096  15.425  0.00  0.00    +0.000 NA
ATOM      5  C   UNL     1       4.956   5.797  16.702  0.00  0.00    +0.000 A 
ENDROOT
BRANCH   1   7
ATOM      6  O   UNL     1       6.497   4.257  19.302  0.00  0.00    +0.000 OA
ATOM      7  C   UNL     1       5.661   3.989  18.443  0.00  0.00    +0.000 C 
ATOM      8  N   UNL     1       4.666   3.031  18.680  0.00  0.00    +0.000 N 
ATOM      9  C   UNL     1       4.570   2.422  20.001  0.00  0.00    +0.000 C 
ATOM     10  C   UNL     1       3.245   2.813  20.651  0.00  0.00    +0.000 C 
ATOM     11  C   UNL     1       2.037   2.495  19.749  0.00  0.00    +0.000 C 
ATOM     12  C   UNL     1       2.261   3.014  18.311  0.00  0.00    +0.000 C 
ATOM     13  C   UNL     1       3.621   2.584  17.763  0.00  0.00    +0.000 C 
BRANCH  11  14
ATOM     14  C   UNL     1       0.733   3.097  20.351  0.00  0.00    +0.000 C 
ATOM     15  F   UNL     1       0.740   4.448  20.352  0.00  0.00    +0.000 F 
ATOM     16  F   UNL     1      -0.380   2.692  19.706  0.00  0.00    +0.000 F 
ATOM     17  F   UNL     1       0.609   2.711  21.648  0.00  0.00    +0.000 F 
ENDBRANCH  11  14
BRANCH  11  18
ATOM     18  O   UNL     1       1.953   1.048  19.653  0.00  0.00    +0.000 OA
ATOM     19  H   UNL     1       2.327   0.671  20.475  0.00  0.00    +0.000 HD
ENDBRANCH  11  18
ENDBRANCH   1   7
BRANCH   5  20
ATOM     20  C   UNL     1       4.017   6.661  17.433  0.00  0.00    +0.000 A 
ATOM     21  C   UNL     1       3.466   6.225  18.649  0.00  0.00    +0.000 A 
ATOM     22  C   UNL     1       2.509   6.991  19.320  0.00  0.00    +0.000 A 
ATOM     23  C   UNL     1       2.092   8.206  18.783  0.00  0.00    +0.000 A 
ATOM     24  C   UNL     1       2.637   8.657  17.583  0.00  0.00    +0.000 A 
ATOM     25  C   UNL     1       3.591   7.888  16.909  0.00  0.00    +0.000 A 
ENDBRANCH   5  20
BRANCH   3  26
ATOM     26  C   UNL     1       6.827   5.294  13.767  0.00  0.00    +0.000 C 
BRANCH  26  27
ATOM     27  C   UNL     1       6.455   4.172  12.834  0.00  0.00    +0.000 A 
ATOM     28  C   UNL     1       7.448   3.431  12.174  0.00  0.00    +0.000 A 
ATOM     29  C   UNL     1       7.104   2.385  11.320  0.00  0.00    +0.000 A 
ATOM     30  C   UNL     1       5.762   2.059  11.125  0.00  0.00    +0.000 A 
ATOM     31  C   UNL     1       4.768   2.779  11.782  0.00  0.00    +0.000 A 
ATOM     32  C   UNL     1       5.111   3.830  12.635  0.00  0.00    +0.000 A 
ENDBRANCH  26  27
ENDBRANCH   3  26
TORSDOF 6
ENDMDL
MODEL 5
REMARK VINA RESULT:      -9.0      0.102      1.096
REMARK  Name = 
REMARK  6 active torsions:
REMARK  status: ('A' for Active; 'I' for Inactive)
REMARK    1  A    between atoms: C_2  and  C_3
REMARK    2  A    between atoms: N_5  and  C_6
REMARK    3  A    between atoms: C_6  and  C_7
REMARK    4  A    between atoms: C_14  and  C_15
REMARK    5  A    between atoms: C_24  and  O_25
REMARK    6  A    between atoms: C_24  and  C_26
REMARK                            x       y       z     vdW  Elec       q    Type
REMARK                         _______ _______ _______ _____ _____    ______ ____
ROOT
ATOM      1  C   UNL     1       3.780   6.356  18.228  0.00  0.00    +0.000 A 
ATOM      2  C   UNL     1       3.640   7.681  17.850  0.00  0.00    +0.000 A 
ATOM      3  N   UNL     1       2.350   8.025  18.111  0.00  0.00    +0.000 N 
ATOM      4  N   UNL     1       1.605   7.000  18.546  0.00  0.00    +0.000 NA
ATOM      5  C   UNL     1       2.455   5.960  18.623  0.00  0.00    +0.000 A 
ENDROOT
BRANCH   1   7
ATOM      6  O   UNL     1       5.243   4.732  19.029  0.00  0.00    +0.000 OA
ATOM      7  C   UNL     1       4.982   5.539  18.140  0.00  0.00    +0.000 C 
ATOM      8  N   UNL     1       5.838   5.703  17.042  0.00  0.00    +0.000 N 
ATOM      9  C   UNL     1       6.999   4.831  16.912  0.00  0.00    +0.000 C 
ATOM     10  C   UNL     1       6.850   3.961  15.666  0.00  0.00    +0.000 C 
ATOM     11  C   UNL     1       6.577   4.798  14.401  0.00  0.00    +0.000 C 
ATOM     12  C   UNL     1       5.450   5.826  14.643  0.00  0.00    +0.000 C 
ATOM     13  C   UNL     1       5.685   6.628  15.923  0.00  0.00    +0.000 C 
BRANCH  11  14
ATOM     14  C   UNL     1       6.224   3.872  13.201  0.00  0.00    +0.000 C 
ATOM     15  F   UNL     1       4.935   3.994  12.815  0.00  0.00    +0.000 F 
ATOM     16  F   UNL     1       6.999   4.093  12.119  0.00  0.00    +0.000 F 
ATOM     17  F   UNL     1       6.398   2.572  13.559  0.00  0.00    +0.000 F 
ENDBRANCH  11  14
BRANCH  11  18
ATOM     18  O   UNL     1       7.782   5.566  14.136  0.00  0.00    +0.000 OA
ATOM     19  H   UNL     1       7.509   6.442  13.797  0.00  0.00    +0.000 HD
ENDBRANCH  11  18
ENDBRANCH   1   7
BRANCH   5  20
ATOM     20  C   UNL     1       1.961   4.672  19.130  0.00  0.00    +0.000 A 
ATOM     21  C   UNL     1       1.545   3.678  18.229  0.00  0.00    +0.000 A 
ATOM     22  C   UNL     1       0.994   2.478  18.687  0.00  0.00    +0.000 A 
ATOM     23  C   UNL     1       0.853   2.256  20.054  0.00  0.00    +0.000 A 
ATOM     24  C   UNL     1       1.269   3.228  20.960  0.00  0.00    +0.000 A 
ATOM     25  C   UNL     1       1.816   4.431  20.502  0.00  0.00    +0.000 A 
ENDBRANCH   5  20
BRANCH   3  26
ATOM     26  C   UNL     1       1.774   9.364  18.054  0.00  0.00    +0.000 C 
BRANCH  26  27
ATOM     27  C   UNL     1       1.018   9.711  19.309  0.00  0.00    +0.000 A 
ATOM     28  C   UNL     1      -0.055  10.615  19.270  0.00  0.00    +0.000 A 
ATOM     29  C   UNL     1      -0.763  10.928  20.430  0.00  0.00    +0.000 A 
ATOM     30  C   UNL     1      -0.413  10.331  21.640  0.00  0.00    +0.000 A 
ATOM     31  C   UNL     1       0.643   9.424  21.689  0.00  0.00    +0.000 A 
ATOM     32  C   UNL     1       1.355   9.113  20.530  0.00  0.00    +0.000 A 
ENDBRANCH  26  27
ENDBRANCH   3  26
TORSDOF 6
ENDMDL
MODEL 6
REMARK VINA RESULT:      -8.8      3.748      7.851
REMARK  Name = 
REMARK  6 active torsions:
REMARK  status: ('A' for Active; 'I' for Inactive)
REMARK    1  A    between atoms: C_2  and  C_3
REMARK    2  A    between atoms: N_5  and  C_6
REMARK    3  A    between atoms: C_6  and  C_7
REMARK    4  A    between atoms: C_14  and  C_15
REMARK    5  A    between atoms: C_24  and  O_25
REMARK    6  A    between atoms: C_24  and  C_26
REMARK                            x       y       z     vdW  Elec       q    Type
REMARK                         _______ _______ _______ _____ _____    ______ ____
ROOT
ATOM      1  C   UNL     1       5.700   4.663  17.124  0.00  0.00    +0.000 A 
ATOM      2  C   UNL     1       6.445   4.266  16.026  0.00  0.00    +0.000 A 
ATOM      3  N   UNL     1       6.162   5.146  15.028  0.00  0.00    +0.000 N 
ATOM      4  N   UNL     1       5.218   6.038  15.357  0.00  0.00    +0.000 NA
ATOM      5  C   UNL     1       4.911   5.762  16.638  0.00  0.00    +0.000 A 
ENDROOT
BRANCH   1   7
ATOM      6  O   UNL     1       6.487   4.342  19.292  0.00  0.00    +0.000 OA
ATOM      7  C   UNL     1       5.663   4.031  18.436  0.00  0.00    +0.000 C 
ATOM      8  N   UNL     1       4.690   3.055  18.694  0.00  0.00    +0.000 N 
ATOM      9  C   UNL     1       4.601   2.479  20.031  0.00  0.00    +0.000 C 
ATOM     10  C   UNL     1       3.264   2.855  20.664  0.00  0.00    +0.000 C 
ATOM     11  C   UNL     1       2.069   2.483  19.764  0.00  0.00    +0.000 C 
ATOM     12  C   UNL     1       2.288   2.968  18.314  0.00  0.00    +0.000 C 
ATOM     13  C   UNL     1       3.662   2.558  17.784  0.00  0.00    +0.000 C 
BRANCH  11  14
ATOM     14  C   UNL     1       0.748   3.068  20.342  0.00  0.00    +0.000 C 
ATOM     15  F   UNL     1       0.748   4.419  20.370  0.00  0.00    +0.000 F 
ATOM     16  F   UNL     1      -0.347   2.671  19.661  0.00  0.00    +0.000 F 
ATOM     17  F   UNL     1       0.591   2.656  21.628  0.00  0.00    +0.000 F 
ENDBRANCH  11  14
BRANCH  11  18
ATOM     18  O   UNL     1       2.021   1.032  19.707  0.00  0.00    +0.000 OA
ATOM     19  H   UNL     1       2.914   0.713  19.462  0.00  0.00    +0.000 HD
ENDBRANCH  11  18
ENDBRANCH   1   7
BRANCH   5  20
ATOM     20  C   UNL     1       3.930   6.608  17.333  0.00  0.00    +0.000 A 
ATOM     21  C   UNL     1       3.650   7.897  16.848  0.00  0.00    +0.000 A 
ATOM     22  C   UNL     1       2.785   8.751  17.538  0.00  0.00    +0.000 A 
ATOM     23  C   UNL     1       2.187   8.326  18.721  0.00  0.00    +0.000 A 
ATOM     24  C   UNL     1       2.447   7.048  19.208  0.00  0.00    +0.000 A 
ATOM     25  C   UNL     1       3.316   6.194  18.521  0.00  0.00    +0.000 A 
ENDBRANCH   5  20
BRANCH   3  26
ATOM     26  C   UNL     1       6.838   5.252  13.740  0.00  0.00    +0.000 C 
BRANCH  26  27
ATOM     27  C   UNL     1       6.492   4.111  12.820  0.00  0.00    +0.000 A 
ATOM     28  C   UNL     1       5.153   3.753  12.599  0.00  0.00    +0.000 A 
ATOM     29  C   UNL     1       4.831   2.705  11.738  0.00  0.00    +0.000 A 
ATOM     30  C   UNL     1       5.844   2.010  11.079  0.00  0.00    +0.000 A 
ATOM     31  C   UNL     1       7.176   2.364  11.281  0.00  0.00    +0.000 A 
ATOM     32  C   UNL     1       7.500   3.411  12.146  0.00  0.00    +0.000 A 
ENDBRANCH  26  27
ENDBRANCH   3  26
TORSDOF 6
ENDMDL
MODEL 7
REMARK VINA RESULT:      -8.8      3.749      7.869
REMARK  Name = 
REMARK  6 active torsions:
REMARK  status: ('A' for Active; 'I' for Inactive)
REMARK    1  A    between atoms: C_2  and  C_3
REMARK    2  A    between atoms: N_5  and  C_6
REMARK    3  A    between atoms: C_6  and  C_7
REMARK    4  A    between atoms: C_14  and  C_15
REMARK    5  A    between atoms: C_24  and  O_25
REMARK    6  A    between atoms: C_24  and  C_26
REMARK                            x       y       z     vdW  Elec       q    Type
REMARK                         _______ _______ _______ _____ _____    ______ ____
ROOT
ATOM      1  C   UNL     1       5.718   4.654  17.150  0.00  0.00    +0.000 A 
ATOM      2  C   UNL     1       6.465   4.265  16.052  0.00  0.00    +0.000 A 
ATOM      3  N   UNL     1       6.174   5.143  15.054  0.00  0.00    +0.000 N 
ATOM      4  N   UNL     1       5.223   6.026  15.384  0.00  0.00    +0.000 NA
ATOM      5  C   UNL     1       4.919   5.747  16.665  0.00  0.00    +0.000 A 
ENDROOT
BRANCH   1   7
ATOM      6  O   UNL     1       6.519   4.328  19.312  0.00  0.00    +0.000 OA
ATOM      7  C   UNL     1       5.687   4.022  18.462  0.00  0.00    +0.000 C 
ATOM      8  N   UNL     1       4.712   3.050  18.726  0.00  0.00    +0.000 N 
ATOM      9  C   UNL     1       4.630   2.473  20.063  0.00  0.00    +0.000 C 
ATOM     10  C   UNL     1       3.299   2.855  20.706  0.00  0.00    +0.000 C 
ATOM     11  C   UNL     1       2.096   2.489  19.814  0.00  0.00    +0.000 C 
ATOM     12  C   UNL     1       2.307   2.975  18.363  0.00  0.00    +0.000 C 
ATOM     13  C   UNL     1       3.675   2.559  17.823  0.00  0.00    +0.000 C 
BRANCH  11  14
ATOM     14  C   UNL     1       0.782   3.080  20.403  0.00  0.00    +0.000 C 
ATOM     15  F   UNL     1       0.530   2.636  21.654  0.00  0.00    +0.000 F 
ATOM     16  F   UNL     1       0.780   4.429  20.438  0.00  0.00    +0.000 F 
ATOM     17  F   UNL     1      -0.275   2.697  19.638  0.00  0.00    +0.000 F 
ENDBRANCH  11  14
BRANCH  11  18
ATOM     18  O   UNL     1       2.041   1.039  19.756  0.00  0.00    +0.000 OA
ATOM     19  H   UNL     1       1.140   0.785  19.472  0.00  0.00    +0.000 HD
ENDBRANCH  11  18
ENDBRANCH   1   7
BRANCH   5  20
ATOM     20  C   UNL     1       3.932   6.585  17.362  0.00  0.00    +0.000 A 
ATOM     21  C   UNL     1       3.614   7.857  16.858  0.00  0.00    +0.000 A 
ATOM     22  C   UNL     1       2.742   8.705  17.546  0.00  0.00    +0.000 A 
ATOM     23  C   UNL     1       2.175   8.289  18.747  0.00  0.00    +0.000 A 
ATOM     24  C   UNL     1       2.472   7.027  19.254  0.00  0.00    +0.000 A 
ATOM     25  C   UNL     1       3.349   6.180  18.568  0.00  0.00    +0.000 A 
ENDBRANCH   5  20
BRANCH   3  26
ATOM     26  C   UNL     1       6.848   5.255  13.765  0.00  0.00    +0.000 C 
BRANCH  26  27
ATOM     27  C   UNL     1       6.468   4.142  12.826  0.00  0.00    +0.000 A 
ATOM     28  C   UNL     1       7.457   3.386  12.176  0.00  0.00    +0.000 A 
ATOM     29  C   UNL     1       7.105   2.346  11.316  0.00  0.00    +0.000 A 
ATOM     30  C   UNL     1       5.761   2.044  11.104  0.00  0.00    +0.000 A 
ATOM     31  C   UNL     1       4.772   2.779  11.751  0.00  0.00    +0.000 A 
ATOM     32  C   UNL     1       5.121   3.822  12.611  0.00  0.00    +0.000 A 
ENDBRANCH  26  27
ENDBRANCH   3  26
TORSDOF 6
ENDMDL
MODEL 8
REMARK VINA RESULT:      -8.5      6.509     10.237
REMARK  Name = 
REMARK  6 active torsions:
REMARK  status: ('A' for Active; 'I' for Inactive)
REMARK    1  A    between atoms: C_2  and  C_3
REMARK    2  A    between atoms: N_5  and  C_6
REMARK    3  A    between atoms: C_6  and  C_7
REMARK    4  A    between atoms: C_14  and  C_15
REMARK    5  A    between atoms: C_24  and  O_25
REMARK    6  A    between atoms: C_24  and  C_26
REMARK                            x       y       z     vdW  Elec       q    Type
REMARK                         _______ _______ _______ _____ _____    ______ ____
ROOT
ATOM      1  C   UNL     1       0.548  11.393  18.696  0.00  0.00    +0.000 A 
ATOM      2  C   UNL     1       1.742  10.694  18.765  0.00  0.00    +0.000 A 
ATOM      3  N   UNL     1       1.529   9.501  18.145  0.00  0.00    +0.000 N 
ATOM      4  N   UNL     1       0.260   9.324  17.756  0.00  0.00    +0.000 NA
ATOM      5  C   UNL     1      -0.368  10.468  18.085  0.00  0.00    +0.000 A 
ENDROOT
BRANCH   1   7
ATOM      6  O   UNL     1       0.305  13.698  18.475  0.00  0.00    +0.000 OA
ATOM      7  C   UNL     1       0.276  12.723  19.223  0.00  0.00    +0.000 C 
ATOM      8  N   UNL     1       0.005  12.872  20.590  0.00  0.00    +0.000 N 
ATOM      9  C   UNL     1      -0.345  14.190  21.104  0.00  0.00    +0.000 C 
ATOM     10  C   UNL     1      -1.780  14.175  21.623  0.00  0.00    +0.000 C 
ATOM     11  C   UNL     1      -2.017  13.045  22.644  0.00  0.00    +0.000 C 
ATOM     12  C   UNL     1      -1.475  11.696  22.122  0.00  0.00    +0.000 C 
ATOM     13  C   UNL     1      -0.041  11.827  21.608  0.00  0.00    +0.000 C 
BRANCH  11  14
ATOM     14  C   UNL     1      -3.531  12.930  22.988  0.00  0.00    +0.000 C 
ATOM     15  F   UNL     1      -4.070  14.114  23.354  0.00  0.00    +0.000 F 
ATOM     16  F   UNL     1      -4.267  12.442  21.968  0.00  0.00    +0.000 F 
ATOM     17  F   UNL     1      -3.698  12.088  24.042  0.00  0.00    +0.000 F 
ENDBRANCH  11  14
BRANCH  11  18
ATOM     18  O   UNL     1      -1.234  13.373  23.823  0.00  0.00    +0.000 OA
ATOM     19  H   UNL     1      -1.529  12.788  24.551  0.00  0.00    +0.000 HD
ENDBRANCH  11  18
ENDBRANCH   1   7
BRANCH   5  20
ATOM     20  C   UNL     1      -1.787  10.627  17.737  0.00  0.00    +0.000 A 
ATOM     21  C   UNL     1      -2.266  10.135  16.511  0.00  0.00    +0.000 A 
ATOM     22  C   UNL     1      -3.591  10.347  16.120  0.00  0.00    +0.000 A 
ATOM     23  C   UNL     1      -4.456  11.053  16.953  0.00  0.00    +0.000 A 
ATOM     24  C   UNL     1      -3.998  11.537  18.175  0.00  0.00    +0.000 A 
ATOM     25  C   UNL     1      -2.671  11.330  18.564  0.00  0.00    +0.000 A 
ENDBRANCH   5  20
BRANCH   3  26
ATOM     26  C   UNL     1       2.536   8.503  17.803  0.00  0.00    +0.000 C 
BRANCH  26  27
ATOM     27  C   UNL     1       2.347   7.219  18.567  0.00  0.00    +0.000 A 
ATOM     28  C   UNL     1       2.065   7.241  19.942  0.00  0.00    +0.000 A 
ATOM     29  C   UNL     1       1.878   6.053  20.647  0.00  0.00    +0.000 A 
ATOM     30  C   UNL     1       1.958   4.830  19.983  0.00  0.00    +0.000 A 
ATOM     31  C   UNL     1       2.225   4.796  18.616  0.00  0.00    +0.000 A 
ATOM     32  C   UNL     1       2.417   5.984  17.909  0.00  0.00    +0.000 A 
ENDBRANCH  26  27
ENDBRANCH   3  26
TORSDOF 6
ENDMDL
MODEL 9
REMARK VINA RESULT:      -8.5      6.370     10.082
REMARK  Name = 
REMARK  6 active torsions:
REMARK  status: ('A' for Active; 'I' for Inactive)
REMARK    1  A    between atoms: C_2  and  C_3
REMARK    2  A    between atoms: N_5  and  C_6
REMARK    3  A    between atoms: C_6  and  C_7
REMARK    4  A    between atoms: C_14  and  C_15
REMARK    5  A    between atoms: C_24  and  O_25
REMARK    6  A    between atoms: C_24  and  C_26
REMARK                            x       y       z     vdW  Elec       q    Type
REMARK                         _______ _______ _______ _____ _____    ______ ____
ROOT
ATOM      1  C   UNL     1       0.810  11.196  18.648  0.00  0.00    +0.000 A 
ATOM      2  C   UNL     1       1.981  10.459  18.709  0.00  0.00    +0.000 A 
ATOM      3  N   UNL     1       1.709   9.251  18.143  0.00  0.00    +0.000 N 
ATOM      4  N   UNL     1       0.423   9.104  17.799  0.00  0.00    +0.000 NA
ATOM      5  C   UNL     1      -0.156  10.281  18.101  0.00  0.00    +0.000 A 
ENDROOT
BRANCH   1   7
ATOM      6  O   UNL     1       0.683  13.502  18.352  0.00  0.00    +0.000 OA
ATOM      7  C   UNL     1       0.600  12.554  19.130  0.00  0.00    +0.000 C 
ATOM      8  N   UNL     1       0.324  12.759  20.488  0.00  0.00    +0.000 N 
ATOM      9  C   UNL     1       0.036  14.109  20.957  0.00  0.00    +0.000 C 
ATOM     10  C   UNL     1      -1.403  14.181  21.462  0.00  0.00    +0.000 C 
ATOM     11  C   UNL     1      -1.705  13.097  22.516  0.00  0.00    +0.000 C 
ATOM     12  C   UNL     1      -1.226  11.708  22.042  0.00  0.00    +0.000 C 
ATOM     13  C   UNL     1       0.217  11.751  21.539  0.00  0.00    +0.000 C 
BRANCH  11  14
ATOM     14  C   UNL     1      -3.226  13.068  22.847  0.00  0.00    +0.000 C 
ATOM     15  F   UNL     1      -3.496  12.373  23.973  0.00  0.00    +0.000 F 
ATOM     16  F   UNL     1      -3.758  14.300  22.987  0.00  0.00    +0.000 F 
ATOM     17  F   UNL     1      -3.901  12.451  21.841  0.00  0.00    +0.000 F 
ENDBRANCH  11  14
BRANCH  11  18
ATOM     18  O   UNL     1      -0.917  13.423  23.692  0.00  0.00    +0.000 OA
ATOM     19  H   UNL     1      -0.894  14.398  23.776  0.00  0.00    +0.000 HD
ENDBRANCH  11  18
ENDBRANCH   1   7
BRANCH   5  20
ATOM     20  C   UNL     1      -1.579  10.476  17.789  0.00  0.00    +0.000 A 
ATOM     21  C   UNL     1      -2.112   9.953  16.599  0.00  0.00    +0.000 A 
ATOM     22  C   UNL     1      -3.441  10.196  16.240  0.00  0.00    +0.000 A 
ATOM     23  C   UNL     1      -4.254  10.964  17.068  0.00  0.00    +0.000 A 
ATOM     24  C   UNL     1      -3.743  11.481  18.256  0.00  0.00    +0.000 A 
ATOM     25  C   UNL     1      -2.412  11.242  18.613  0.00  0.00    +0.000 A 
ENDBRANCH   5  20
BRANCH   3  26
ATOM     26  C   UNL     1       2.670   8.206  17.811  0.00  0.00    +0.000 C 
BRANCH  26  27
ATOM     27  C   UNL     1       2.372   6.913  18.521  0.00  0.00    +0.000 A 
ATOM     28  C   UNL     1       2.301   5.706  17.808  0.00  0.00    +0.000 A 
ATOM     29  C   UNL     1       2.037   4.506  18.468  0.00  0.00    +0.000 A 
ATOM     30  C   UNL     1       1.853   4.498  19.849  0.00  0.00    +0.000 A 
ATOM     31  C   UNL     1       1.933   5.687  20.569  0.00  0.00    +0.000 A 
ATOM     32  C   UNL     1       2.193   6.890  19.911  0.00  0.00    +0.000 A 
ENDBRANCH  26  27
ENDBRANCH   3  26
TORSDOF 6
ENDMDL
