MODEL 1
REMARK VINA RESULT:      -8.9      0.000      0.000
REMARK  Name = 
REMARK  7 active torsions:
REMARK  status: ('A' for Active; 'I' for Inactive)
REMARK    1  A    between atoms: C_2  and  C_3
REMARK    2  A    between atoms: C_3  and  C_4
REMARK    3  A    between atoms: C_4  and  C_5
REMARK    4  A    between atoms: N_15  and  C_16
REMARK    5  A    between atoms: C_16  and  C_17
REMARK    6  A    between atoms: C_17  and  C_18
REMARK    7  A    between atoms: C_18  and  C_19
REMARK                            x       y       z     vdW  Elec       q    Type
REMARK                         _______ _______ _______ _____ _____    ______ ____
ROOT
ATOM      1  O   UNL     1       7.680   4.898  17.126  0.00  0.00    +0.000 OA
ATOM      2  C   UNL     1       6.962   5.767  16.641  0.00  0.00    +0.000 C 
ATOM      3  N   UNL     1       7.031   7.094  16.991  0.00  0.00    +0.000 N 
ATOM      4  H   UNL     1       6.440   7.772  16.522  0.00  0.00    +0.000 HD
ENDROOT
BRANCH   2   5
ATOM      5  C   UNL     1       5.918   5.451  15.595  0.00  0.00    +0.000 C 
BRANCH   5   6
ATOM      6  C   UNL     1       5.325   4.073  15.865  0.00  0.00    +0.000 C 
BRANCH   6   7
ATOM      7  C   UNL     1       4.549   4.047  17.138  0.00  0.00    +0.000 A 
ATOM      8  N   UNL     1       3.719   4.971  17.575  0.00  0.00    +0.000 NA
ATOM      9  C   UNL     1       3.213   4.489  18.765  0.00  0.00    +0.000 A 
ATOM     10  C   UNL     1       2.272   5.042  19.654  0.00  0.00    +0.000 A 
ATOM     11  F   UNL     1       1.697   6.226  19.411  0.00  0.00    +0.000 F 
ATOM     12  C   UNL     1       1.917   4.333  20.807  0.00  0.00    +0.000 A 
ATOM     13  C   UNL     1       2.500   3.095  21.084  0.00  0.00    +0.000 A 
ATOM     14  C   UNL     1       3.447   2.527  20.221  0.00  0.00    +0.000 A 
ATOM     15  C   UNL     1       3.776   3.256  19.071  0.00  0.00    +0.000 A 
ATOM     16  N   UNL     1       4.629   3.004  18.027  0.00  0.00    +0.000 N 
ATOM     17  H   UNL     1       5.205   2.182  17.921  0.00  0.00    +0.000 HD
ENDBRANCH   6   7
ENDBRANCH   5   6
ENDBRANCH   2   5
BRANCH   3  18
ATOM     18  C   UNL     1       7.969   7.607  17.969  0.00  0.00    +0.000 C 
BRANCH  18  19
ATOM     19  C   UNL     1       8.190   9.121  17.887  0.00  0.00    +0.000 C 
BRANCH  19  20
ATOM     20  C   UNL     1       9.110   9.673  18.975  0.00  0.00    +0.000 C 
BRANCH  20  21
ATOM     21  C   UNL     1       9.554  11.064  18.687  0.00  0.00    +0.000 A 
ATOM     22  N   UNL     1       9.182  12.156  19.323  0.00  0.00    +0.000 NA
ATOM     23  C   UNL     1       9.803  13.193  18.672  0.00  0.00    +0.000 A 
ATOM     24  C   UNL     1       9.733  14.573  18.906  0.00  0.00    +0.000 A 
ATOM     25  C   UNL     1      10.450  15.434  18.062  0.00  0.00    +0.000 A 
ATOM     26  C   UNL     1      11.229  14.929  17.019  0.00  0.00    +0.000 A 
ATOM     27  C   UNL     1      11.326  13.553  16.783  0.00  0.00    +0.000 A 
ATOM     28  C   UNL     1      10.593  12.720  17.630  0.00  0.00    +0.000 A 
ATOM     29  N   UNL     1      10.438  11.360  17.678  0.00  0.00    +0.000 N 
ATOM     30  H   UNL     1      10.874  10.692  17.060  0.00  0.00    +0.000 HD
ENDBRANCH  20  21
ENDBRANCH  19  20
ENDBRANCH  18  19
ENDBRANCH   3  18
TORSDOF 7
ENDMDL
MODEL 2
REMARK VINA RESULT:      -8.5      1.685      2.519
REMARK  Name = 
REMARK  7 active torsions:
REMARK  status: ('A' for Active; 'I' for Inactive)
REMARK    1  A    between atoms: C_2  and  C_3
REMARK    2  A    between atoms: C_3  and  C_4
REMARK    3  A    between atoms: C_4  and  C_5
REMARK    4  A    between atoms: N_15  and  C_16
REMARK    5  A    between atoms: C_16  and  C_17
REMARK    6  A    between atoms: C_17  and  C_18
REMARK    7  A    between atoms: C_18  and  C_19
REMARK                            x       y       z     vdW  Elec       q    Type
REMARK                         _______ _______ _______ _____ _____    ______ ____
ROOT
ATOM      1  O   UNL     1       6.990   7.463  17.053  0.00  0.00    +0.000 OA
ATOM      2  C   UNL     1       7.687   7.201  18.030  0.00  0.00    +0.000 C 
ATOM      3  N   UNL     1       8.484   8.122  18.665  0.00  0.00    +0.000 N 
ATOM      4  H   UNL     1       9.003   7.854  19.495  0.00  0.00    +0.000 HD
ENDROOT
BRANCH   2   5
ATOM      5  C   UNL     1       7.733   5.815  18.631  0.00  0.00    +0.000 C 
BRANCH   5   6
ATOM      6  C   UNL     1       7.190   4.805  17.627  0.00  0.00    +0.000 C 
BRANCH   6   7
ATOM      7  C   UNL     1       5.831   4.324  18.009  0.00  0.00    +0.000 A 
ATOM      8  N   UNL     1       5.486   3.755  19.145  0.00  0.00    +0.000 NA
ATOM      9  C   UNL     1       4.128   3.525  19.053  0.00  0.00    +0.000 A 
ATOM     10  C   UNL     1       3.226   2.964  19.977  0.00  0.00    +0.000 A 
ATOM     11  F   UNL     1       3.634   2.550  21.183  0.00  0.00    +0.000 F 
ATOM     12  C   UNL     1       1.875   2.850  19.635  0.00  0.00    +0.000 A 
ATOM     13  C   UNL     1       1.423   3.275  18.384  0.00  0.00    +0.000 A 
ATOM     14  C   UNL     1       2.301   3.828  17.442  0.00  0.00    +0.000 A 
ATOM     15  C   UNL     1       3.646   3.936  17.816  0.00  0.00    +0.000 A 
ATOM     16  N   UNL     1       4.751   4.429  17.168  0.00  0.00    +0.000 N 
ATOM     17  H   UNL     1       4.763   4.820  16.238  0.00  0.00    +0.000 HD
ENDBRANCH   6   7
ENDBRANCH   5   6
ENDBRANCH   2   5
BRANCH   3  18
ATOM     18  C   UNL     1       8.577   9.508  18.252  0.00  0.00    +0.000 C 
BRANCH  18  19
ATOM     19  C   UNL     1       9.181  10.435  19.312  0.00  0.00    +0.000 C 
BRANCH  19  20
ATOM     20  C   UNL     1      10.535  11.024  18.920  0.00  0.00    +0.000 C 
BRANCH  20  21
ATOM     21  C   UNL     1      10.434  12.454  18.514  0.00  0.00    +0.000 A 
ATOM     22  N   UNL     1      11.143  13.058  17.584  0.00  0.00    +0.000 NA
ATOM     23  C   UNL     1      10.740  14.371  17.608  0.00  0.00    +0.000 A 
ATOM     24  C   UNL     1      11.188  15.464  16.854  0.00  0.00    +0.000 A 
ATOM     25  C   UNL     1      10.627  16.725  17.100  0.00  0.00    +0.000 A 
ATOM     26  C   UNL     1       9.632  16.890  18.066  0.00  0.00    +0.000 A 
ATOM     27  C   UNL     1       9.159  15.806  18.816  0.00  0.00    +0.000 A 
ATOM     28  C   UNL     1       9.744  14.565  18.558  0.00  0.00    +0.000 A 
ATOM     29  N   UNL     1       9.548  13.323  19.102  0.00  0.00    +0.000 N 
ATOM     30  H   UNL     1       8.889  13.093  19.830  0.00  0.00    +0.000 HD
ENDBRANCH  20  21
ENDBRANCH  19  20
ENDBRANCH  18  19
ENDBRANCH   3  18
TORSDOF 7
ENDMDL
MODEL 3
REMARK VINA RESULT:      -8.5      4.958      7.050
REMARK  Name = 
REMARK  7 active torsions:
REMARK  status: ('A' for Active; 'I' for Inactive)
REMARK    1  A    between atoms: C_2  and  C_3
REMARK    2  A    between atoms: C_3  and  C_4
REMARK    3  A    between atoms: C_4  and  C_5
REMARK    4  A    between atoms: N_15  and  C_16
REMARK    5  A    between atoms: C_16  and  C_17
REMARK    6  A    between atoms: C_17  and  C_18
REMARK    7  A    between atoms: C_18  and  C_19
REMARK                            x       y       z     vdW  Elec       q    Type
REMARK                         _______ _______ _______ _____ _____    ______ ____
ROOT
ATOM      1  O   UNL     1       5.891   6.521  15.606  0.00  0.00    +0.000 OA
ATOM      2  C   UNL     1       5.886   6.579  16.832  0.00  0.00    +0.000 C 
ATOM      3  N   UNL     1       4.809   7.007  17.569  0.00  0.00    +0.000 N 
ATOM      4  H   UNL     1       4.852   6.991  18.583  0.00  0.00    +0.000 HD
ENDROOT
BRANCH   2   5
ATOM      5  C   UNL     1       7.088   6.179  17.657  0.00  0.00    +0.000 C 
BRANCH   5   6
ATOM      6  C   UNL     1       7.069   4.672  17.888  0.00  0.00    +0.000 C 
BRANCH   6   7
ATOM      7  C   UNL     1       5.716   4.193  18.293  0.00  0.00    +0.000 A 
ATOM      8  N   UNL     1       5.043   4.546  19.368  0.00  0.00    +0.000 NA
ATOM      9  C   UNL     1       3.837   3.879  19.292  0.00  0.00    +0.000 A 
ATOM     10  C   UNL     1       2.722   3.897  20.152  0.00  0.00    +0.000 A 
ATOM     11  F   UNL     1       2.709   4.649  21.259  0.00  0.00    +0.000 F 
ATOM     12  C   UNL     1       1.600   3.123  19.836  0.00  0.00    +0.000 A 
ATOM     13  C   UNL     1       1.587   2.330  18.687  0.00  0.00    +0.000 A 
ATOM     14  C   UNL     1       2.687   2.287  17.820  0.00  0.00    +0.000 A 
ATOM     15  C   UNL     1       3.792   3.078  18.158  0.00  0.00    +0.000 A 
ATOM     16  N   UNL     1       5.003   3.287  17.548  0.00  0.00    +0.000 N 
ATOM     17  H   UNL     1       5.310   2.860  16.686  0.00  0.00    +0.000 HD
ENDBRANCH   6   7
ENDBRANCH   5   6
ENDBRANCH   2   5
BRANCH   3  18
ATOM     18  C   UNL     1       3.557   7.428  16.972  0.00  0.00    +0.000 C 
BRANCH  18  19
ATOM     19  C   UNL     1       2.668   8.254  17.906  0.00  0.00    +0.000 C 
BRANCH  19  20
ATOM     20  C   UNL     1       2.268   7.524  19.187  0.00  0.00    +0.000 C 
BRANCH  20  21
ATOM     21  C   UNL     1       1.474   8.387  20.105  0.00  0.00    +0.000 A 
ATOM     22  N   UNL     1       1.195   8.142  21.369  0.00  0.00    +0.000 NA
ATOM     23  C   UNL     1       0.398   9.182  21.779  0.00  0.00    +0.000 A 
ATOM     24  C   UNL     1      -0.213   9.413  23.020  0.00  0.00    +0.000 A 
ATOM     25  C   UNL     1      -1.015  10.552  23.171  0.00  0.00    +0.000 A 
ATOM     26  C   UNL     1      -1.193  11.449  22.115  0.00  0.00    +0.000 A 
ATOM     27  C   UNL     1      -0.574  11.245  20.876  0.00  0.00    +0.000 A 
ATOM     28  C   UNL     1       0.209  10.096  20.749  0.00  0.00    +0.000 A 
ATOM     29  N   UNL     1       0.926   9.580  19.703  0.00  0.00    +0.000 N 
ATOM     30  H   UNL     1       1.012   9.990  18.785  0.00  0.00    +0.000 HD
ENDBRANCH  20  21
ENDBRANCH  19  20
ENDBRANCH  18  19
ENDBRANCH   3  18
TORSDOF 7
ENDMDL
MODEL 4
REMARK VINA RESULT:      -8.4      5.551      8.149
REMARK  Name = 
REMARK  7 active torsions:
REMARK  status: ('A' for Active; 'I' for Inactive)
REMARK    1  A    between atoms: C_2  and  C_3
REMARK    2  A    between atoms: C_3  and  C_4
REMARK    3  A    between atoms: C_4  and  C_5
REMARK    4  A    between atoms: N_15  and  C_16
REMARK    5  A    between atoms: C_16  and  C_17
REMARK    6  A    between atoms: C_17  and  C_18
REMARK    7  A    between atoms: C_18  and  C_19
REMARK                            x       y       z     vdW  Elec       q    Type
REMARK                         _______ _______ _______ _____ _____    ______ ____
ROOT
ATOM      1  O   UNL     1       1.310   4.329  17.495  0.00  0.00    +0.000 OA
ATOM      2  C   UNL     1       1.754   5.044  18.389  0.00  0.00    +0.000 C 
ATOM      3  N   UNL     1       2.016   4.596  19.661  0.00  0.00    +0.000 N 
ATOM      4  H   UNL     1       2.424   5.225  20.344  0.00  0.00    +0.000 HD
ENDROOT
BRANCH   2   5
ATOM      5  C   UNL     1       2.058   6.508  18.168  0.00  0.00    +0.000 C 
BRANCH   5   6
ATOM      6  C   UNL     1       2.673   7.098  19.431  0.00  0.00    +0.000 C 
BRANCH   6   7
ATOM      7  C   UNL     1       1.766   8.092  20.074  0.00  0.00    +0.000 A 
ATOM      8  N   UNL     1       1.392   8.119  21.336  0.00  0.00    +0.000 NA
ATOM      9  C   UNL     1       0.591   9.235  21.467  0.00  0.00    +0.000 A 
ATOM     10  C   UNL     1      -0.062   9.769  22.593  0.00  0.00    +0.000 A 
ATOM     11  F   UNL     1       0.036   9.189  23.795  0.00  0.00    +0.000 F 
ATOM     12  C   UNL     1      -0.819  10.939  22.458  0.00  0.00    +0.000 A 
ATOM     13  C   UNL     1      -0.937  11.565  21.216  0.00  0.00    +0.000 A 
ATOM     14  C   UNL     1      -0.305  11.049  20.077  0.00  0.00    +0.000 A 
ATOM     15  C   UNL     1       0.452   9.882  20.245  0.00  0.00    +0.000 A 
ATOM     16  N   UNL     1       1.198   9.129  19.375  0.00  0.00    +0.000 N 
ATOM     17  H   UNL     1       1.324   9.315  18.391  0.00  0.00    +0.000 HD
ENDBRANCH   6   7
ENDBRANCH   5   6
ENDBRANCH   2   5
BRANCH   3  18
ATOM     18  C   UNL     1       1.802   3.224  20.078  0.00  0.00    +0.000 C 
BRANCH  18  19
ATOM     19  C   UNL     1       2.914   2.664  20.970  0.00  0.00    +0.000 C 
BRANCH  19  20
ATOM     20  C   UNL     1       4.114   2.120  20.197  0.00  0.00    +0.000 C 
BRANCH  20  21
ATOM     21  C   UNL     1       4.622   3.088  19.187  0.00  0.00    +0.000 A 
ATOM     22  N   UNL     1       5.218   4.238  19.431  0.00  0.00    +0.000 NA
ATOM     23  C   UNL     1       5.452   4.800  18.200  0.00  0.00    +0.000 A 
ATOM     24  C   UNL     1       6.029   6.034  17.870  0.00  0.00    +0.000 A 
ATOM     25  C   UNL     1       6.123   6.391  16.518  0.00  0.00    +0.000 A 
ATOM     26  C   UNL     1       5.665   5.530  15.517  0.00  0.00    +0.000 A 
ATOM     27  C   UNL     1       5.104   4.286  15.827  0.00  0.00    +0.000 A 
ATOM     28  C   UNL     1       5.012   3.962  17.182  0.00  0.00    +0.000 A 
ATOM     29  N   UNL     1       4.513   2.868  17.837  0.00  0.00    +0.000 N 
ATOM     30  H   UNL     1       4.107   2.053  17.403  0.00  0.00    +0.000 HD
ENDBRANCH  20  21
ENDBRANCH  19  20
ENDBRANCH  18  19
ENDBRANCH   3  18
TORSDOF 7
ENDMDL
MODEL 5
REMARK VINA RESULT:      -8.3      4.991      7.850
REMARK  Name = 
REMARK  7 active torsions:
REMARK  status: ('A' for Active; 'I' for Inactive)
REMARK    1  A    between atoms: C_2  and  C_3
REMARK    2  A    between atoms: C_3  and  C_4
REMARK    3  A    between atoms: C_4  and  C_5
REMARK    4  A    between atoms: N_15  and  C_16
REMARK    5  A    between atoms: C_16  and  C_17
REMARK    6  A    between atoms: C_17  and  C_18
REMARK    7  A    between atoms: C_18  and  C_19
REMARK                            x       y       z     vdW  Elec       q    Type
REMARK                         _______ _______ _______ _____ _____    ______ ____
ROOT
ATOM      1  O   UNL     1       2.958   3.216  20.854  0.00  0.00    +0.000 OA
ATOM      2  C   UNL     1       2.147   4.024  20.410  0.00  0.00    +0.000 C 
ATOM      3  N   UNL     1       1.331   3.768  19.334  0.00  0.00    +0.000 N 
ATOM      4  H   UNL     1       0.650   4.461  19.041  0.00  0.00    +0.000 HD
ENDROOT
BRANCH   2   5
ATOM      5  C   UNL     1       1.970   5.397  21.015  0.00  0.00    +0.000 C 
BRANCH   5   6
ATOM      6  C   UNL     1       2.383   6.459  20.003  0.00  0.00    +0.000 C 
BRANCH   6   7
ATOM      7  C   UNL     1       1.731   7.771  20.283  0.00  0.00    +0.000 A 
ATOM      8  N   UNL     1       1.492   8.734  19.418  0.00  0.00    +0.000 NA
ATOM      9  C   UNL     1       0.842   9.723  20.127  0.00  0.00    +0.000 A 
ATOM     10  C   UNL     1       0.331  10.967  19.711  0.00  0.00    +0.000 A 
ATOM     11  F   UNL     1       0.427  11.368  18.438  0.00  0.00    +0.000 F 
ATOM     12  C   UNL     1      -0.305  11.795  20.643  0.00  0.00    +0.000 A 
ATOM     13  C   UNL     1      -0.420  11.400  21.978  0.00  0.00    +0.000 A 
ATOM     14  C   UNL     1       0.089  10.173  22.420  0.00  0.00    +0.000 A 
ATOM     15  C   UNL     1       0.712   9.362  21.463  0.00  0.00    +0.000 A 
ATOM     16  N   UNL     1       1.296   8.123  21.537  0.00  0.00    +0.000 N 
ATOM     17  H   UNL     1       1.375   7.557  22.369  0.00  0.00    +0.000 HD
ENDBRANCH   6   7
ENDBRANCH   5   6
ENDBRANCH   2   5
BRANCH   3  18
ATOM     18  C   UNL     1       1.338   2.509  18.616  0.00  0.00    +0.000 C 
BRANCH  18  19
ATOM     19  C   UNL     1       2.314   2.470  17.436  0.00  0.00    +0.000 C 
BRANCH  19  20
ATOM     20  C   UNL     1       3.762   2.196  17.839  0.00  0.00    +0.000 C 
BRANCH  20  21
ATOM     21  C   UNL     1       4.595   3.430  17.834  0.00  0.00    +0.000 A 
ATOM     22  N   UNL     1       4.484   4.448  17.005  0.00  0.00    +0.000 NA
ATOM     23  C   UNL     1       5.494   5.314  17.349  0.00  0.00    +0.000 A 
ATOM     24  C   UNL     1       5.862   6.539  16.776  0.00  0.00    +0.000 A 
ATOM     25  C   UNL     1       6.968   7.220  17.303  0.00  0.00    +0.000 A 
ATOM     26  C   UNL     1       7.682   6.699  18.384  0.00  0.00    +0.000 A 
ATOM     27  C   UNL     1       7.317   5.487  18.981  0.00  0.00    +0.000 A 
ATOM     28  C   UNL     1       6.219   4.824  18.429  0.00  0.00    +0.000 A 
ATOM     29  N   UNL     1       5.609   3.637  18.735  0.00  0.00    +0.000 N 
ATOM     30  H   UNL     1       5.878   3.007  19.476  0.00  0.00    +0.000 HD
ENDBRANCH  20  21
ENDBRANCH  19  20
ENDBRANCH  18  19
ENDBRANCH   3  18
TORSDOF 7
ENDMDL
MODEL 6
REMARK VINA RESULT:      -8.3      2.345     10.054
REMARK  Name = 
REMARK  7 active torsions:
REMARK  status: ('A' for Active; 'I' for Inactive)
REMARK    1  A    between atoms: C_2  and  C_3
REMARK    2  A    between atoms: C_3  and  C_4
REMARK    3  A    between atoms: C_4  and  C_5
REMARK    4  A    between atoms: N_15  and  C_16
REMARK    5  A    between atoms: C_16  and  C_17
REMARK    6  A    between atoms: C_17  and  C_18
REMARK    7  A    between atoms: C_18  and  C_19
REMARK                            x       y       z     vdW  Elec       q    Type
REMARK                         _______ _______ _______ _____ _____    ______ ____
ROOT
ATOM      1  O   UNL     1       7.796   5.315  18.891  0.00  0.00    +0.000 OA
ATOM      2  C   UNL     1       7.854   6.377  18.278  0.00  0.00    +0.000 C 
ATOM      3  N   UNL     1       7.509   6.512  16.955  0.00  0.00    +0.000 N 
ATOM      4  H   UNL     1       7.537   7.427  16.517  0.00  0.00    +0.000 HD
ENDROOT
BRANCH   2   5
ATOM      5  C   UNL     1       8.319   7.656  18.936  0.00  0.00    +0.000 C 
BRANCH   5   6
ATOM      6  C   UNL     1       8.250   8.801  17.931  0.00  0.00    +0.000 C 
BRANCH   6   7
ATOM      7  C   UNL     1       8.946  10.019  18.436  0.00  0.00    +0.000 A 
ATOM      8  N   UNL     1       9.039  10.413  19.689  0.00  0.00    +0.000 NA
ATOM      9  C   UNL     1       9.805  11.561  19.667  0.00  0.00    +0.000 A 
ATOM     10  C   UNL     1      10.244  12.393  20.714  0.00  0.00    +0.000 A 
ATOM     11  F   UNL     1       9.935  12.129  21.989  0.00  0.00    +0.000 F 
ATOM     12  C   UNL     1      11.032  13.511  20.418  0.00  0.00    +0.000 A 
ATOM     13  C   UNL     1      11.371  13.809  19.097  0.00  0.00    +0.000 A 
ATOM     14  C   UNL     1      10.938  13.003  18.035  0.00  0.00    +0.000 A 
ATOM     15  C   UNL     1      10.158  11.887  18.363  0.00  0.00    +0.000 A 
ATOM     16  N   UNL     1       9.590  10.898  17.600  0.00  0.00    +0.000 N 
ATOM     17  H   UNL     1       9.650  10.819  16.596  0.00  0.00    +0.000 HD
ENDBRANCH   6   7
ENDBRANCH   5   6
ENDBRANCH   2   5
BRANCH   3  18
ATOM     18  C   UNL     1       7.031   5.410  16.145  0.00  0.00    +0.000 C 
BRANCH  18  19
ATOM     19  C   UNL     1       5.546   5.503  15.780  0.00  0.00    +0.000 C 
BRANCH  19  20
ATOM     20  C   UNL     1       4.809   4.166  15.836  0.00  0.00    +0.000 C 
BRANCH  20  21
ATOM     21  C   UNL     1       3.942   4.048  17.041  0.00  0.00    +0.000 A 
ATOM     22  N   UNL     1       3.346   2.957  17.476  0.00  0.00    +0.000 NA
ATOM     23  C   UNL     1       2.619   3.347  18.574  0.00  0.00    +0.000 A 
ATOM     24  C   UNL     1       1.770   2.600  19.402  0.00  0.00    +0.000 A 
ATOM     25  C   UNL     1       1.110   3.254  20.452  0.00  0.00    +0.000 A 
ATOM     26  C   UNL     1       1.304   4.619  20.679  0.00  0.00    +0.000 A 
ATOM     27  C   UNL     1       2.163   5.376  19.874  0.00  0.00    +0.000 A 
ATOM     28  C   UNL     1       2.797   4.701  18.829  0.00  0.00    +0.000 A 
ATOM     29  N   UNL     1       3.665   5.118  17.855  0.00  0.00    +0.000 N 
ATOM     30  H   UNL     1       4.016   6.056  17.737  0.00  0.00    +0.000 HD
ENDBRANCH  20  21
ENDBRANCH  19  20
ENDBRANCH  18  19
ENDBRANCH   3  18
TORSDOF 7
ENDMDL
MODEL 7
REMARK VINA RESULT:      -8.3      4.946      7.088
REMARK  Name = 
REMARK  7 active torsions:
REMARK  status: ('A' for Active; 'I' for Inactive)
REMARK    1  A    between atoms: C_2  and  C_3
REMARK    2  A    between atoms: C_3  and  C_4
REMARK    3  A    between atoms: C_4  and  C_5
REMARK    4  A    between atoms: N_15  and  C_16
REMARK    5  A    between atoms: C_16  and  C_17
REMARK    6  A    between atoms: C_17  and  C_18
REMARK    7  A    between atoms: C_18  and  C_19
REMARK                            x       y       z     vdW  Elec       q    Type
REMARK                         _______ _______ _______ _____ _____    ______ ____
ROOT
ATOM      1  O   UNL     1       5.566   6.047  15.506  0.00  0.00    +0.000 OA
ATOM      2  C   UNL     1       5.786   6.419  16.655  0.00  0.00    +0.000 C 
ATOM      3  N   UNL     1       4.862   7.075  17.433  0.00  0.00    +0.000 N 
ATOM      4  H   UNL     1       5.090   7.318  18.391  0.00  0.00    +0.000 HD
ENDROOT
BRANCH   2   5
ATOM      5  C   UNL     1       7.117   6.186  17.331  0.00  0.00    +0.000 C 
BRANCH   5   6
ATOM      6  C   UNL     1       7.121   4.811  17.990  0.00  0.00    +0.000 C 
BRANCH   6   7
ATOM      7  C   UNL     1       5.740   4.353  18.317  0.00  0.00    +0.000 A 
ATOM      8  N   UNL     1       5.021   4.698  19.364  0.00  0.00    +0.000 NA
ATOM      9  C   UNL     1       3.807   4.058  19.214  0.00  0.00    +0.000 A 
ATOM     10  C   UNL     1       2.652   4.082  20.017  0.00  0.00    +0.000 A 
ATOM     11  F   UNL     1       2.597   4.811  21.138  0.00  0.00    +0.000 F 
ATOM     12  C   UNL     1       1.531   3.338  19.630  0.00  0.00    +0.000 A 
ATOM     13  C   UNL     1       1.561   2.569  18.465  0.00  0.00    +0.000 A 
ATOM     14  C   UNL     1       2.701   2.521  17.653  0.00  0.00    +0.000 A 
ATOM     15  C   UNL     1       3.804   3.281  18.062  0.00  0.00    +0.000 A 
ATOM     16  N   UNL     1       5.048   3.477  17.518  0.00  0.00    +0.000 N 
ATOM     17  H   UNL     1       5.390   3.062  16.664  0.00  0.00    +0.000 HD
ENDBRANCH   6   7
ENDBRANCH   5   6
ENDBRANCH   2   5
BRANCH   3  18
ATOM     18  C   UNL     1       3.523   7.388  16.976  0.00  0.00    +0.000 C 
BRANCH  18  19
ATOM     19  C   UNL     1       2.744   8.312  17.918  0.00  0.00    +0.000 C 
BRANCH  19  20
ATOM     20  C   UNL     1       2.321   7.647  19.227  0.00  0.00    +0.000 C 
BRANCH  20  21
ATOM     21  C   UNL     1       1.414   8.511  20.033  0.00  0.00    +0.000 A 
ATOM     22  N   UNL     1       0.831   9.623  19.636  0.00  0.00    +0.000 NA
ATOM     23  C   UNL     1       0.146  10.091  20.731  0.00  0.00    +0.000 A 
ATOM     24  C   UNL     1      -0.621  11.254  20.882  0.00  0.00    +0.000 A 
ATOM     25  C   UNL     1      -1.197  11.520  22.132  0.00  0.00    +0.000 A 
ATOM     26  C   UNL     1      -1.025  10.639  23.202  0.00  0.00    +0.000 A 
ATOM     27  C   UNL     1      -0.279   9.463  23.063  0.00  0.00    +0.000 A 
ATOM     28  C   UNL     1       0.293   9.229  21.812  0.00  0.00    +0.000 A 
ATOM     29  N   UNL     1       1.083   8.218  21.333  0.00  0.00    +0.000 N 
ATOM     30  H   UNL     1       1.394   7.412  21.854  0.00  0.00    +0.000 HD
ENDBRANCH  20  21
ENDBRANCH  19  20
ENDBRANCH  18  19
ENDBRANCH   3  18
TORSDOF 7
ENDMDL
MODEL 8
REMARK VINA RESULT:      -8.3      4.904      8.086
REMARK  Name = 
REMARK  7 active torsions:
REMARK  status: ('A' for Active; 'I' for Inactive)
REMARK    1  A    between atoms: C_2  and  C_3
REMARK    2  A    between atoms: C_3  and  C_4
REMARK    3  A    between atoms: C_4  and  C_5
REMARK    4  A    between atoms: N_15  and  C_16
REMARK    5  A    between atoms: C_16  and  C_17
REMARK    6  A    between atoms: C_17  and  C_18
REMARK    7  A    between atoms: C_18  and  C_19
REMARK                            x       y       z     vdW  Elec       q    Type
REMARK                         _______ _______ _______ _____ _____    ______ ____
ROOT
ATOM      1  O   UNL     1       2.512   6.267  20.048  0.00  0.00    +0.000 OA
ATOM      2  C   UNL     1       2.517   6.419  18.829  0.00  0.00    +0.000 C 
ATOM      3  N   UNL     1       2.182   5.429  17.938  0.00  0.00    +0.000 N 
ATOM      4  H   UNL     1       2.163   5.630  16.943  0.00  0.00    +0.000 HD
ENDROOT
BRANCH   2   5
ATOM      5  C   UNL     1       2.898   7.734  18.189  0.00  0.00    +0.000 C 
BRANCH   5   6
ATOM      6  C   UNL     1       1.641   8.451  17.708  0.00  0.00    +0.000 C 
BRANCH   6   7
ATOM      7  C   UNL     1       1.406   9.716  18.463  0.00  0.00    +0.000 A 
ATOM      8  N   UNL     1       0.885   9.831  19.666  0.00  0.00    +0.000 NA
ATOM      9  C   UNL     1       0.906  11.180  19.957  0.00  0.00    +0.000 A 
ATOM     10  C   UNL     1       0.498  11.878  21.109  0.00  0.00    +0.000 A 
ATOM     11  F   UNL     1      -0.010  11.236  22.168  0.00  0.00    +0.000 F 
ATOM     12  C   UNL     1       0.638  13.270  21.155  0.00  0.00    +0.000 A 
ATOM     13  C   UNL     1       1.165  13.964  20.065  0.00  0.00    +0.000 A 
ATOM     14  C   UNL     1       1.570  13.295  18.902  0.00  0.00    +0.000 A 
ATOM     15  C   UNL     1       1.425  11.902  18.889  0.00  0.00    +0.000 A 
ATOM     16  N   UNL     1       1.723  10.949  17.949  0.00  0.00    +0.000 N 
ATOM     17  H   UNL     1       2.126  11.123  17.040  0.00  0.00    +0.000 HD
ENDBRANCH   6   7
ENDBRANCH   5   6
ENDBRANCH   2   5
BRANCH   3  18
ATOM     18  C   UNL     1       1.779   4.099  18.346  0.00  0.00    +0.000 C 
BRANCH  18  19
ATOM     19  C   UNL     1       2.349   2.978  17.470  0.00  0.00    +0.000 C 
BRANCH  19  20
ATOM     20  C   UNL     1       3.760   2.543  17.863  0.00  0.00    +0.000 C 
BRANCH  20  21
ATOM     21  C   UNL     1       4.718   3.684  17.888  0.00  0.00    +0.000 A 
ATOM     22  N   UNL     1       4.884   4.590  16.947  0.00  0.00    +0.000 NA
ATOM     23  C   UNL     1       5.905   5.396  17.387  0.00  0.00    +0.000 A 
ATOM     24  C   UNL     1       6.514   6.496  16.769  0.00  0.00    +0.000 A 
ATOM     25  C   UNL     1       7.574   7.135  17.427  0.00  0.00    +0.000 A 
ATOM     26  C   UNL     1       8.007   6.696  18.680  0.00  0.00    +0.000 A 
ATOM     27  C   UNL     1       7.398   5.611  19.322  0.00  0.00    +0.000 A 
ATOM     28  C   UNL     1       6.353   4.987  18.638  0.00  0.00    +0.000 A 
ATOM     29  N   UNL     1       5.563   3.912  18.945  0.00  0.00    +0.000 N 
ATOM     30  H   UNL     1       5.613   3.362  19.790  0.00  0.00    +0.000 HD
ENDBRANCH  20  21
ENDBRANCH  19  20
ENDBRANCH  18  19
ENDBRANCH   3  18
TORSDOF 7
ENDMDL
MODEL 9
REMARK VINA RESULT:      -8.2      5.381      6.949
REMARK  Name = 
REMARK  7 active torsions:
REMARK  status: ('A' for Active; 'I' for Inactive)
REMARK    1  A    between atoms: C_2  and  C_3
REMARK    2  A    between atoms: C_3  and  C_4
REMARK    3  A    between atoms: C_4  and  C_5
REMARK    4  A    between atoms: N_15  and  C_16
REMARK    5  A    between atoms: C_16  and  C_17
REMARK    6  A    between atoms: C_17  and  C_18
REMARK    7  A    between atoms: C_18  and  C_19
REMARK                            x       y       z     vdW  Elec       q    Type
REMARK                         _______ _______ _______ _____ _____    ______ ____
ROOT
ATOM      1  O   UNL     1       5.892   6.088  18.545  0.00  0.00    +0.000 OA
ATOM      2  C   UNL     1       5.586   6.008  17.359  0.00  0.00    +0.000 C 
ATOM      3  N   UNL     1       4.547   6.708  16.793  0.00  0.00    +0.000 N 
ATOM      4  H   UNL     1       4.371   6.632  15.796  0.00  0.00    +0.000 HD
ENDROOT
BRANCH   2   5
ATOM      5  C   UNL     1       6.336   5.116  16.396  0.00  0.00    +0.000 C 
BRANCH   5   6
ATOM      6  C   UNL     1       5.558   3.822  16.188  0.00  0.00    +0.000 C 
BRANCH   6   7
ATOM      7  C   UNL     1       4.560   3.598  17.274  0.00  0.00    +0.000 A 
ATOM      8  N   UNL     1       3.251   3.695  17.175  0.00  0.00    +0.000 NA
ATOM      9  C   UNL     1       2.754   3.360  18.418  0.00  0.00    +0.000 A 
ATOM     10  C   UNL     1       1.428   3.270  18.883  0.00  0.00    +0.000 A 
ATOM     11  F   UNL     1       0.390   3.525  18.079  0.00  0.00    +0.000 F 
ATOM     12  C   UNL     1       1.190   2.893  20.209  0.00  0.00    +0.000 A 
ATOM     13  C   UNL     1       2.256   2.620  21.070  0.00  0.00    +0.000 A 
ATOM     14  C   UNL     1       3.584   2.712  20.635  0.00  0.00    +0.000 A 
ATOM     15  C   UNL     1       3.791   3.084  19.300  0.00  0.00    +0.000 A 
ATOM     16  N   UNL     1       4.928   3.254  18.551  0.00  0.00    +0.000 N 
ATOM     17  H   UNL     1       5.874   3.129  18.879  0.00  0.00    +0.000 HD
ENDBRANCH   6   7
ENDBRANCH   5   6
ENDBRANCH   2   5
BRANCH   3  18
ATOM     18  C   UNL     1       3.709   7.623  17.540  0.00  0.00    +0.000 C 
BRANCH  18  19
ATOM     19  C   UNL     1       2.457   6.974  18.139  0.00  0.00    +0.000 C 
BRANCH  19  20
ATOM     20  C   UNL     1       2.472   6.892  19.664  0.00  0.00    +0.000 C 
BRANCH  20  21
ATOM     21  C   UNL     1       1.612   7.932  20.295  0.00  0.00    +0.000 A 
ATOM     22  N   UNL     1       1.081   8.979  19.699  0.00  0.00    +0.000 NA
ATOM     23  C   UNL     1       0.425   9.672  20.686  0.00  0.00    +0.000 A 
ATOM     24  C   UNL     1      -0.284  10.879  20.620  0.00  0.00    +0.000 A 
ATOM     25  C   UNL     1      -0.840  11.397  21.797  0.00  0.00    +0.000 A 
ATOM     26  C   UNL     1      -0.705  10.720  23.012  0.00  0.00    +0.000 A 
ATOM     27  C   UNL     1      -0.017   9.503  23.093  0.00  0.00    +0.000 A 
ATOM     28  C   UNL     1       0.536   9.017  21.908  0.00  0.00    +0.000 A 
ATOM     29  N   UNL     1       1.274   7.898  21.625  0.00  0.00    +0.000 N 
ATOM     30  H   UNL     1       1.548   7.188  22.287  0.00  0.00    +0.000 HD
ENDBRANCH  20  21
ENDBRANCH  19  20
ENDBRANCH  18  19
ENDBRANCH   3  18
TORSDOF 7
ENDMDL
