MODEL 1
REMARK VINA RESULT:      -8.8      0.000      0.000
REMARK  Name = 
REMARK  3 active torsions:
REMARK  status: ('A' for Active; 'I' for Inactive)
REMARK    1  A    between atoms: C_1  and  C_2
REMARK    2  A    between atoms: C_3  and  C_4
REMARK    3  A    between atoms: C_9  and  C_10
REMARK                            x       y       z     vdW  Elec       q    Type
REMARK                         _______ _______ _______ _____ _____    ______ ____
ROOT
ATOM      1  C   UNL     1       2.364   6.749  19.643  0.00  0.00    +0.000 C 
ATOM      2  O   UNL     1       2.073   6.096  20.650  0.00  0.00    +0.000 OA
ATOM      3  N   UNL     1       1.868   8.048  19.474  0.00  0.00    +0.000 N 
ATOM      4  C   UNL     1       1.303   8.738  20.633  0.00  0.00    +0.000 C 
ATOM      5  C   UNL     1       0.001   9.457  20.286  0.00  0.00    +0.000 C 
ATOM      6  C   UNL     1       0.123  10.344  19.042  0.00  0.00    +0.000 C 
ATOM      7  C   UNL     1       0.739   9.556  17.884  0.00  0.00    +0.000 C 
ATOM      8  C   UNL     1       2.040   8.857  18.268  0.00  0.00    +0.000 C 
ENDROOT
BRANCH   1  11
ATOM      9  C   UNL     1       1.757   4.225  17.698  0.00  0.00    +0.000 C 
ATOM     10  C   UNL     1       2.977   5.067  17.778  0.00  0.00    +0.000 A 
ATOM     11  C   UNL     1       3.194   6.167  18.601  0.00  0.00    +0.000 A 
ATOM     12  O   UNL     1       4.453   6.665  18.379  0.00  0.00    +0.000 OA
ATOM     13  C   UNL     1       5.037   5.902  17.422  0.00  0.00    +0.000 A 
ATOM     14  C   UNL     1       6.324   6.085  16.917  0.00  0.00    +0.000 A 
ATOM     15  C   UNL     1       6.754   5.156  15.963  0.00  0.00    +0.000 A 
ATOM     16  C   UNL     1       5.915   4.123  15.550  0.00  0.00    +0.000 A 
ATOM     17  F   UNL     1       6.364   3.241  14.647  0.00  0.00    +0.000 F 
ATOM     18  C   UNL     1       4.620   3.973  16.053  0.00  0.00    +0.000 A 
ATOM     19  C   UNL     1       4.174   4.891  17.021  0.00  0.00    +0.000 A 
ENDBRANCH   1  11
BRANCH   6  20
ATOM     20  C   UNL     1       0.883  11.608  19.323  0.00  0.00    +0.000 A 
ATOM     21  N   UNL     1       1.123  12.149  20.501  0.00  0.00    +0.000 NA
ATOM     22  C   UNL     1       1.838  13.294  20.250  0.00  0.00    +0.000 A 
ATOM     23  C   UNL     1       2.341  14.254  21.138  0.00  0.00    +0.000 A 
ATOM     24  C   UNL     1       3.041  15.350  20.615  0.00  0.00    +0.000 A 
ATOM     25  C   UNL     1       3.236  15.483  19.237  0.00  0.00    +0.000 A 
ATOM     26  C   UNL     1       2.744  14.531  18.337  0.00  0.00    +0.000 A 
ATOM     27  C   UNL     1       2.050  13.452  18.885  0.00  0.00    +0.000 A 
ATOM     28  N   UNL     1       1.439  12.364  18.320  0.00  0.00    +0.000 N 
ATOM     29  H   UNL     1       1.400  12.158  17.333  0.00  0.00    +0.000 HD
ENDBRANCH   6  20
TORSDOF 2
ENDMDL
MODEL 2
REMARK VINA RESULT:      -8.6      0.358      1.110
REMARK  Name = 
REMARK  3 active torsions:
REMARK  status: ('A' for Active; 'I' for Inactive)
REMARK    1  A    between atoms: C_1  and  C_2
REMARK    2  A    between atoms: C_3  and  C_4
REMARK    3  A    between atoms: C_9  and  C_10
REMARK                            x       y       z     vdW  Elec       q    Type
REMARK                         _______ _______ _______ _____ _____    ______ ____
ROOT
ATOM      1  C   UNL     1       2.327   6.745  19.672  0.00  0.00    +0.000 C 
ATOM      2  O   UNL     1       2.009   6.075  20.659  0.00  0.00    +0.000 OA
ATOM      3  N   UNL     1       1.851   8.054  19.521  0.00  0.00    +0.000 N 
ATOM      4  C   UNL     1       1.273   8.727  20.683  0.00  0.00    +0.000 C 
ATOM      5  C   UNL     1      -0.012   9.471  20.328  0.00  0.00    +0.000 C 
ATOM      6  C   UNL     1       0.145  10.382  19.106  0.00  0.00    +0.000 C 
ATOM      7  C   UNL     1       0.772   9.611  17.943  0.00  0.00    +0.000 C 
ATOM      8  C   UNL     1       2.057   8.886  18.336  0.00  0.00    +0.000 C 
ENDROOT
BRANCH   1  11
ATOM      9  C   UNL     1       1.740   4.244  17.691  0.00  0.00    +0.000 C 
ATOM     10  C   UNL     1       2.959   5.084  17.795  0.00  0.00    +0.000 A 
ATOM     11  C   UNL     1       3.168   6.175  18.632  0.00  0.00    +0.000 A 
ATOM     12  O   UNL     1       4.430   6.673  18.431  0.00  0.00    +0.000 OA
ATOM     13  C   UNL     1       5.025   5.920  17.472  0.00  0.00    +0.000 A 
ATOM     14  C   UNL     1       6.317   6.107  16.984  0.00  0.00    +0.000 A 
ATOM     15  C   UNL     1       6.757   5.189  16.025  0.00  0.00    +0.000 A 
ATOM     16  C   UNL     1       5.922   4.162  15.590  0.00  0.00    +0.000 A 
ATOM     17  F   UNL     1       6.381   3.289  14.683  0.00  0.00    +0.000 F 
ATOM     18  C   UNL     1       4.622   4.008  16.077  0.00  0.00    +0.000 A 
ATOM     19  C   UNL     1       4.165   4.915  17.050  0.00  0.00    +0.000 A 
ENDBRANCH   1  11
BRANCH   6  20
ATOM     20  C   UNL     1       0.916  11.630  19.428  0.00  0.00    +0.000 A 
ATOM     21  N   UNL     1       1.836  12.213  18.685  0.00  0.00    +0.000 NA
ATOM     22  C   UNL     1       2.257  13.307  19.400  0.00  0.00    +0.000 A 
ATOM     23  C   UNL     1       3.227  14.269  19.086  0.00  0.00    +0.000 A 
ATOM     24  C   UNL     1       3.477  15.295  20.006  0.00  0.00    +0.000 A 
ATOM     25  C   UNL     1       2.772  15.362  21.211  0.00  0.00    +0.000 A 
ATOM     26  C   UNL     1       1.798  14.413  21.539  0.00  0.00    +0.000 A 
ATOM     27  C   UNL     1       1.572  13.401  20.605  0.00  0.00    +0.000 A 
ATOM     28  N   UNL     1       0.721  12.328  20.595  0.00  0.00    +0.000 N 
ATOM     29  H   UNL     1       0.067  12.089  21.325  0.00  0.00    +0.000 HD
ENDBRANCH   6  20
TORSDOF 2
ENDMDL
MODEL 3
REMARK VINA RESULT:      -8.3      1.399      1.658
REMARK  Name = 
REMARK  3 active torsions:
REMARK  status: ('A' for Active; 'I' for Inactive)
REMARK    1  A    between atoms: C_1  and  C_2
REMARK    2  A    between atoms: C_3  and  C_4
REMARK    3  A    between atoms: C_9  and  C_10
REMARK                            x       y       z     vdW  Elec       q    Type
REMARK                         _______ _______ _______ _____ _____    ______ ____
ROOT
ATOM      1  C   UNL     1       1.852   7.717  19.962  0.00  0.00    +0.000 C 
ATOM      2  O   UNL     1       1.761   7.303  21.122  0.00  0.00    +0.000 OA
ATOM      3  N   UNL     1       1.218   8.907  19.582  0.00  0.00    +0.000 N 
ATOM      4  C   UNL     1       0.751   9.816  20.628  0.00  0.00    +0.000 C 
ATOM      5  C   UNL     1      -0.647  10.353  20.330  0.00  0.00    +0.000 C 
ATOM      6  C   UNL     1      -0.776  10.927  18.915  0.00  0.00    +0.000 C 
ATOM      7  C   UNL     1      -0.249   9.926  17.884  0.00  0.00    +0.000 C 
ATOM      8  C   UNL     1       1.151   9.417  18.213  0.00  0.00    +0.000 C 
ENDROOT
BRANCH   1  11
ATOM      9  C   UNL     1       1.719   4.548  19.280  0.00  0.00    +0.000 C 
ATOM     10  C   UNL     1       2.577   5.596  18.673  0.00  0.00    +0.000 A 
ATOM     11  C   UNL     1       2.586   6.957  18.963  0.00  0.00    +0.000 A 
ATOM     12  O   UNL     1       3.531   7.585  18.191  0.00  0.00    +0.000 OA
ATOM     13  C   UNL     1       4.118   6.645  17.408  0.00  0.00    +0.000 A 
ATOM     14  C   UNL     1       5.131   6.883  16.482  0.00  0.00    +0.000 A 
ATOM     15  C   UNL     1       5.632   5.765  15.807  0.00  0.00    +0.000 A 
ATOM     16  C   UNL     1       5.116   4.495  16.059  0.00  0.00    +0.000 A 
ATOM     17  F   UNL     1       5.630   3.443  15.409  0.00  0.00    +0.000 F 
ATOM     18  C   UNL     1       4.083   4.283  16.976  0.00  0.00    +0.000 A 
ATOM     19  C   UNL     1       3.575   5.394  17.672  0.00  0.00    +0.000 A 
ENDBRANCH   1  11
BRANCH   6  20
ATOM     20  C   UNL     1      -0.107  12.265  18.786  0.00  0.00    +0.000 A 
ATOM     21  N   UNL     1       1.182  12.502  18.646  0.00  0.00    +0.000 NA
ATOM     22  C   UNL     1       1.307  13.868  18.581  0.00  0.00    +0.000 A 
ATOM     23  C   UNL     1       2.454  14.661  18.446  0.00  0.00    +0.000 A 
ATOM     24  C   UNL     1       2.307  16.054  18.415  0.00  0.00    +0.000 A 
ATOM     25  C   UNL     1       1.043  16.642  18.513  0.00  0.00    +0.000 A 
ATOM     26  C   UNL     1      -0.114  15.865  18.644  0.00  0.00    +0.000 A 
ATOM     27  C   UNL     1       0.063  14.481  18.675  0.00  0.00    +0.000 A 
ATOM     28  N   UNL     1      -0.819  13.440  18.797  0.00  0.00    +0.000 N 
ATOM     29  H   UNL     1      -1.820  13.525  18.886  0.00  0.00    +0.000 HD
ENDBRANCH   6  20
TORSDOF 2
ENDMDL
MODEL 4
REMARK VINA RESULT:      -8.1      1.354      1.536
REMARK  Name = 
REMARK  3 active torsions:
REMARK  status: ('A' for Active; 'I' for Inactive)
REMARK    1  A    between atoms: C_1  and  C_2
REMARK    2  A    between atoms: C_3  and  C_4
REMARK    3  A    between atoms: C_9  and  C_10
REMARK                            x       y       z     vdW  Elec       q    Type
REMARK                         _______ _______ _______ _____ _____    ______ ____
ROOT
ATOM      1  C   UNL     1       1.822   7.723  20.012  0.00  0.00    +0.000 C 
ATOM      2  O   UNL     1       1.714   7.326  21.177  0.00  0.00    +0.000 OA
ATOM      3  N   UNL     1       1.233   8.930  19.617  0.00  0.00    +0.000 N 
ATOM      4  C   UNL     1       0.796   9.867  20.652  0.00  0.00    +0.000 C 
ATOM      5  C   UNL     1      -0.580  10.451  20.344  0.00  0.00    +0.000 C 
ATOM      6  C   UNL     1      -0.686  11.013  18.922  0.00  0.00    +0.000 C 
ATOM      7  C   UNL     1      -0.193   9.982  17.904  0.00  0.00    +0.000 C 
ATOM      8  C   UNL     1       1.187   9.427  18.243  0.00  0.00    +0.000 C 
ENDROOT
BRANCH   1  11
ATOM      9  C   UNL     1       1.856   4.504  19.606  0.00  0.00    +0.000 C 
ATOM     10  C   UNL     1       2.592   5.546  18.848  0.00  0.00    +0.000 A 
ATOM     11  C   UNL     1       2.531   6.925  19.024  0.00  0.00    +0.000 A 
ATOM     12  O   UNL     1       3.370   7.540  18.131  0.00  0.00    +0.000 OA
ATOM     13  C   UNL     1       3.960   6.574  17.383  0.00  0.00    +0.000 A 
ATOM     14  C   UNL     1       4.884   6.793  16.363  0.00  0.00    +0.000 A 
ATOM     15  C   UNL     1       5.408   5.652  15.745  0.00  0.00    +0.000 A 
ATOM     16  C   UNL     1       5.000   4.380  16.141  0.00  0.00    +0.000 A 
ATOM     17  F   UNL     1       5.535   3.309  15.540  0.00  0.00    +0.000 F 
ATOM     18  C   UNL     1       4.055   4.185  17.151  0.00  0.00    +0.000 A 
ATOM     19  C   UNL     1       3.525   5.319  17.791  0.00  0.00    +0.000 A 
ENDBRANCH   1  11
BRANCH   6  20
ATOM     20  C   UNL     1       0.031  12.325  18.780  0.00  0.00    +0.000 A 
ATOM     21  N   UNL     1      -0.475  13.531  18.939  0.00  0.00    +0.000 NA
ATOM     22  C   UNL     1       0.556  14.405  18.695  0.00  0.00    +0.000 A 
ATOM     23  C   UNL     1       0.571  15.807  18.713  0.00  0.00    +0.000 A 
ATOM     24  C   UNL     1       1.769  16.469  18.414  0.00  0.00    +0.000 A 
ATOM     25  C   UNL     1       2.927  15.748  18.106  0.00  0.00    +0.000 A 
ATOM     26  C   UNL     1       2.930  14.349  18.087  0.00  0.00    +0.000 A 
ATOM     27  C   UNL     1       1.723  13.717  18.387  0.00  0.00    +0.000 A 
ATOM     28  N   UNL     1       1.364  12.396  18.455  0.00  0.00    +0.000 N 
ATOM     29  H   UNL     1       1.976  11.612  18.288  0.00  0.00    +0.000 HD
ENDBRANCH   6  20
TORSDOF 2
ENDMDL
MODEL 5
REMARK VINA RESULT:      -7.7      3.650      8.700
REMARK  Name = 
REMARK  3 active torsions:
REMARK  status: ('A' for Active; 'I' for Inactive)
REMARK    1  A    between atoms: C_1  and  C_2
REMARK    2  A    between atoms: C_3  and  C_4
REMARK    3  A    between atoms: C_9  and  C_10
REMARK                            x       y       z     vdW  Elec       q    Type
REMARK                         _______ _______ _______ _____ _____    ______ ____
ROOT
ATOM      1  C   UNL     1       2.532   5.937  19.018  0.00  0.00    +0.000 C 
ATOM      2  O   UNL     1       1.795   5.055  19.467  0.00  0.00    +0.000 OA
ATOM      3  N   UNL     1       3.726   5.600  18.368  0.00  0.00    +0.000 N 
ATOM      4  C   UNL     1       3.918   4.218  17.928  0.00  0.00    +0.000 C 
ATOM      5  C   UNL     1       5.321   3.710  18.250  0.00  0.00    +0.000 C 
ATOM      6  C   UNL     1       6.424   4.663  17.778  0.00  0.00    +0.000 C 
ATOM      7  C   UNL     1       6.140   6.086  18.261  0.00  0.00    +0.000 C 
ATOM      8  C   UNL     1       4.732   6.561  17.916  0.00  0.00    +0.000 C 
ENDROOT
BRANCH   1  11
ATOM      9  C   UNL     1       1.023   7.404  21.487  0.00  0.00    +0.000 C 
ATOM     10  C   UNL     1       1.516   7.991  20.215  0.00  0.00    +0.000 A 
ATOM     11  C   UNL     1       2.192   7.341  19.188  0.00  0.00    +0.000 A 
ATOM     12  O   UNL     1       2.466   8.232  18.182  0.00  0.00    +0.000 OA
ATOM     13  C   UNL     1       1.981   9.442  18.558  0.00  0.00    +0.000 A 
ATOM     14  C   UNL     1       2.060  10.613  17.805  0.00  0.00    +0.000 A 
ATOM     15  C   UNL     1       1.453  11.747  18.356  0.00  0.00    +0.000 A 
ATOM     16  C   UNL     1       0.824  11.683  19.598  0.00  0.00    +0.000 A 
ATOM     17  F   UNL     1       0.239  12.783  20.089  0.00  0.00    +0.000 F 
ATOM     18  C   UNL     1       0.778  10.503  20.345  0.00  0.00    +0.000 A 
ATOM     19  C   UNL     1       1.372   9.350  19.802  0.00  0.00    +0.000 A 
ENDBRANCH   1  11
BRANCH   6  20
ATOM     20  C   UNL     1       6.618   4.607  16.290  0.00  0.00    +0.000 A 
ATOM     21  N   UNL     1       7.438   5.341  15.565  0.00  0.00    +0.000 NA
ATOM     22  C   UNL     1       7.254   4.938  14.266  0.00  0.00    +0.000 A 
ATOM     23  C   UNL     1       7.861   5.393  13.087  0.00  0.00    +0.000 A 
ATOM     24  C   UNL     1       7.484   4.810  11.870  0.00  0.00    +0.000 A 
ATOM     25  C   UNL     1       6.525   3.794  11.831  0.00  0.00    +0.000 A 
ATOM     26  C   UNL     1       5.912   3.325  12.998  0.00  0.00    +0.000 A 
ATOM     27  C   UNL     1       6.306   3.924  14.195  0.00  0.00    +0.000 A 
ATOM     28  N   UNL     1       5.922   3.729  15.495  0.00  0.00    +0.000 N 
ATOM     29  H   UNL     1       5.240   3.057  15.812  0.00  0.00    +0.000 HD
ENDBRANCH   6  20
TORSDOF 2
ENDMDL
MODEL 6
REMARK VINA RESULT:      -7.7      3.630      8.677
REMARK  Name = 
REMARK  3 active torsions:
REMARK  status: ('A' for Active; 'I' for Inactive)
REMARK    1  A    between atoms: C_1  and  C_2
REMARK    2  A    between atoms: C_3  and  C_4
REMARK    3  A    between atoms: C_9  and  C_10
REMARK                            x       y       z     vdW  Elec       q    Type
REMARK                         _______ _______ _______ _____ _____    ______ ____
ROOT
ATOM      1  C   UNL     1       2.522   5.999  19.154  0.00  0.00    +0.000 C 
ATOM      2  O   UNL     1       1.810   5.138  19.681  0.00  0.00    +0.000 OA
ATOM      3  N   UNL     1       3.684   5.630  18.463  0.00  0.00    +0.000 N 
ATOM      4  C   UNL     1       3.857   4.230  18.081  0.00  0.00    +0.000 C 
ATOM      5  C   UNL     1       5.275   3.737  18.356  0.00  0.00    +0.000 C 
ATOM      6  C   UNL     1       6.351   4.667  17.786  0.00  0.00    +0.000 C 
ATOM      7  C   UNL     1       6.088   6.112  18.214  0.00  0.00    +0.000 C 
ATOM      8  C   UNL     1       4.663   6.569  17.917  0.00  0.00    +0.000 C 
ENDROOT
BRANCH   1  11
ATOM      9  C   UNL     1       0.965   7.548  21.541  0.00  0.00    +0.000 C 
ATOM     10  C   UNL     1       1.491   8.093  20.265  0.00  0.00    +0.000 A 
ATOM     11  C   UNL     1       2.187   7.408  19.274  0.00  0.00    +0.000 A 
ATOM     12  O   UNL     1       2.491   8.267  18.249  0.00  0.00    +0.000 OA
ATOM     13  C   UNL     1       2.005   9.491  18.576  0.00  0.00    +0.000 A 
ATOM     14  C   UNL     1       2.109  10.638  17.791  0.00  0.00    +0.000 A 
ATOM     15  C   UNL     1       1.497  11.792  18.293  0.00  0.00    +0.000 A 
ATOM     16  C   UNL     1       0.838  11.768  19.520  0.00  0.00    +0.000 A 
ATOM     17  F   UNL     1       0.248  12.886  19.964  0.00  0.00    +0.000 F 
ATOM     18  C   UNL     1       0.766  10.612  20.301  0.00  0.00    +0.000 A 
ATOM     19  C   UNL     1       1.366   9.440  19.808  0.00  0.00    +0.000 A 
ENDBRANCH   1  11
BRANCH   6  20
ATOM     20  C   UNL     1       6.472   4.541  16.294  0.00  0.00    +0.000 A 
ATOM     21  N   UNL     1       5.790   3.736  15.504  0.00  0.00    +0.000 NA
ATOM     22  C   UNL     1       6.257   3.972  14.235  0.00  0.00    +0.000 A 
ATOM     23  C   UNL     1       5.889   3.384  13.017  0.00  0.00    +0.000 A 
ATOM     24  C   UNL     1       6.536   3.804  11.847  0.00  0.00    +0.000 A 
ATOM     25  C   UNL     1       7.525   4.790  11.891  0.00  0.00    +0.000 A 
ATOM     26  C   UNL     1       7.902   5.391  13.098  0.00  0.00    +0.000 A 
ATOM     27  C   UNL     1       7.243   4.952  14.247  0.00  0.00    +0.000 A 
ATOM     28  N   UNL     1       7.355   5.301  15.567  0.00  0.00    +0.000 N 
ATOM     29  H   UNL     1       7.986   5.995  15.939  0.00  0.00    +0.000 HD
ENDBRANCH   6  20
TORSDOF 2
ENDMDL
MODEL 7
REMARK VINA RESULT:      -7.4      3.859      8.664
REMARK  Name = 
REMARK  3 active torsions:
REMARK  status: ('A' for Active; 'I' for Inactive)
REMARK    1  A    between atoms: C_1  and  C_2
REMARK    2  A    between atoms: C_3  and  C_4
REMARK    3  A    between atoms: C_9  and  C_10
REMARK                            x       y       z     vdW  Elec       q    Type
REMARK                         _______ _______ _______ _____ _____    ______ ____
ROOT
ATOM      1  C   UNL     1       2.288   5.410  19.410  0.00  0.00    +0.000 C 
ATOM      2  O   UNL     1       1.590   4.466  19.794  0.00  0.00    +0.000 OA
ATOM      3  N   UNL     1       3.513   5.172  18.773  0.00  0.00    +0.000 N 
ATOM      4  C   UNL     1       3.789   3.829  18.265  0.00  0.00    +0.000 C 
ATOM      5  C   UNL     1       5.211   3.379  18.594  0.00  0.00    +0.000 C 
ATOM      6  C   UNL     1       6.269   4.415  18.200  0.00  0.00    +0.000 C 
ATOM      7  C   UNL     1       5.898   5.793  18.751  0.00  0.00    +0.000 C 
ATOM      8  C   UNL     1       4.473   6.209  18.397  0.00  0.00    +0.000 C 
ENDROOT
BRANCH   1  11
ATOM      9  C   UNL     1       2.192   7.916  17.352  0.00  0.00    +0.000 C 
ATOM     10  C   UNL     1       1.850   7.882  18.796  0.00  0.00    +0.000 A 
ATOM     11  C   UNL     1       1.868   6.782  19.646  0.00  0.00    +0.000 A 
ATOM     12  O   UNL     1       1.494   7.169  20.907  0.00  0.00    +0.000 OA
ATOM     13  C   UNL     1       1.230   8.499  20.871  0.00  0.00    +0.000 A 
ATOM     14  C   UNL     1       0.819   9.271  21.956  0.00  0.00    +0.000 A 
ATOM     15  C   UNL     1       0.645  10.638  21.715  0.00  0.00    +0.000 A 
ATOM     16  C   UNL     1       0.865  11.169  20.445  0.00  0.00    +0.000 A 
ATOM     17  F   UNL     1       0.706  12.484  20.253  0.00  0.00    +0.000 F 
ATOM     18  C   UNL     1       1.254  10.371  19.366  0.00  0.00    +0.000 A 
ATOM     19  C   UNL     1       1.445   8.996  19.592  0.00  0.00    +0.000 A 
ENDBRANCH   1  11
BRANCH   6  20
ATOM     20  C   UNL     1       6.499   4.450  16.716  0.00  0.00    +0.000 A 
ATOM     21  N   UNL     1       7.326   5.235  16.056  0.00  0.00    +0.000 NA
ATOM     22  C   UNL     1       7.177   4.907  14.731  0.00  0.00    +0.000 A 
ATOM     23  C   UNL     1       7.805   5.438  13.596  0.00  0.00    +0.000 A 
ATOM     24  C   UNL     1       7.463   4.925  12.338  0.00  0.00    +0.000 A 
ATOM     25  C   UNL     1       6.518   3.903  12.216  0.00  0.00    +0.000 A 
ATOM     26  C   UNL     1       5.884   3.358  13.338  0.00  0.00    +0.000 A 
ATOM     27  C   UNL     1       6.243   3.890  14.577  0.00  0.00    +0.000 A 
ATOM     28  N   UNL     1       5.832   3.613  15.855  0.00  0.00    +0.000 N 
ATOM     29  H   UNL     1       5.151   2.916  16.115  0.00  0.00    +0.000 HD
ENDBRANCH   6  20
TORSDOF 2
ENDMDL
MODEL 8
REMARK VINA RESULT:      -7.4      3.816      8.650
REMARK  Name = 
REMARK  3 active torsions:
REMARK  status: ('A' for Active; 'I' for Inactive)
REMARK    1  A    between atoms: C_1  and  C_2
REMARK    2  A    between atoms: C_3  and  C_4
REMARK    3  A    between atoms: C_9  and  C_10
REMARK                            x       y       z     vdW  Elec       q    Type
REMARK                         _______ _______ _______ _____ _____    ______ ____
ROOT
ATOM      1  C   UNL     1       2.337   5.505  19.538  0.00  0.00    +0.000 C 
ATOM      2  O   UNL     1       1.694   4.575  20.036  0.00  0.00    +0.000 OA
ATOM      3  N   UNL     1       3.522   5.249  18.835  0.00  0.00    +0.000 N 
ATOM      4  C   UNL     1       3.800   3.880  18.405  0.00  0.00    +0.000 C 
ATOM      5  C   UNL     1       5.252   3.487  18.664  0.00  0.00    +0.000 C 
ATOM      6  C   UNL     1       6.253   4.515  18.125  0.00  0.00    +0.000 C 
ATOM      7  C   UNL     1       5.882   5.921  18.602  0.00  0.00    +0.000 C 
ATOM      8  C   UNL     1       4.425   6.278  18.320  0.00  0.00    +0.000 C 
ENDROOT
BRANCH   1  11
ATOM      9  C   UNL     1       2.143   7.886  17.343  0.00  0.00    +0.000 C 
ATOM     10  C   UNL     1       1.837   7.930  18.795  0.00  0.00    +0.000 A 
ATOM     11  C   UNL     1       1.897   6.880  19.706  0.00  0.00    +0.000 A 
ATOM     12  O   UNL     1       1.546   7.333  20.952  0.00  0.00    +0.000 OA
ATOM     13  C   UNL     1       1.256   8.654  20.847  0.00  0.00    +0.000 A 
ATOM     14  C   UNL     1       0.857   9.480  21.896  0.00  0.00    +0.000 A 
ATOM     15  C   UNL     1       0.651  10.827  21.582  0.00  0.00    +0.000 A 
ATOM     16  C   UNL     1       0.829  11.287  20.278  0.00  0.00    +0.000 A 
ATOM     17  F   UNL     1       0.640  12.587  20.015  0.00  0.00    +0.000 F 
ATOM     18  C   UNL     1       1.207  10.436  19.237  0.00  0.00    +0.000 A 
ATOM     19  C   UNL     1       1.430   9.080  19.536  0.00  0.00    +0.000 A 
ENDBRANCH   1  11
BRANCH   6  20
ATOM     20  C   UNL     1       6.379   4.448  16.630  0.00  0.00    +0.000 A 
ATOM     21  N   UNL     1       5.667   3.710  15.802  0.00  0.00    +0.000 NA
ATOM     22  C   UNL     1       6.154   3.980  14.547  0.00  0.00    +0.000 A 
ATOM     23  C   UNL     1       5.769   3.463  13.302  0.00  0.00    +0.000 A 
ATOM     24  C   UNL     1       6.443   3.904  12.155  0.00  0.00    +0.000 A 
ATOM     25  C   UNL     1       7.475   4.842  12.248  0.00  0.00    +0.000 A 
ATOM     26  C   UNL     1       7.869   5.372  13.482  0.00  0.00    +0.000 A 
ATOM     27  C   UNL     1       7.182   4.913  14.607  0.00  0.00    +0.000 A 
ATOM     28  N   UNL     1       7.300   5.199  15.942  0.00  0.00    +0.000 N 
ATOM     29  H   UNL     1       7.958   5.848  16.348  0.00  0.00    +0.000 HD
ENDBRANCH   6  20
TORSDOF 2
ENDMDL
MODEL 9
REMARK VINA RESULT:      -7.2      5.249      8.154
REMARK  Name = 
REMARK  3 active torsions:
REMARK  status: ('A' for Active; 'I' for Inactive)
REMARK    1  A    between atoms: C_1  and  C_2
REMARK    2  A    between atoms: C_3  and  C_4
REMARK    3  A    between atoms: C_9  and  C_10
REMARK                            x       y       z     vdW  Elec       q    Type
REMARK                         _______ _______ _______ _____ _____    ______ ____
ROOT
ATOM      1  C   UNL     1       2.296  13.876  20.669  0.00  0.00    +0.000 C 
ATOM      2  O   UNL     1       2.019  14.160  21.839  0.00  0.00    +0.000 OA
ATOM      3  N   UNL     1       3.526  14.260  20.120  0.00  0.00    +0.000 N 
ATOM      4  C   UNL     1       4.595  14.683  21.023  0.00  0.00    +0.000 C 
ATOM      5  C   UNL     1       5.309  15.932  20.512  0.00  0.00    +0.000 C 
ATOM      6  C   UNL     1       5.752  15.810  19.050  0.00  0.00    +0.000 C 
ATOM      7  C   UNL     1       4.585  15.346  18.177  0.00  0.00    +0.000 C 
ATOM      8  C   UNL     1       3.902  14.092  18.716  0.00  0.00    +0.000 C 
ENDROOT
BRANCH   1  11
ATOM      9  C   UNL     1      -0.258  15.040  19.042  0.00  0.00    +0.000 C 
ATOM     10  C   UNL     1       0.214  13.638  19.155  0.00  0.00    +0.000 A 
ATOM     11  C   UNL     1       1.336  13.173  19.834  0.00  0.00    +0.000 A 
ATOM     12  O   UNL     1       1.419  11.810  19.705  0.00  0.00    +0.000 OA
ATOM     13  C   UNL     1       0.371  11.401  18.947  0.00  0.00    +0.000 A 
ATOM     14  C   UNL     1       0.100  10.081  18.588  0.00  0.00    +0.000 A 
ATOM     15  C   UNL     1      -1.062   9.868  17.838  0.00  0.00    +0.000 A 
ATOM     16  C   UNL     1      -1.877  10.938  17.473  0.00  0.00    +0.000 A 
ATOM     17  F   UNL     1      -2.991  10.697  16.770  0.00  0.00    +0.000 F 
ATOM     18  C   UNL     1      -1.573  12.256  17.825  0.00  0.00    +0.000 A 
ATOM     19  C   UNL     1      -0.415  12.488  18.588  0.00  0.00    +0.000 A 
ENDBRANCH   1  11
BRANCH   6  20
ATOM     20  C   UNL     1       6.952  14.920  18.898  0.00  0.00    +0.000 A 
ATOM     21  N   UNL     1       7.270  14.182  17.852  0.00  0.00    +0.000 NA
ATOM     22  C   UNL     1       8.438  13.542  18.186  0.00  0.00    +0.000 A 
ATOM     23  C   UNL     1       9.207  12.631  17.450  0.00  0.00    +0.000 A 
ATOM     24  C   UNL     1      10.370  12.110  18.032  0.00  0.00    +0.000 A 
ATOM     25  C   UNL     1      10.758  12.492  19.320  0.00  0.00    +0.000 A 
ATOM     26  C   UNL     1      10.004  13.403  20.068  0.00  0.00    +0.000 A 
ATOM     27  C   UNL     1       8.850  13.904  19.463  0.00  0.00    +0.000 A 
ATOM     28  N   UNL     1       7.892  14.786  19.890  0.00  0.00    +0.000 N 
ATOM     29  H   UNL     1       7.879  15.251  20.785  0.00  0.00    +0.000 HD
ENDBRANCH   6  20
TORSDOF 2
ENDMDL
