MODEL 1
REMARK VINA RESULT:      -8.9      0.000      0.000
REMARK  Name = 
REMARK  5 active torsions:
REMARK  status: ('A' for Active; 'I' for Inactive)
REMARK    1  A    between atoms: C_2  and  C_3
REMARK    2  A    between atoms: C_7  and  N_8
REMARK    3  A    between atoms: C_13  and  C_14
REMARK    4  A    between atoms: C_14  and  N_15
REMARK    5  A    between atoms: C_21  and  C_22
REMARK                            x       y       z     vdW  Elec       q    Type
REMARK                         _______ _______ _______ _____ _____    ______ ____
ROOT
ATOM      1  N   UNL     1       1.705   7.811  19.864  0.00  0.00    +0.000 N 
ATOM      2  C   UNL     1       1.666   6.528  20.566  0.00  0.00    +0.000 C 
ATOM      3  C   UNL     1       2.446   5.618  19.660  0.00  0.00    +0.000 A 
ATOM      4  C   UNL     1       2.901   6.352  18.571  0.00  0.00    +0.000 A 
ATOM      5  C   UNL     1       3.698   5.838  17.569  0.00  0.00    +0.000 A 
ATOM      6  C   UNL     1       4.076   4.498  17.649  0.00  0.00    +0.000 A 
ATOM      7  C   UNL     1       3.606   3.726  18.741  0.00  0.00    +0.000 A 
ATOM      8  C   UNL     1       2.771   4.269  19.755  0.00  0.00    +0.000 A 
ATOM      9  C   UNL     1       2.437   7.726  18.683  0.00  0.00    +0.000 C 
ATOM     10  O   UNL     1       2.728   8.566  17.853  0.00  0.00    +0.000 OA
ENDROOT
BRANCH   1  15
ATOM     11  C   UNL     1       0.072  11.173  19.948  0.00  0.00    +0.000 A 
ATOM     12  C   UNL     1      -0.230  11.292  21.308  0.00  0.00    +0.000 A 
ATOM     13  C   UNL     1       0.131  10.277  22.183  0.00  0.00    +0.000 A 
ATOM     14  C   UNL     1       0.775   9.141  21.695  0.00  0.00    +0.000 A 
ATOM     15  C   UNL     1       1.086   8.996  20.333  0.00  0.00    +0.000 A 
ATOM     16  C   UNL     1       0.743  10.037  19.465  0.00  0.00    +0.000 A 
BRANCH  11  18
ATOM     17  N   UNL     1      -0.670  13.044  18.314  0.00  0.00    +0.000 NA
ATOM     18  C   UNL     1      -0.335  12.205  19.043  0.00  0.00    +0.000 C 
ENDBRANCH  11  18
ENDBRANCH   1  15
BRANCH   8  19
ATOM     19  C   UNL     1       2.279   3.383  20.872  0.00  0.00    +0.000 C 
ATOM     20  F   UNL     1       0.965   3.047  20.757  0.00  0.00    +0.000 F 
ATOM     21  F   UNL     1       2.958   2.207  20.943  0.00  0.00    +0.000 F 
ATOM     22  F   UNL     1       2.407   3.966  22.095  0.00  0.00    +0.000 F 
ENDBRANCH   8  19
BRANCH   6  23
ATOM     23  C   UNL     1       5.028   3.943  16.606  0.00  0.00    +0.000 C 
BRANCH  23  24
ATOM     24  N   UNL     1       6.455   4.235  16.731  0.00  0.00    +0.000 NA
ATOM     25  C   UNL     1       6.888   4.755  18.019  0.00  0.00    +0.000 C 
ATOM     26  C   UNL     1       7.318   6.143  17.673  0.00  0.00    +0.000 C 
ATOM     27  N   UNL     1       7.366   6.444  16.418  0.00  0.00    +0.000 NA
ATOM     28  C   UNL     1       6.960   5.193  15.754  0.00  0.00    +0.000 C 
ENDBRANCH  23  24
ENDBRANCH   6  23
TORSDOF 5
ENDMDL
MODEL 2
REMARK VINA RESULT:      -8.8      0.824      1.376
REMARK  Name = 
REMARK  5 active torsions:
REMARK  status: ('A' for Active; 'I' for Inactive)
REMARK    1  A    between atoms: C_2  and  C_3
REMARK    2  A    between atoms: C_7  and  N_8
REMARK    3  A    between atoms: C_13  and  C_14
REMARK    4  A    between atoms: C_14  and  N_15
REMARK    5  A    between atoms: C_21  and  C_22
REMARK                            x       y       z     vdW  Elec       q    Type
REMARK                         _______ _______ _______ _____ _____    ______ ____
ROOT
ATOM      1  N   UNL     1       1.505   7.811  20.234  0.00  0.00    +0.000 N 
ATOM      2  C   UNL     1       1.471   6.496  20.873  0.00  0.00    +0.000 C 
ATOM      3  C   UNL     1       2.263   5.635  19.929  0.00  0.00    +0.000 A 
ATOM      4  C   UNL     1       2.718   6.423  18.879  0.00  0.00    +0.000 A 
ATOM      5  C   UNL     1       3.524   5.963  17.858  0.00  0.00    +0.000 A 
ATOM      6  C   UNL     1       3.910   4.624  17.876  0.00  0.00    +0.000 A 
ATOM      7  C   UNL     1       3.439   3.797  18.926  0.00  0.00    +0.000 A 
ATOM      8  C   UNL     1       2.596   4.285  19.960  0.00  0.00    +0.000 A 
ATOM      9  C   UNL     1       2.244   7.788  19.054  0.00  0.00    +0.000 C 
ATOM     10  O   UNL     1       2.534   8.668  18.268  0.00  0.00    +0.000 OA
ENDROOT
BRANCH   1  15
ATOM     11  C   UNL     1      -0.161  11.149  20.469  0.00  0.00    +0.000 A 
ATOM     12  C   UNL     1      -0.460  11.206  21.833  0.00  0.00    +0.000 A 
ATOM     13  C   UNL     1      -0.086  10.158  22.663  0.00  0.00    +0.000 A 
ATOM     14  C   UNL     1       0.568   9.051  22.124  0.00  0.00    +0.000 A 
ATOM     15  C   UNL     1       0.876   8.968  20.756  0.00  0.00    +0.000 A 
ATOM     16  C   UNL     1       0.519  10.042  19.934  0.00  0.00    +0.000 A 
BRANCH  11  18
ATOM     17  N   UNL     1      -0.923  13.084  18.920  0.00  0.00    +0.000 NA
ATOM     18  C   UNL     1      -0.582  12.215  19.610  0.00  0.00    +0.000 C 
ENDBRANCH  11  18
ENDBRANCH   1  15
BRANCH   8  19
ATOM     19  C   UNL     1       2.104   3.343  21.031  0.00  0.00    +0.000 C 
ATOM     20  F   UNL     1       2.645   2.097  20.946  0.00  0.00    +0.000 F 
ATOM     21  F   UNL     1       2.388   3.787  22.285  0.00  0.00    +0.000 F 
ATOM     22  F   UNL     1       0.756   3.166  20.991  0.00  0.00    +0.000 F 
ENDBRANCH   8  19
BRANCH   6  23
ATOM     23  C   UNL     1       4.871   4.126  16.812  0.00  0.00    +0.000 C 
BRANCH  23  24
ATOM     24  N   UNL     1       5.322   5.059  15.780  0.00  0.00    +0.000 NA
ATOM     25  C   UNL     1       5.456   4.509  14.440  0.00  0.00    +0.000 C 
ATOM     26  C   UNL     1       6.931   4.589  14.210  0.00  0.00    +0.000 C 
ATOM     27  N   UNL     1       7.625   5.229  15.092  0.00  0.00    +0.000 NA
ATOM     28  C   UNL     1       6.610   5.685  16.057  0.00  0.00    +0.000 C 
ENDBRANCH  23  24
ENDBRANCH   6  23
TORSDOF 5
ENDMDL
MODEL 3
REMARK VINA RESULT:      -8.7      1.170      1.630
REMARK  Name = 
REMARK  5 active torsions:
REMARK  status: ('A' for Active; 'I' for Inactive)
REMARK    1  A    between atoms: C_2  and  C_3
REMARK    2  A    between atoms: C_7  and  N_8
REMARK    3  A    between atoms: C_13  and  C_14
REMARK    4  A    between atoms: C_14  and  N_15
REMARK    5  A    between atoms: C_21  and  C_22
REMARK                            x       y       z     vdW  Elec       q    Type
REMARK                         _______ _______ _______ _____ _____    ______ ____
ROOT
ATOM      1  N   UNL     1       1.797   8.117  19.241  0.00  0.00    +0.000 N 
ATOM      2  C   UNL     1       1.706   6.930  20.090  0.00  0.00    +0.000 C 
ATOM      3  C   UNL     1       2.495   5.902  19.329  0.00  0.00    +0.000 A 
ATOM      4  C   UNL     1       3.002   6.490  18.176  0.00  0.00    +0.000 A 
ATOM      5  C   UNL     1       3.820   5.843  17.272  0.00  0.00    +0.000 A 
ATOM      6  C   UNL     1       4.164   4.516  17.527  0.00  0.00    +0.000 A 
ATOM      7  C   UNL     1       3.641   3.891  18.686  0.00  0.00    +0.000 A 
ATOM      8  C   UNL     1       2.786   4.568  19.597  0.00  0.00    +0.000 A 
ATOM      9  C   UNL     1       2.566   7.876  18.105  0.00  0.00    +0.000 C 
ATOM     10  O   UNL     1       2.904   8.604  17.191  0.00  0.00    +0.000 OA
ENDROOT
BRANCH   1  15
ATOM     11  C   UNL     1      -0.023  10.839  21.044  0.00  0.00    +0.000 A 
ATOM     12  C   UNL     1       0.084  11.889  20.127  0.00  0.00    +0.000 A 
ATOM     13  C   UNL     1       0.730  11.680  18.915  0.00  0.00    +0.000 A 
ATOM     14  C   UNL     1       1.282  10.431  18.634  0.00  0.00    +0.000 A 
ATOM     15  C   UNL     1       1.191   9.362  19.541  0.00  0.00    +0.000 A 
ATOM     16  C   UNL     1       0.514   9.575  20.745  0.00  0.00    +0.000 A 
BRANCH  11  18
ATOM     17  N   UNL     1      -1.173  11.262  23.329  0.00  0.00    +0.000 NA
ATOM     18  C   UNL     1      -0.657  11.069  22.307  0.00  0.00    +0.000 C 
ENDBRANCH  11  18
ENDBRANCH   1  15
BRANCH   8  19
ATOM     19  C   UNL     1       2.237   3.834  20.795  0.00  0.00    +0.000 C 
ATOM     20  F   UNL     1       0.880   3.718  20.783  0.00  0.00    +0.000 F 
ATOM     21  F   UNL     1       2.717   2.565  20.893  0.00  0.00    +0.000 F 
ATOM     22  F   UNL     1       2.547   4.446  21.969  0.00  0.00    +0.000 F 
ENDBRANCH   8  19
BRANCH   6  23
ATOM     23  C   UNL     1       5.137   3.821  16.592  0.00  0.00    +0.000 C 
BRANCH  23  24
ATOM     24  N   UNL     1       6.553   4.181  16.658  0.00  0.00    +0.000 NA
ATOM     25  C   UNL     1       7.018   4.706  17.933  0.00  0.00    +0.000 C 
ATOM     26  C   UNL     1       7.365   6.118  17.588  0.00  0.00    +0.000 C 
ATOM     27  N   UNL     1       7.342   6.435  16.335  0.00  0.00    +0.000 NA
ATOM     28  C   UNL     1       6.967   5.174  15.673  0.00  0.00    +0.000 C 
ENDBRANCH  23  24
ENDBRANCH   6  23
TORSDOF 5
ENDMDL
MODEL 4
REMARK VINA RESULT:      -8.5      1.895      7.380
REMARK  Name = 
REMARK  5 active torsions:
REMARK  status: ('A' for Active; 'I' for Inactive)
REMARK    1  A    between atoms: C_2  and  C_3
REMARK    2  A    between atoms: C_7  and  N_8
REMARK    3  A    between atoms: C_13  and  C_14
REMARK    4  A    between atoms: C_14  and  N_15
REMARK    5  A    between atoms: C_21  and  C_22
REMARK                            x       y       z     vdW  Elec       q    Type
REMARK                         _______ _______ _______ _____ _____    ______ ____
ROOT
ATOM      1  N   UNL     1       4.579   4.977  17.178  0.00  0.00    +0.000 N 
ATOM      2  C   UNL     1       4.132   3.888  18.047  0.00  0.00    +0.000 C 
ATOM      3  C   UNL     1       3.262   4.589  19.053  0.00  0.00    +0.000 A 
ATOM      4  C   UNL     1       3.213   5.941  18.739  0.00  0.00    +0.000 A 
ATOM      5  C   UNL     1       2.459   6.870  19.427  0.00  0.00    +0.000 A 
ATOM      6  C   UNL     1       1.695   6.428  20.507  0.00  0.00    +0.000 A 
ATOM      7  C   UNL     1       1.747   5.056  20.858  0.00  0.00    +0.000 A 
ATOM      8  C   UNL     1       2.543   4.117  20.147  0.00  0.00    +0.000 A 
ATOM      9  C   UNL     1       4.041   6.199  17.570  0.00  0.00    +0.000 C 
ATOM     10  O   UNL     1       4.138   7.313  17.092  0.00  0.00    +0.000 OA
ENDROOT
BRANCH   1  15
ATOM     11  C   UNL     1       5.884   4.043  13.802  0.00  0.00    +0.000 A 
ATOM     12  C   UNL     1       7.172   4.584  13.851  0.00  0.00    +0.000 A 
ATOM     13  C   UNL     1       7.604   5.226  15.004  0.00  0.00    +0.000 A 
ATOM     14  C   UNL     1       6.743   5.340  16.094  0.00  0.00    +0.000 A 
ATOM     15  C   UNL     1       5.443   4.808  16.068  0.00  0.00    +0.000 A 
ATOM     16  C   UNL     1       5.028   4.139  14.912  0.00  0.00    +0.000 A 
BRANCH  11  18
ATOM     17  N   UNL     1       5.066   2.900  11.623  0.00  0.00    +0.000 NA
ATOM     18  C   UNL     1       5.430   3.414  12.598  0.00  0.00    +0.000 C 
ENDBRANCH  11  18
ENDBRANCH   1  15
BRANCH   8  19
ATOM     19  C   UNL     1       2.579   2.677  20.593  0.00  0.00    +0.000 C 
ATOM     20  F   UNL     1       2.122   1.807  19.649  0.00  0.00    +0.000 F 
ATOM     21  F   UNL     1       3.834   2.260  20.906  0.00  0.00    +0.000 F 
ATOM     22  F   UNL     1       1.820   2.454  21.700  0.00  0.00    +0.000 F 
ENDBRANCH   8  19
BRANCH   6  23
ATOM     23  C   UNL     1       0.790   7.419  21.215  0.00  0.00    +0.000 C 
BRANCH  23  24
ATOM     24  N   UNL     1       1.147   8.837  21.194  0.00  0.00    +0.000 NA
ATOM     25  C   UNL     1       1.007   9.546  22.457  0.00  0.00    +0.000 C 
ATOM     26  C   UNL     1      -0.096  10.509  22.159  0.00  0.00    +0.000 C 
ATOM     27  N   UNL     1      -0.486  10.589  20.929  0.00  0.00    +0.000 NA
ATOM     28  C   UNL     1       0.392   9.633  20.234  0.00  0.00    +0.000 C 
ENDBRANCH  23  24
ENDBRANCH   6  23
TORSDOF 5
ENDMDL
MODEL 5
REMARK VINA RESULT:      -8.5      1.145      1.408
REMARK  Name = 
REMARK  5 active torsions:
REMARK  status: ('A' for Active; 'I' for Inactive)
REMARK    1  A    between atoms: C_2  and  C_3
REMARK    2  A    between atoms: C_7  and  N_8
REMARK    3  A    between atoms: C_13  and  C_14
REMARK    4  A    between atoms: C_14  and  N_15
REMARK    5  A    between atoms: C_21  and  C_22
REMARK                            x       y       z     vdW  Elec       q    Type
REMARK                         _______ _______ _______ _____ _____    ______ ____
ROOT
ATOM      1  N   UNL     1       1.461   8.229  20.131  0.00  0.00    +0.000 N 
ATOM      2  C   UNL     1       1.675   6.829  20.494  0.00  0.00    +0.000 C 
ATOM      3  C   UNL     1       2.531   6.312  19.372  0.00  0.00    +0.000 A 
ATOM      4  C   UNL     1       2.790   7.353  18.489  0.00  0.00    +0.000 A 
ATOM      5  C   UNL     1       3.592   7.240  17.372  0.00  0.00    +0.000 A 
ATOM      6  C   UNL     1       4.185   6.006  17.108  0.00  0.00    +0.000 A 
ATOM      7  C   UNL     1       3.918   4.925  17.985  0.00  0.00    +0.000 A 
ATOM      8  C   UNL     1       3.075   5.056  19.121  0.00  0.00    +0.000 A 
ATOM      9  C   UNL     1       2.118   8.559  18.948  0.00  0.00    +0.000 C 
ATOM     10  O   UNL     1       2.216   9.611  18.347  0.00  0.00    +0.000 OA
ENDROOT
BRANCH   1  15
ATOM     11  C   UNL     1      -0.823  11.037  21.065  0.00  0.00    +0.000 A 
ATOM     12  C   UNL     1      -0.901  10.872  22.452  0.00  0.00    +0.000 A 
ATOM     13  C   UNL     1      -0.179   9.856  23.064  0.00  0.00    +0.000 A 
ATOM     14  C   UNL     1       0.600   8.999  22.288  0.00  0.00    +0.000 A 
ATOM     15  C   UNL     1       0.691   9.143  20.894  0.00  0.00    +0.000 A 
ATOM     16  C   UNL     1      -0.017  10.186  20.291  0.00  0.00    +0.000 A 
BRANCH  11  18
ATOM     17  N   UNL     1      -2.231  12.889  19.921  0.00  0.00    +0.000 NA
ATOM     18  C   UNL     1      -1.598  12.063  20.434  0.00  0.00    +0.000 C 
ENDBRANCH  11  18
ENDBRANCH   1  15
BRANCH   8  19
ATOM     19  C   UNL     1       2.806   3.856  19.995  0.00  0.00    +0.000 C 
ATOM     20  F   UNL     1       1.598   3.274  19.757  0.00  0.00    +0.000 F 
ATOM     21  F   UNL     1       3.731   2.874  19.830  0.00  0.00    +0.000 F 
ATOM     22  F   UNL     1       2.814   4.164  21.321  0.00  0.00    +0.000 F 
ENDBRANCH   8  19
BRANCH   6  23
ATOM     23  C   UNL     1       5.144   5.891  15.937  0.00  0.00    +0.000 C 
BRANCH  23  24
ATOM     24  N   UNL     1       6.582   5.919  16.202  0.00  0.00    +0.000 NA
ATOM     25  C   UNL     1       7.217   4.627  16.409  0.00  0.00    +0.000 C 
ATOM     26  C   UNL     1       7.631   4.703  17.843  0.00  0.00    +0.000 C 
ATOM     27  N   UNL     1       7.500   5.848  18.428  0.00  0.00    +0.000 NA
ATOM     28  C   UNL     1       6.964   6.713  17.364  0.00  0.00    +0.000 C 
ENDBRANCH  23  24
ENDBRANCH   6  23
TORSDOF 5
ENDMDL
MODEL 6
REMARK VINA RESULT:      -8.4      1.371      1.769
REMARK  Name = 
REMARK  5 active torsions:
REMARK  status: ('A' for Active; 'I' for Inactive)
REMARK    1  A    between atoms: C_2  and  C_3
REMARK    2  A    between atoms: C_7  and  N_8
REMARK    3  A    between atoms: C_13  and  C_14
REMARK    4  A    between atoms: C_14  and  N_15
REMARK    5  A    between atoms: C_21  and  C_22
REMARK                            x       y       z     vdW  Elec       q    Type
REMARK                         _______ _______ _______ _____ _____    ______ ____
ROOT
ATOM      1  N   UNL     1       1.416   8.799  19.323  0.00  0.00    +0.000 N 
ATOM      2  C   UNL     1       1.586   7.485  19.945  0.00  0.00    +0.000 C 
ATOM      3  C   UNL     1       2.549   6.792  19.022  0.00  0.00    +0.000 A 
ATOM      4  C   UNL     1       2.900   7.667  18.002  0.00  0.00    +0.000 A 
ATOM      5  C   UNL     1       3.812   7.372  17.008  0.00  0.00    +0.000 A 
ATOM      6  C   UNL     1       4.423   6.119  17.025  0.00  0.00    +0.000 A 
ATOM      7  C   UNL     1       4.063   5.203  18.045  0.00  0.00    +0.000 A 
ATOM      8  C   UNL     1       3.109   5.519  19.051  0.00  0.00    +0.000 A 
ATOM      9  C   UNL     1       2.191   8.925  18.174  0.00  0.00    +0.000 C 
ATOM     10  O   UNL     1       2.355   9.858  17.411  0.00  0.00    +0.000 OA
ENDROOT
BRANCH   1  15
ATOM     11  C   UNL     1      -1.399  11.231  19.692  0.00  0.00    +0.000 A 
ATOM     12  C   UNL     1      -1.111  11.790  20.940  0.00  0.00    +0.000 A 
ATOM     13  C   UNL     1       0.021  11.379  21.632  0.00  0.00    +0.000 A 
ATOM     14  C   UNL     1       0.847  10.400  21.084  0.00  0.00    +0.000 A 
ATOM     15  C   UNL     1       0.577   9.820  19.833  0.00  0.00    +0.000 A 
ATOM     16  C   UNL     1      -0.550  10.262  19.132  0.00  0.00    +0.000 A 
BRANCH  11  18
ATOM     17  N   UNL     1      -3.553  11.948  18.439  0.00  0.00    +0.000 NA
ATOM     18  C   UNL     1      -2.587  11.630  18.999  0.00  0.00    +0.000 C 
ENDBRANCH  11  18
ENDBRANCH   1  15
BRANCH   8  19
ATOM     19  C   UNL     1       2.747   4.487  20.089  0.00  0.00    +0.000 C 
ATOM     20  F   UNL     1       2.657   4.996  21.349  0.00  0.00    +0.000 F 
ATOM     21  F   UNL     1       1.548   3.897  19.841  0.00  0.00    +0.000 F 
ATOM     22  F   UNL     1       3.656   3.477  20.161  0.00  0.00    +0.000 F 
ENDBRANCH   8  19
BRANCH   6  23
ATOM     23  C   UNL     1       5.495   5.814  15.995  0.00  0.00    +0.000 C 
BRANCH  23  24
ATOM     24  N   UNL     1       6.898   5.865  16.406  0.00  0.00    +0.000 NA
ATOM     25  C   UNL     1       7.434   4.647  16.993  0.00  0.00    +0.000 C 
ATOM     26  C   UNL     1       7.703   5.067  18.402  0.00  0.00    +0.000 C 
ATOM     27  N   UNL     1       7.578   6.324  18.671  0.00  0.00    +0.000 NA
ATOM     28  C   UNL     1       7.203   6.912  17.374  0.00  0.00    +0.000 C 
ENDBRANCH  23  24
ENDBRANCH   6  23
TORSDOF 5
ENDMDL
MODEL 7
REMARK VINA RESULT:      -8.4      1.123      1.565
REMARK  Name = 
REMARK  5 active torsions:
REMARK  status: ('A' for Active; 'I' for Inactive)
REMARK    1  A    between atoms: C_2  and  C_3
REMARK    2  A    between atoms: C_7  and  N_8
REMARK    3  A    between atoms: C_13  and  C_14
REMARK    4  A    between atoms: C_14  and  N_15
REMARK    5  A    between atoms: C_21  and  C_22
REMARK                            x       y       z     vdW  Elec       q    Type
REMARK                         _______ _______ _______ _____ _____    ______ ____
ROOT
ATOM      1  N   UNL     1       1.143   8.233  20.547  0.00  0.00    +0.000 N 
ATOM      2  C   UNL     1       1.259   6.854  21.022  0.00  0.00    +0.000 C 
ATOM      3  C   UNL     1       2.091   6.194  19.959  0.00  0.00    +0.000 A 
ATOM      4  C   UNL     1       2.428   7.142  19.000  0.00  0.00    +0.000 A 
ATOM      5  C   UNL     1       3.233   6.888  17.909  0.00  0.00    +0.000 A 
ATOM      6  C   UNL     1       3.744   5.600  17.753  0.00  0.00    +0.000 A 
ATOM      7  C   UNL     1       3.396   4.612  18.707  0.00  0.00    +0.000 A 
ATOM      8  C   UNL     1       2.552   4.889  19.816  0.00  0.00    +0.000 A 
ATOM      9  C   UNL     1       1.834   8.422  19.353  0.00  0.00    +0.000 C 
ATOM     10  O   UNL     1       2.008   9.414  18.672  0.00  0.00    +0.000 OA
ENDROOT
BRANCH   1  15
ATOM     11  C   UNL     1      -0.816  11.341  21.233  0.00  0.00    +0.000 A 
ATOM     12  C   UNL     1      -1.070  11.204  22.601  0.00  0.00    +0.000 A 
ATOM     13  C   UNL     1      -0.570  10.104  23.285  0.00  0.00    +0.000 A 
ATOM     14  C   UNL     1       0.163   9.139  22.598  0.00  0.00    +0.000 A 
ATOM     15  C   UNL     1       0.428   9.252  21.223  0.00  0.00    +0.000 A 
ATOM     16  C   UNL     1      -0.056  10.378  20.550  0.00  0.00    +0.000 A 
BRANCH  11  18
ATOM     17  N   UNL     1      -1.811  13.366  19.955  0.00  0.00    +0.000 NA
ATOM     18  C   UNL     1      -1.365  12.458  20.524  0.00  0.00    +0.000 C 
ENDBRANCH  11  18
ENDBRANCH   1  15
BRANCH   8  19
ATOM     19  C   UNL     1       2.193   3.783  20.778  0.00  0.00    +0.000 C 
ATOM     20  F   UNL     1       2.514   4.066  22.071  0.00  0.00    +0.000 F 
ATOM     21  F   UNL     1       0.863   3.504  20.778  0.00  0.00    +0.000 F 
ATOM     22  F   UNL     1       2.824   2.613  20.487  0.00  0.00    +0.000 F 
ENDBRANCH   8  19
BRANCH   6  23
ATOM     23  C   UNL     1       4.706   5.329  16.610  0.00  0.00    +0.000 C 
BRANCH  23  24
ATOM     24  N   UNL     1       6.105   5.728  16.759  0.00  0.00    +0.000 NA
ATOM     25  C   UNL     1       7.094   4.737  16.365  0.00  0.00    +0.000 C 
ATOM     26  C   UNL     1       7.748   4.406  17.667  0.00  0.00    +0.000 C 
ATOM     27  N   UNL     1       7.430   5.138  18.683  0.00  0.00    +0.000 NA
ATOM     28  C   UNL     1       6.479   6.110  18.116  0.00  0.00    +0.000 C 
ENDBRANCH  23  24
ENDBRANCH   6  23
TORSDOF 5
ENDMDL
MODEL 8
REMARK VINA RESULT:      -8.2      2.133      7.491
REMARK  Name = 
REMARK  5 active torsions:
REMARK  status: ('A' for Active; 'I' for Inactive)
REMARK    1  A    between atoms: C_2  and  C_3
REMARK    2  A    between atoms: C_7  and  N_8
REMARK    3  A    between atoms: C_13  and  C_14
REMARK    4  A    between atoms: C_14  and  N_15
REMARK    5  A    between atoms: C_21  and  C_22
REMARK                            x       y       z     vdW  Elec       q    Type
REMARK                         _______ _______ _______ _____ _____    ______ ____
ROOT
ATOM      1  N   UNL     1       4.413   4.962  16.842  0.00  0.00    +0.000 N 
ATOM      2  C   UNL     1       3.520   3.973  17.445  0.00  0.00    +0.000 C 
ATOM      3  C   UNL     1       2.879   4.733  18.572  0.00  0.00    +0.000 A 
ATOM      4  C   UNL     1       3.357   6.037  18.562  0.00  0.00    +0.000 A 
ATOM      5  C   UNL     1       2.936   7.024  19.430  0.00  0.00    +0.000 A 
ATOM      6  C   UNL     1       1.967   6.697  20.378  0.00  0.00    +0.000 A 
ATOM      7  C   UNL     1       1.481   5.367  20.420  0.00  0.00    +0.000 A 
ATOM      8  C   UNL     1       1.940   4.360  19.528  0.00  0.00    +0.000 A 
ATOM      9  C   UNL     1       4.326   6.192  17.487  0.00  0.00    +0.000 C 
ATOM     10  O   UNL     1       4.867   7.258  17.266  0.00  0.00    +0.000 OA
ENDROOT
BRANCH   1  15
ATOM     11  C   UNL     1       5.612   3.892  13.466  0.00  0.00    +0.000 A 
ATOM     12  C   UNL     1       6.947   4.305  13.510  0.00  0.00    +0.000 A 
ATOM     13  C   UNL     1       7.442   4.906  14.660  0.00  0.00    +0.000 A 
ATOM     14  C   UNL     1       6.599   5.108  15.751  0.00  0.00    +0.000 A 
ATOM     15  C   UNL     1       5.253   4.705  15.730  0.00  0.00    +0.000 A 
ATOM     16  C   UNL     1       4.772   4.076  14.577  0.00  0.00    +0.000 A 
BRANCH  11  18
ATOM     17  N   UNL     1       4.671   2.830  11.296  0.00  0.00    +0.000 NA
ATOM     18  C   UNL     1       5.095   3.306  12.266  0.00  0.00    +0.000 C 
ENDBRANCH  11  18
ENDBRANCH   1  15
BRANCH   8  19
ATOM     19  C   UNL     1       1.404   2.955  19.647  0.00  0.00    +0.000 C 
ATOM     20  F   UNL     1       0.597   2.594  18.611  0.00  0.00    +0.000 F 
ATOM     21  F   UNL     1       2.393   2.023  19.689  0.00  0.00    +0.000 F 
ATOM     22  F   UNL     1       0.665   2.771  20.774  0.00  0.00    +0.000 F 
ENDBRANCH   8  19
BRANCH   6  23
ATOM     23  C   UNL     1       1.426   7.793  21.277  0.00  0.00    +0.000 C 
BRANCH  23  24
ATOM     24  N   UNL     1       0.381   8.676  20.758  0.00  0.00    +0.000 NA
ATOM     25  C   UNL     1       0.837   9.786  19.935  0.00  0.00    +0.000 C 
ATOM     26  C   UNL     1       0.484  10.970  20.776  0.00  0.00    +0.000 C 
ATOM     27  N   UNL     1      -0.228  10.746  21.831  0.00  0.00    +0.000 NA
ATOM     28  C   UNL     1      -0.451   9.291  21.786  0.00  0.00    +0.000 C 
ENDBRANCH  23  24
ENDBRANCH   6  23
TORSDOF 5
ENDMDL
MODEL 9
REMARK VINA RESULT:      -8.2      2.615      7.969
REMARK  Name = 
REMARK  5 active torsions:
REMARK  status: ('A' for Active; 'I' for Inactive)
REMARK    1  A    between atoms: C_2  and  C_3
REMARK    2  A    between atoms: C_7  and  N_8
REMARK    3  A    between atoms: C_13  and  C_14
REMARK    4  A    between atoms: C_14  and  N_15
REMARK    5  A    between atoms: C_21  and  C_22
REMARK                            x       y       z     vdW  Elec       q    Type
REMARK                         _______ _______ _______ _____ _____    ______ ____
ROOT
ATOM      1  N   UNL     1       2.167   7.460  19.056  0.00  0.00    +0.000 N 
ATOM      2  C   UNL     1       1.527   7.688  20.351  0.00  0.00    +0.000 C 
ATOM      3  C   UNL     1       1.046   9.109  20.250  0.00  0.00    +0.000 A 
ATOM      4  C   UNL     1       1.369   9.602  18.992  0.00  0.00    +0.000 A 
ATOM      5  C   UNL     1       1.025  10.861  18.542  0.00  0.00    +0.000 A 
ATOM      6  C   UNL     1       0.308  11.695  19.399  0.00  0.00    +0.000 A 
ATOM      7  C   UNL     1      -0.012  11.219  20.695  0.00  0.00    +0.000 A 
ATOM      8  C   UNL     1       0.364   9.925  21.147  0.00  0.00    +0.000 A 
ATOM      9  C   UNL     1       2.078   8.582  18.236  0.00  0.00    +0.000 C 
ATOM     10  O   UNL     1       2.446   8.775  17.093  0.00  0.00    +0.000 OA
ENDROOT
BRANCH   1  15
ATOM     11  C   UNL     1       4.770   4.876  18.333  0.00  0.00    +0.000 A 
ATOM     12  C   UNL     1       3.973   3.774  18.006  0.00  0.00    +0.000 A 
ATOM     13  C   UNL     1       2.591   3.904  18.002  0.00  0.00    +0.000 A 
ATOM     14  C   UNL     1       2.011   5.125  18.341  0.00  0.00    +0.000 A 
ATOM     15  C   UNL     1       2.790   6.245  18.677  0.00  0.00    +0.000 A 
ATOM     16  C   UNL     1       4.181   6.111  18.651  0.00  0.00    +0.000 A 
BRANCH  11  18
ATOM     17  N   UNL     1       7.348   4.611  18.400  0.00  0.00    +0.000 NA
ATOM     18  C   UNL     1       6.194   4.728  18.373  0.00  0.00    +0.000 C 
ENDBRANCH  11  18
ENDBRANCH   1  15
BRANCH   8  19
ATOM     19  C   UNL     1       0.019   9.492  22.550  0.00  0.00    +0.000 C 
ATOM     20  F   UNL     1      -0.613  10.457  23.273  0.00  0.00    +0.000 F 
ATOM     21  F   UNL     1      -0.804   8.411  22.574  0.00  0.00    +0.000 F 
ATOM     22  F   UNL     1       1.118   9.146  23.274  0.00  0.00    +0.000 F 
ENDBRANCH   8  19
BRANCH   6  23
ATOM     23  C   UNL     1      -0.157  13.045  18.886  0.00  0.00    +0.000 C 
BRANCH  23  24
ATOM     24  N   UNL     1       0.233  14.248  19.621  0.00  0.00    +0.000 NA
ATOM     25  C   UNL     1      -0.258  15.508  19.085  0.00  0.00    +0.000 C 
ATOM     26  C   UNL     1       1.004  16.179  18.647  0.00  0.00    +0.000 C 
ATOM     27  N   UNL     1       2.114  15.612  18.986  0.00  0.00    +0.000 NA
ATOM     28  C   UNL     1       1.673  14.433  19.751  0.00  0.00    +0.000 C 
ENDBRANCH  23  24
ENDBRANCH   6  23
TORSDOF 5
ENDMDL
