MODEL 1
REMARK VINA RESULT:      -9.1      0.000      0.000
REMARK  Name = 
REMARK  2 active torsions:
REMARK  status: ('A' for Active; 'I' for Inactive)
REMARK    1  A    between atoms: C_7  and  C_8
REMARK    2  A    between atoms: N_10  and  C_11
REMARK                            x       y       z     vdW  Elec       q    Type
REMARK                         _______ _______ _______ _____ _____    ______ ____
ROOT
ATOM      1  C   UNL     1       7.907   8.683  18.004  0.00  0.00    +0.000 C 
ATOM      2  O   UNL     1       7.553   9.407  17.078  0.00  0.00    +0.000 OA
ATOM      3  N   UNL     1       8.808   9.008  19.006  0.00  0.00    +0.000 N 
ATOM      4  H   UNL     1       9.156   8.259  19.589  0.00  0.00    +0.000 HD
ENDROOT
BRANCH   3   5
ATOM      5  C   UNL     1       9.467  10.261  19.126  0.00  0.00    +0.000 A 
ATOM      6  C   UNL     1       9.685  10.883  20.372  0.00  0.00    +0.000 A 
ATOM      7  C   UNL     1      10.273  12.148  20.474  0.00  0.00    +0.000 A 
ATOM      8  C   UNL     1      10.648  12.792  19.314  0.00  0.00    +0.000 A 
ATOM      9  C   UNL     1      10.462  12.171  18.061  0.00  0.00    +0.000 A 
ATOM     10  C   UNL     1       9.893  10.905  17.954  0.00  0.00    +0.000 A 
ATOM     11  C   UNL     1      10.933  13.100  16.954  0.00  0.00    +0.000 C 
ATOM     12  C   UNL     1      11.418  14.310  17.734  0.00  0.00    +0.000 A 
ATOM     13  C   UNL     1      11.963  15.488  17.253  0.00  0.00    +0.000 A 
ATOM     14  C   UNL     1      12.333  16.467  18.179  0.00  0.00    +0.000 A 
ATOM     15  C   UNL     1      12.155  16.259  19.557  0.00  0.00    +0.000 A 
ATOM     16  C   UNL     1      11.603  15.068  20.036  0.00  0.00    +0.000 A 
ATOM     17  C   UNL     1      11.238  14.096  19.117  0.00  0.00    +0.000 A 
ENDBRANCH   3   5
BRANCH   1  24
ATOM     18  O   UNL     1       3.705   2.248  17.735  0.00  0.00    +0.000 OA
ATOM     19  C   UNL     1       4.230   3.358  17.728  0.00  0.00    +0.000 C 
ATOM     20  C   UNL     1       3.480   4.638  17.364  0.00  0.00    +0.000 C 
ATOM     21  O   UNL     1       4.217   5.787  16.976  0.00  0.00    +0.000 OA
ATOM     22  C   UNL     1       5.462   5.872  17.534  0.00  0.00    +0.000 A 
ATOM     23  C   UNL     1       6.077   7.118  17.480  0.00  0.00    +0.000 A 
ATOM     24  C   UNL     1       7.365   7.299  18.004  0.00  0.00    +0.000 A 
ATOM     25  C   UNL     1       8.043   6.214  18.572  0.00  0.00    +0.000 A 
ATOM     26  C   UNL     1       7.427   4.955  18.612  0.00  0.00    +0.000 A 
ATOM     27  C   UNL     1       6.137   4.790  18.099  0.00  0.00    +0.000 A 
ATOM     28  N   UNL     1       5.525   3.536  18.136  0.00  0.00    +0.000 N 
ATOM     29  H   UNL     1       6.018   2.717  18.462  0.00  0.00    +0.000 HD
ENDBRANCH   1  24
TORSDOF 2
ENDMDL
MODEL 2
REMARK VINA RESULT:      -9.1      7.534      9.445
REMARK  Name = 
REMARK  2 active torsions:
REMARK  status: ('A' for Active; 'I' for Inactive)
REMARK    1  A    between atoms: C_7  and  C_8
REMARK    2  A    between atoms: N_10  and  C_11
REMARK                            x       y       z     vdW  Elec       q    Type
REMARK                         _______ _______ _______ _____ _____    ______ ____
ROOT
ATOM      1  C   UNL     1       2.122   6.530  20.003  0.00  0.00    +0.000 C 
ATOM      2  O   UNL     1       1.464   5.913  20.836  0.00  0.00    +0.000 OA
ATOM      3  N   UNL     1       2.063   7.892  19.753  0.00  0.00    +0.000 N 
ATOM      4  H   UNL     1       2.512   8.238  18.915  0.00  0.00    +0.000 HD
ENDROOT
BRANCH   3   5
ATOM      5  C   UNL     1       1.224   8.807  20.444  0.00  0.00    +0.000 A 
ATOM      6  C   UNL     1       1.055   8.768  21.843  0.00  0.00    +0.000 A 
ATOM      7  C   UNL     1       0.174   9.628  22.505  0.00  0.00    +0.000 A 
ATOM      8  C   UNL     1      -0.540  10.539  21.757  0.00  0.00    +0.000 A 
ATOM      9  C   UNL     1      -0.362  10.610  20.359  0.00  0.00    +0.000 A 
ATOM     10  C   UNL     1       0.527   9.767  19.695  0.00  0.00    +0.000 A 
ATOM     11  C   UNL     1      -1.281  11.671  19.778  0.00  0.00    +0.000 C 
ATOM     12  C   UNL     1      -1.987  12.198  21.016  0.00  0.00    +0.000 A 
ATOM     13  C   UNL     1      -2.949  13.190  21.108  0.00  0.00    +0.000 A 
ATOM     14  C   UNL     1      -3.457  13.496  22.373  0.00  0.00    +0.000 A 
ATOM     15  C   UNL     1      -3.004  12.816  23.516  0.00  0.00    +0.000 A 
ATOM     16  C   UNL     1      -2.034  11.816  23.416  0.00  0.00    +0.000 A 
ATOM     17  C   UNL     1      -1.529  11.512  22.161  0.00  0.00    +0.000 A 
ENDBRANCH   3   5
BRANCH   1  24
ATOM     18  O   UNL     1       6.636   3.590  14.516  0.00  0.00    +0.000 OA
ATOM     19  C   UNL     1       5.917   4.205  15.298  0.00  0.00    +0.000 C 
ATOM     20  C   UNL     1       5.487   5.655  15.075  0.00  0.00    +0.000 C 
ATOM     21  O   UNL     1       5.025   6.417  16.180  0.00  0.00    +0.000 OA
ATOM     22  C   UNL     1       4.424   5.679  17.162  0.00  0.00    +0.000 A 
ATOM     23  C   UNL     1       3.651   6.386  18.076  0.00  0.00    +0.000 A 
ATOM     24  C   UNL     1       3.015   5.720  19.134  0.00  0.00    +0.000 A 
ATOM     25  C   UNL     1       3.172   4.337  19.280  0.00  0.00    +0.000 A 
ATOM     26  C   UNL     1       3.965   3.629  18.365  0.00  0.00    +0.000 A 
ATOM     27  C   UNL     1       4.582   4.301  17.305  0.00  0.00    +0.000 A 
ATOM     28  N   UNL     1       5.373   3.597  16.397  0.00  0.00    +0.000 N 
ATOM     29  H   UNL     1       5.575   2.615  16.521  0.00  0.00    +0.000 HD
ENDBRANCH   1  24
TORSDOF 2
ENDMDL
MODEL 3
REMARK VINA RESULT:      -8.9      8.521     12.116
REMARK  Name = 
REMARK  2 active torsions:
REMARK  status: ('A' for Active; 'I' for Inactive)
REMARK    1  A    between atoms: C_7  and  C_8
REMARK    2  A    between atoms: N_10  and  C_11
REMARK                            x       y       z     vdW  Elec       q    Type
REMARK                         _______ _______ _______ _____ _____    ______ ____
ROOT
ATOM      1  C   UNL     1       0.323  10.333  21.910  0.00  0.00    +0.000 C 
ATOM      2  O   UNL     1       0.986   9.819  22.806  0.00  0.00    +0.000 OA
ATOM      3  N   UNL     1       0.325   9.969  20.572  0.00  0.00    +0.000 N 
ATOM      4  H   UNL     1      -0.115  10.596  19.912  0.00  0.00    +0.000 HD
ENDROOT
BRANCH   3   5
ATOM      5  C   UNL     1       1.101   8.914  20.022  0.00  0.00    +0.000 A 
ATOM      6  C   UNL     1       1.715   9.008  18.757  0.00  0.00    +0.000 A 
ATOM      7  C   UNL     1       2.419   7.938  18.196  0.00  0.00    +0.000 A 
ATOM      8  C   UNL     1       2.509   6.764  18.912  0.00  0.00    +0.000 A 
ATOM      9  C   UNL     1       1.924   6.662  20.192  0.00  0.00    +0.000 A 
ATOM     10  C   UNL     1       1.236   7.730  20.764  0.00  0.00    +0.000 A 
ATOM     11  C   UNL     1       2.145   5.266  20.748  0.00  0.00    +0.000 C 
ATOM     12  C   UNL     1       2.937   4.599  19.636  0.00  0.00    +0.000 A 
ATOM     13  C   UNL     1       3.428   3.305  19.579  0.00  0.00    +0.000 A 
ATOM     14  C   UNL     1       4.129   2.919  18.433  0.00  0.00    +0.000 A 
ATOM     15  C   UNL     1       4.328   3.819  17.373  0.00  0.00    +0.000 A 
ATOM     16  C   UNL     1       3.829   5.123  17.437  0.00  0.00    +0.000 A 
ATOM     17  C   UNL     1       3.134   5.506  18.573  0.00  0.00    +0.000 A 
ENDBRANCH   3   5
BRANCH   1  24
ATOM     18  O   UNL     1      -5.094  15.302  24.168  0.00  0.00    +0.000 OA
ATOM     19  C   UNL     1      -4.341  14.384  23.856  0.00  0.00    +0.000 C 
ATOM     20  C   UNL     1      -4.704  12.909  24.022  0.00  0.00    +0.000 C 
ATOM     21  O   UNL     1      -3.668  11.939  24.043  0.00  0.00    +0.000 OA
ATOM     22  C   UNL     1      -2.561  12.282  23.318  0.00  0.00    +0.000 A 
ATOM     23  C   UNL     1      -1.683  11.249  23.009  0.00  0.00    +0.000 A 
ATOM     24  C   UNL     1      -0.506  11.506  22.291  0.00  0.00    +0.000 A 
ATOM     25  C   UNL     1      -0.206  12.814  21.894  0.00  0.00    +0.000 A 
ATOM     26  C   UNL     1      -1.086  13.857  22.219  0.00  0.00    +0.000 A 
ATOM     27  C   UNL     1      -2.263  13.586  22.923  0.00  0.00    +0.000 A 
ATOM     28  N   UNL     1      -3.137  14.624  23.250  0.00  0.00    +0.000 N 
ATOM     29  H   UNL     1      -2.910  15.588  23.052  0.00  0.00    +0.000 HD
ENDBRANCH   1  24
TORSDOF 2
ENDMDL
MODEL 4
REMARK VINA RESULT:      -8.9      8.905     11.929
REMARK  Name = 
REMARK  2 active torsions:
REMARK  status: ('A' for Active; 'I' for Inactive)
REMARK    1  A    between atoms: C_7  and  C_8
REMARK    2  A    between atoms: N_10  and  C_11
REMARK                            x       y       z     vdW  Elec       q    Type
REMARK                         _______ _______ _______ _____ _____    ______ ____
ROOT
ATOM      1  C   UNL     1      -0.094  10.492  22.311  0.00  0.00    +0.000 C 
ATOM      2  O   UNL     1       0.535  10.000  23.243  0.00  0.00    +0.000 OA
ATOM      3  N   UNL     1      -0.057  10.083  20.986  0.00  0.00    +0.000 N 
ATOM      4  H   UNL     1      -0.470  10.693  20.292  0.00  0.00    +0.000 HD
ENDROOT
BRANCH   3   5
ATOM      5  C   UNL     1       0.720   9.001  20.495  0.00  0.00    +0.000 A 
ATOM      6  C   UNL     1       0.867   7.792  21.205  0.00  0.00    +0.000 A 
ATOM      7  C   UNL     1       1.690   6.760  20.745  0.00  0.00    +0.000 A 
ATOM      8  C   UNL     1       2.369   6.941  19.559  0.00  0.00    +0.000 A 
ATOM      9  C   UNL     1       2.211   8.133  18.821  0.00  0.00    +0.000 A 
ATOM     10  C   UNL     1       1.380   9.159  19.266  0.00  0.00    +0.000 A 
ATOM     11  C   UNL     1       3.083   8.087  17.579  0.00  0.00    +0.000 C 
ATOM     12  C   UNL     1       3.739   6.722  17.696  0.00  0.00    +0.000 A 
ATOM     13  C   UNL     1       4.646   6.120  16.840  0.00  0.00    +0.000 A 
ATOM     14  C   UNL     1       5.115   4.846  17.171  0.00  0.00    +0.000 A 
ATOM     15  C   UNL     1       4.678   4.197  18.338  0.00  0.00    +0.000 A 
ATOM     16  C   UNL     1       3.764   4.811  19.198  0.00  0.00    +0.000 A 
ATOM     17  C   UNL     1       3.297   6.074  18.870  0.00  0.00    +0.000 A 
ENDBRANCH   3   5
BRANCH   1  24
ATOM     18  O   UNL     1      -5.553  15.613  24.076  0.00  0.00    +0.000 OA
ATOM     19  C   UNL     1      -4.802  14.674  23.826  0.00  0.00    +0.000 C 
ATOM     20  C   UNL     1      -5.234  13.211  23.909  0.00  0.00    +0.000 C 
ATOM     21  O   UNL     1      -4.243  12.201  24.020  0.00  0.00    +0.000 OA
ATOM     22  C   UNL     1      -3.049  12.518  23.435  0.00  0.00    +0.000 A 
ATOM     23  C   UNL     1      -2.178  11.459  23.200  0.00  0.00    +0.000 A 
ATOM     24  C   UNL     1      -0.919  11.687  22.627  0.00  0.00    +0.000 A 
ATOM     25  C   UNL     1      -0.529  12.992  22.303  0.00  0.00    +0.000 A 
ATOM     26  C   UNL     1      -1.402  14.060  22.555  0.00  0.00    +0.000 A 
ATOM     27  C   UNL     1      -2.661  13.819  23.113  0.00  0.00    +0.000 A 
ATOM     28  N   UNL     1      -3.529  14.881  23.367  0.00  0.00    +0.000 N 
ATOM     29  H   UNL     1      -3.247  15.841  23.223  0.00  0.00    +0.000 HD
ENDBRANCH   1  24
TORSDOF 2
ENDMDL
MODEL 5
REMARK VINA RESULT:      -8.8      8.348     12.261
REMARK  Name = 
REMARK  2 active torsions:
REMARK  status: ('A' for Active; 'I' for Inactive)
REMARK    1  A    between atoms: C_7  and  C_8
REMARK    2  A    between atoms: N_10  and  C_11
REMARK                            x       y       z     vdW  Elec       q    Type
REMARK                         _______ _______ _______ _____ _____    ______ ____
ROOT
ATOM      1  C   UNL     1       0.171  10.319  20.516  0.00  0.00    +0.000 C 
ATOM      2  O   UNL     1      -0.363  10.247  19.414  0.00  0.00    +0.000 OA
ATOM      3  N   UNL     1       1.077   9.416  21.053  0.00  0.00    +0.000 N 
ATOM      4  H   UNL     1       1.288   9.490  22.039  0.00  0.00    +0.000 HD
ENDROOT
BRANCH   3   5
ATOM      5  C   UNL     1       1.546   8.250  20.390  0.00  0.00    +0.000 A 
ATOM      6  C   UNL     1       2.087   8.286  19.089  0.00  0.00    +0.000 A 
ATOM      7  C   UNL     1       2.482   7.124  18.421  0.00  0.00    +0.000 A 
ATOM      8  C   UNL     1       2.337   5.914  19.066  0.00  0.00    +0.000 A 
ATOM      9  C   UNL     1       1.824   5.863  20.379  0.00  0.00    +0.000 A 
ATOM     10  C   UNL     1       1.444   7.019  21.057  0.00  0.00    +0.000 A 
ATOM     11  C   UNL     1       1.743   4.419  20.842  0.00  0.00    +0.000 C 
ATOM     12  C   UNL     1       2.286   3.665  19.640  0.00  0.00    +0.000 A 
ATOM     13  C   UNL     1       2.453   2.299  19.478  0.00  0.00    +0.000 A 
ATOM     14  C   UNL     1       2.972   1.842  18.264  0.00  0.00    +0.000 A 
ATOM     15  C   UNL     1       3.312   2.742  17.240  0.00  0.00    +0.000 A 
ATOM     16  C   UNL     1       3.139   4.118  17.410  0.00  0.00    +0.000 A 
ATOM     17  C   UNL     1       2.626   4.572  18.614  0.00  0.00    +0.000 A 
ENDBRANCH   3   5
BRANCH   1  24
ATOM     18  O   UNL     1      -3.371  15.327  25.153  0.00  0.00    +0.000 OA
ATOM     19  C   UNL     1      -2.942  14.423  24.442  0.00  0.00    +0.000 C 
ATOM     20  C   UNL     1      -3.685  13.106  24.221  0.00  0.00    +0.000 C 
ATOM     21  O   UNL     1      -2.967  11.976  23.751  0.00  0.00    +0.000 OA
ATOM     22  C   UNL     1      -1.889  12.280  22.967  0.00  0.00    +0.000 A 
ATOM     23  C   UNL     1      -1.373  11.241  22.200  0.00  0.00    +0.000 A 
ATOM     24  C   UNL     1      -0.252  11.449  21.383  0.00  0.00    +0.000 A 
ATOM     25  C   UNL     1       0.360  12.707  21.350  0.00  0.00    +0.000 A 
ATOM     26  C   UNL     1      -0.153  13.750  22.136  0.00  0.00    +0.000 A 
ATOM     27  C   UNL     1      -1.280  13.535  22.935  0.00  0.00    +0.000 A 
ATOM     28  N   UNL     1      -1.789  14.570  23.719  0.00  0.00    +0.000 N 
ATOM     29  H   UNL     1      -1.322  15.465  23.782  0.00  0.00    +0.000 HD
ENDBRANCH   1  24
TORSDOF 2
ENDMDL
MODEL 6
REMARK VINA RESULT:      -8.7      8.661     11.821
REMARK  Name = 
REMARK  2 active torsions:
REMARK  status: ('A' for Active; 'I' for Inactive)
REMARK    1  A    between atoms: C_7  and  C_8
REMARK    2  A    between atoms: N_10  and  C_11
REMARK                            x       y       z     vdW  Elec       q    Type
REMARK                         _______ _______ _______ _____ _____    ______ ____
ROOT
ATOM      1  C   UNL     1       0.108  11.076  21.068  0.00  0.00    +0.000 C 
ATOM      2  O   UNL     1       1.189  11.358  21.576  0.00  0.00    +0.000 OA
ATOM      3  N   UNL     1      -0.125  10.090  20.122  0.00  0.00    +0.000 N 
ATOM      4  H   UNL     1      -1.018  10.093  19.647  0.00  0.00    +0.000 HD
ENDROOT
BRANCH   3   5
ATOM      5  C   UNL     1       0.870   9.226  19.591  0.00  0.00    +0.000 A 
ATOM      6  C   UNL     1       1.504   9.472  18.357  0.00  0.00    +0.000 A 
ATOM      7  C   UNL     1       2.433   8.579  17.812  0.00  0.00    +0.000 A 
ATOM      8  C   UNL     1       2.730   7.432  18.515  0.00  0.00    +0.000 A 
ATOM      9  C   UNL     1       2.125   7.184  19.766  0.00  0.00    +0.000 A 
ATOM     10  C   UNL     1       1.212   8.077  20.322  0.00  0.00    +0.000 A 
ATOM     11  C   UNL     1       2.602   5.849  20.311  0.00  0.00    +0.000 C 
ATOM     12  C   UNL     1       3.558   5.382  19.226  0.00  0.00    +0.000 A 
ATOM     13  C   UNL     1       4.303   4.215  19.172  0.00  0.00    +0.000 A 
ATOM     14  C   UNL     1       5.114   4.006  18.054  0.00  0.00    +0.000 A 
ATOM     15  C   UNL     1       5.170   4.952  17.016  0.00  0.00    +0.000 A 
ATOM     16  C   UNL     1       4.414   6.125  17.077  0.00  0.00    +0.000 A 
ATOM     17  C   UNL     1       3.611   6.334  18.186  0.00  0.00    +0.000 A 
ENDBRANCH   3   5
BRANCH   1  24
ATOM     18  O   UNL     1      -6.211  14.264  24.075  0.00  0.00    +0.000 OA
ATOM     19  C   UNL     1      -5.223  13.631  23.715  0.00  0.00    +0.000 C 
ATOM     20  C   UNL     1      -4.779  12.326  24.374  0.00  0.00    +0.000 C 
ATOM     21  O   UNL     1      -3.442  11.882  24.200  0.00  0.00    +0.000 OA
ATOM     22  C   UNL     1      -2.869  12.269  23.020  0.00  0.00    +0.000 A 
ATOM     23  C   UNL     1      -1.721  11.584  22.639  0.00  0.00    +0.000 A 
ATOM     24  C   UNL     1      -1.047  11.926  21.458  0.00  0.00    +0.000 A 
ATOM     25  C   UNL     1      -1.526  12.974  20.663  0.00  0.00    +0.000 A 
ATOM     26  C   UNL     1      -2.676  13.674  21.058  0.00  0.00    +0.000 A 
ATOM     27  C   UNL     1      -3.347  13.315  22.230  0.00  0.00    +0.000 A 
ATOM     28  N   UNL     1      -4.489  14.013  22.624  0.00  0.00    +0.000 N 
ATOM     29  H   UNL     1      -4.812  14.826  22.119  0.00  0.00    +0.000 HD
ENDBRANCH   1  24
TORSDOF 2
ENDMDL
MODEL 7
REMARK VINA RESULT:      -8.7      8.371     11.434
REMARK  Name = 
REMARK  2 active torsions:
REMARK  status: ('A' for Active; 'I' for Inactive)
REMARK    1  A    between atoms: C_7  and  C_8
REMARK    2  A    between atoms: N_10  and  C_11
REMARK                            x       y       z     vdW  Elec       q    Type
REMARK                         _______ _______ _______ _____ _____    ______ ____
ROOT
ATOM      1  C   UNL     1       0.249  10.806  20.843  0.00  0.00    +0.000 C 
ATOM      2  O   UNL     1       1.234  11.536  20.793  0.00  0.00    +0.000 OA
ATOM      3  N   UNL     1       0.130   9.544  20.282  0.00  0.00    +0.000 N 
ATOM      4  H   UNL     1      -0.794   9.135  20.229  0.00  0.00    +0.000 HD
ENDROOT
BRANCH   3   5
ATOM      5  C   UNL     1       1.158   8.880  19.560  0.00  0.00    +0.000 A 
ATOM      6  C   UNL     1       1.621   9.339  18.310  0.00  0.00    +0.000 A 
ATOM      7  C   UNL     1       2.584   8.640  17.576  0.00  0.00    +0.000 A 
ATOM      8  C   UNL     1       3.090   7.471  18.103  0.00  0.00    +0.000 A 
ATOM      9  C   UNL     1       2.657   7.012  19.366  0.00  0.00    +0.000 A 
ATOM     10  C   UNL     1       1.710   7.713  20.109  0.00  0.00    +0.000 A 
ATOM     11  C   UNL     1       3.345   5.699  19.697  0.00  0.00    +0.000 C 
ATOM     12  C   UNL     1       4.226   5.481  18.479  0.00  0.00    +0.000 A 
ATOM     13  C   UNL     1       5.094   4.434  18.213  0.00  0.00    +0.000 A 
ATOM     14  C   UNL     1       5.799   4.456  17.007  0.00  0.00    +0.000 A 
ATOM     15  C   UNL     1       5.629   5.508  16.092  0.00  0.00    +0.000 A 
ATOM     16  C   UNL     1       4.751   6.560  16.365  0.00  0.00    +0.000 A 
ATOM     17  C   UNL     1       4.053   6.540  17.562  0.00  0.00    +0.000 A 
ENDBRANCH   3   5
BRANCH   1  24
ATOM     18  O   UNL     1      -6.054  14.646  23.004  0.00  0.00    +0.000 OA
ATOM     19  C   UNL     1      -5.063  14.119  22.508  0.00  0.00    +0.000 C 
ATOM     20  C   UNL     1      -4.565  14.431  21.097  0.00  0.00    +0.000 C 
ATOM     21  O   UNL     1      -3.699  13.512  20.449  0.00  0.00    +0.000 OA
ATOM     22  C   UNL     1      -2.907  12.790  21.298  0.00  0.00    +0.000 A 
ATOM     23  C   UNL     1      -1.813  12.151  20.725  0.00  0.00    +0.000 A 
ATOM     24  C   UNL     1      -0.956  11.366  21.509  0.00  0.00    +0.000 A 
ATOM     25  C   UNL     1      -1.212  11.212  22.877  0.00  0.00    +0.000 A 
ATOM     26  C   UNL     1      -2.326  11.845  23.450  0.00  0.00    +0.000 A 
ATOM     27  C   UNL     1      -3.164  12.637  22.660  0.00  0.00    +0.000 A 
ATOM     28  N   UNL     1      -4.273  13.263  23.229  0.00  0.00    +0.000 N 
ATOM     29  H   UNL     1      -4.534  13.106  24.193  0.00  0.00    +0.000 HD
ENDBRANCH   1  24
TORSDOF 2
ENDMDL
MODEL 8
REMARK VINA RESULT:      -8.5      7.349      9.647
REMARK  Name = 
REMARK  2 active torsions:
REMARK  status: ('A' for Active; 'I' for Inactive)
REMARK    1  A    between atoms: C_7  and  C_8
REMARK    2  A    between atoms: N_10  and  C_11
REMARK                            x       y       z     vdW  Elec       q    Type
REMARK                         _______ _______ _______ _____ _____    ______ ____
ROOT
ATOM      1  C   UNL     1       2.004   7.391  19.833  0.00  0.00    +0.000 C 
ATOM      2  O   UNL     1       1.422   6.917  20.804  0.00  0.00    +0.000 OA
ATOM      3  N   UNL     1       1.736   8.610  19.227  0.00  0.00    +0.000 N 
ATOM      4  H   UNL     1       2.156   8.790  18.324  0.00  0.00    +0.000 HD
ENDROOT
BRANCH   3   5
ATOM      5  C   UNL     1       0.735   9.523  19.653  0.00  0.00    +0.000 A 
ATOM      6  C   UNL     1       0.050  10.366  18.755  0.00  0.00    +0.000 A 
ATOM      7  C   UNL     1      -0.885  11.309  19.193  0.00  0.00    +0.000 A 
ATOM      8  C   UNL     1      -1.137  11.403  20.545  0.00  0.00    +0.000 A 
ATOM      9  C   UNL     1      -0.480  10.548  21.455  0.00  0.00    +0.000 A 
ATOM     10  C   UNL     1       0.439   9.595  21.023  0.00  0.00    +0.000 A 
ATOM     11  C   UNL     1      -0.915  10.876  22.873  0.00  0.00    +0.000 C 
ATOM     12  C   UNL     1      -1.904  12.008  22.652  0.00  0.00    +0.000 A 
ATOM     13  C   UNL     1      -2.633  12.717  23.593  0.00  0.00    +0.000 A 
ATOM     14  C   UNL     1      -3.484  13.728  23.138  0.00  0.00    +0.000 A 
ATOM     15  C   UNL     1      -3.594  14.015  21.767  0.00  0.00    +0.000 A 
ATOM     16  C   UNL     1      -2.855  13.296  20.823  0.00  0.00    +0.000 A 
ATOM     17  C   UNL     1      -2.012  12.293  21.274  0.00  0.00    +0.000 A 
ENDBRANCH   3   5
BRANCH   1  24
ATOM     18  O   UNL     1       7.045   3.798  15.271  0.00  0.00    +0.000 OA
ATOM     19  C   UNL     1       6.211   4.477  15.864  0.00  0.00    +0.000 C 
ATOM     20  C   UNL     1       5.486   5.660  15.223  0.00  0.00    +0.000 C 
ATOM     21  O   UNL     1       4.872   6.630  16.058  0.00  0.00    +0.000 OA
ATOM     22  C   UNL     1       4.438   6.145  17.260  0.00  0.00    +0.000 A 
ATOM     23  C   UNL     1       3.532   6.940  17.954  0.00  0.00    +0.000 A 
ATOM     24  C   UNL     1       3.049   6.540  19.207  0.00  0.00    +0.000 A 
ATOM     25  C   UNL     1       3.493   5.338  19.772  0.00  0.00    +0.000 A 
ATOM     26  C   UNL     1       4.419   4.546  19.078  0.00  0.00    +0.000 A 
ATOM     27  C   UNL     1       4.883   4.948  17.822  0.00  0.00    +0.000 A 
ATOM     28  N   UNL     1       5.806   4.161  17.133  0.00  0.00    +0.000 N 
ATOM     29  H   UNL     1       6.209   3.333  17.548  0.00  0.00    +0.000 HD
ENDBRANCH   1  24
TORSDOF 2
ENDMDL
MODEL 9
REMARK VINA RESULT:      -8.5      8.317     12.044
REMARK  Name = 
REMARK  2 active torsions:
REMARK  status: ('A' for Active; 'I' for Inactive)
REMARK    1  A    between atoms: C_7  and  C_8
REMARK    2  A    between atoms: N_10  and  C_11
REMARK                            x       y       z     vdW  Elec       q    Type
REMARK                         _______ _______ _______ _____ _____    ______ ____
ROOT
ATOM      1  C   UNL     1      -0.795  10.660  19.642  0.00  0.00    +0.000 C 
ATOM      2  O   UNL     1      -1.466  10.055  18.811  0.00  0.00    +0.000 OA
ATOM      3  N   UNL     1       0.483  10.332  20.066  0.00  0.00    +0.000 N 
ATOM      4  H   UNL     1       0.841  10.796  20.890  0.00  0.00    +0.000 HD
ENDROOT
BRANCH   3   5
ATOM      5  C   UNL     1       1.236   9.228  19.585  0.00  0.00    +0.000 A 
ATOM      6  C   UNL     1       1.851   9.227  18.316  0.00  0.00    +0.000 A 
ATOM      7  C   UNL     1       2.531   8.109  17.825  0.00  0.00    +0.000 A 
ATOM      8  C   UNL     1       2.600   6.982  18.617  0.00  0.00    +0.000 A 
ATOM      9  C   UNL     1       2.015   6.976  19.900  0.00  0.00    +0.000 A 
ATOM     10  C   UNL     1       1.349   8.092  20.402  0.00  0.00    +0.000 A 
ATOM     11  C   UNL     1       2.209   5.614  20.546  0.00  0.00    +0.000 C 
ATOM     12  C   UNL     1       2.985   4.861  19.479  0.00  0.00    +0.000 A 
ATOM     13  C   UNL     1       3.450   3.556  19.506  0.00  0.00    +0.000 A 
ATOM     14  C   UNL     1       4.142   3.083  18.388  0.00  0.00    +0.000 A 
ATOM     15  C   UNL     1       4.356   3.908  17.271  0.00  0.00    +0.000 A 
ATOM     16  C   UNL     1       3.883   5.222  17.250  0.00  0.00    +0.000 A 
ATOM     17  C   UNL     1       3.199   5.693  18.360  0.00  0.00    +0.000 A 
ENDBRANCH   3   5
BRANCH   1  24
ATOM     18  O   UNL     1      -3.240  16.267  24.303  0.00  0.00    +0.000 OA
ATOM     19  C   UNL     1      -2.731  15.339  23.681  0.00  0.00    +0.000 C 
ATOM     20  C   UNL     1      -1.542  14.533  24.205  0.00  0.00    +0.000 C 
ATOM     21  O   UNL     1      -0.758  13.782  23.290  0.00  0.00    +0.000 OA
ATOM     22  C   UNL     1      -1.443  13.338  22.193  0.00  0.00    +0.000 A 
ATOM     23  C   UNL     1      -0.839  12.322  21.461  0.00  0.00    +0.000 A 
ATOM     24  C   UNL     1      -1.452  11.817  20.306  0.00  0.00    +0.000 A 
ATOM     25  C   UNL     1      -2.674  12.349  19.878  0.00  0.00    +0.000 A 
ATOM     26  C   UNL     1      -3.274  13.385  20.609  0.00  0.00    +0.000 A 
ATOM     27  C   UNL     1      -2.660  13.870  21.768  0.00  0.00    +0.000 A 
ATOM     28  N   UNL     1      -3.255  14.902  22.494  0.00  0.00    +0.000 N 
ATOM     29  H   UNL     1      -4.092  15.365  22.168  0.00  0.00    +0.000 HD
ENDBRANCH   1  24
TORSDOF 2
ENDMDL
