MODEL 1
REMARK VINA RESULT:      -8.3      0.000      0.000
REMARK  Name = 
REMARK  4 active torsions:
REMARK  status: ('A' for Active; 'I' for Inactive)
REMARK    1  A    between atoms: C_2  and  C_3
REMARK    2  A    between atoms: C_3  and  C_4
REMARK    3  A    between atoms: N_14  and  C_15
REMARK    4  A    between atoms: N_19  and  C_20
REMARK                            x       y       z     vdW  Elec       q    Type
REMARK                         _______ _______ _______ _____ _____    ______ ____
ROOT
ATOM      1  O   UNL     1       3.565   8.747  17.450  0.00  0.00    +0.000 OA
ATOM      2  C   UNL     1       3.349   7.577  17.757  0.00  0.00    +0.000 C 
ATOM      3  N   UNL     1       4.331   6.607  17.762  0.00  0.00    +0.000 N 
ATOM      4  H   UNL     1       4.001   5.654  17.639  0.00  0.00    +0.000 HD
ENDROOT
BRANCH   3   5
ATOM      5  C   UNL     1       5.679   6.894  17.269  0.00  0.00    +0.000 C 
ATOM      6  C   UNL     1       6.777   6.333  18.166  0.00  0.00    +0.000 C 
ATOM      7  C   UNL     1       6.852   4.827  18.011  0.00  0.00    +0.000 C 
ATOM      8  C   UNL     1       7.242   4.517  16.577  0.00  0.00    +0.000 C 
ATOM      9  N   UNL     1       6.379   5.155  15.578  0.00  0.00    +0.000 N 
ATOM     10  C   UNL     1       5.750   6.388  15.814  0.00  0.00    +0.000 C 
ATOM     11  O   UNL     1       5.143   7.029  14.950  0.00  0.00    +0.000 OA
BRANCH   9  12
ATOM     12  C   UNL     1       6.456   4.656  14.233  0.00  0.00    +0.000 A 
ATOM     13  C   UNL     1       5.517   3.735  13.747  0.00  0.00    +0.000 A 
ATOM     14  C   UNL     1       5.650   3.186  12.467  0.00  0.00    +0.000 A 
ATOM     15  C   UNL     1       6.696   3.585  11.640  0.00  0.00    +0.000 A 
ATOM     16  C   UNL     1       7.605   4.538  12.088  0.00  0.00    +0.000 A 
ATOM     17  C   UNL     1       7.489   5.064  13.378  0.00  0.00    +0.000 A 
ENDBRANCH   9  12
ENDBRANCH   3   5
BRANCH   2  18
ATOM     18  C   UNL     1       1.994   7.111  18.255  0.00  0.00    +0.000 C 
BRANCH  18  19
ATOM     19  C   UNL     1       2.071   6.054  19.312  0.00  0.00    +0.000 A 
ATOM     20  C   UNL     1       2.044   6.265  20.678  0.00  0.00    +0.000 A 
ATOM     21  N   UNL     1       2.082   5.049  21.303  0.00  0.00    +0.000 N 
ATOM     22  C   UNL     1       2.131   4.038  20.373  0.00  0.00    +0.000 A 
ATOM     23  C   UNL     1       2.166   2.649  20.557  0.00  0.00    +0.000 A 
ATOM     24  C   UNL     1       2.206   1.848  19.411  0.00  0.00    +0.000 A 
ATOM     25  C   UNL     1       2.212   2.425  18.150  0.00  0.00    +0.000 A 
ATOM     26  F   UNL     1       2.250   1.630  17.070  0.00  0.00    +0.000 F 
ATOM     27  C   UNL     1       2.179   3.810  17.973  0.00  0.00    +0.000 A 
ATOM     28  C   UNL     1       2.135   4.638  19.113  0.00  0.00    +0.000 A 
ATOM     29  H   UNL     1       2.057   4.905  22.305  0.00  0.00    +0.000 HD
ENDBRANCH  18  19
ENDBRANCH   2  18
TORSDOF 4
ENDMDL
MODEL 2
REMARK VINA RESULT:      -7.7      1.548      1.950
REMARK  Name = 
REMARK  4 active torsions:
REMARK  status: ('A' for Active; 'I' for Inactive)
REMARK    1  A    between atoms: C_2  and  C_3
REMARK    2  A    between atoms: C_3  and  C_4
REMARK    3  A    between atoms: N_14  and  C_15
REMARK    4  A    between atoms: N_19  and  C_20
REMARK                            x       y       z     vdW  Elec       q    Type
REMARK                         _______ _______ _______ _____ _____    ______ ____
ROOT
ATOM      1  O   UNL     1       3.478   8.498  17.598  0.00  0.00    +0.000 OA
ATOM      2  C   UNL     1       3.332   7.317  17.903  0.00  0.00    +0.000 C 
ATOM      3  N   UNL     1       4.367   6.404  17.897  0.00  0.00    +0.000 N 
ATOM      4  H   UNL     1       4.091   5.434  17.774  0.00  0.00    +0.000 HD
ENDROOT
BRANCH   3   5
ATOM      5  C   UNL     1       5.692   6.769  17.394  0.00  0.00    +0.000 C 
ATOM      6  C   UNL     1       6.830   6.233  18.257  0.00  0.00    +0.000 C 
ATOM      7  C   UNL     1       6.972   4.737  18.053  0.00  0.00    +0.000 C 
ATOM      8  C   UNL     1       7.352   4.490  16.604  0.00  0.00    +0.000 C 
ATOM      9  N   UNL     1       6.445   5.117  15.639  0.00  0.00    +0.000 N 
ATOM     10  C   UNL     1       5.763   6.312  15.923  0.00  0.00    +0.000 C 
ATOM     11  O   UNL     1       5.114   6.950  15.088  0.00  0.00    +0.000 OA
BRANCH   9  12
ATOM     12  C   UNL     1       6.523   4.664  14.278  0.00  0.00    +0.000 A 
ATOM     13  C   UNL     1       5.597   3.744  13.766  0.00  0.00    +0.000 A 
ATOM     14  C   UNL     1       5.732   3.240  12.468  0.00  0.00    +0.000 A 
ATOM     15  C   UNL     1       6.767   3.683  11.651  0.00  0.00    +0.000 A 
ATOM     16  C   UNL     1       7.663   4.635  12.126  0.00  0.00    +0.000 A 
ATOM     17  C   UNL     1       7.545   5.117  13.432  0.00  0.00    +0.000 A 
ENDBRANCH   9  12
ENDBRANCH   3   5
BRANCH   2  18
ATOM     18  C   UNL     1       2.009   6.774  18.411  0.00  0.00    +0.000 C 
BRANCH  18  19
ATOM     19  C   UNL     1       1.906   5.282  18.348  0.00  0.00    +0.000 A 
ATOM     20  C   UNL     1       1.790   4.522  17.199  0.00  0.00    +0.000 A 
ATOM     21  N   UNL     1       1.776   3.201  17.556  0.00  0.00    +0.000 N 
ATOM     22  C   UNL     1       1.885   3.076  18.920  0.00  0.00    +0.000 A 
ATOM     23  C   UNL     1       1.927   1.923  19.716  0.00  0.00    +0.000 A 
ATOM     24  C   UNL     1       2.050   2.098  21.098  0.00  0.00    +0.000 A 
ATOM     25  C   UNL     1       2.123   3.372  21.642  0.00  0.00    +0.000 A 
ATOM     26  F   UNL     1       2.242   3.507  22.970  0.00  0.00    +0.000 F 
ATOM     27  C   UNL     1       2.078   4.517  20.843  0.00  0.00    +0.000 A 
ATOM     28  C   UNL     1       1.958   4.366  19.447  0.00  0.00    +0.000 A 
ATOM     29  H   UNL     1       1.717   2.422  16.912  0.00  0.00    +0.000 HD
ENDBRANCH  18  19
ENDBRANCH   2  18
TORSDOF 4
ENDMDL
MODEL 3
REMARK VINA RESULT:      -7.7      4.671      8.086
REMARK  Name = 
REMARK  4 active torsions:
REMARK  status: ('A' for Active; 'I' for Inactive)
REMARK    1  A    between atoms: C_2  and  C_3
REMARK    2  A    between atoms: C_3  and  C_4
REMARK    3  A    between atoms: N_14  and  C_15
REMARK    4  A    between atoms: N_19  and  C_20
REMARK                            x       y       z     vdW  Elec       q    Type
REMARK                         _______ _______ _______ _____ _____    ______ ____
ROOT
ATOM      1  O   UNL     1       2.001   7.714  20.048  0.00  0.00    +0.000 OA
ATOM      2  C   UNL     1       2.042   8.170  18.907  0.00  0.00    +0.000 C 
ATOM      3  N   UNL     1       1.580   9.429  18.583  0.00  0.00    +0.000 N 
ATOM      4  H   UNL     1       1.297   9.553  17.615  0.00  0.00    +0.000 HD
ENDROOT
BRANCH   3   5
ATOM      5  C   UNL     1       0.887  10.257  19.571  0.00  0.00    +0.000 C 
ATOM      6  C   UNL     1       1.527  11.629  19.759  0.00  0.00    +0.000 C 
ATOM      7  C   UNL     1       1.229  12.506  18.558  0.00  0.00    +0.000 C 
ATOM      8  C   UNL     1      -0.273  12.716  18.485  0.00  0.00    +0.000 C 
ATOM      9  N   UNL     1      -1.046  11.471  18.492  0.00  0.00    +0.000 N 
ATOM     10  C   UNL     1      -0.597  10.317  19.156  0.00  0.00    +0.000 C 
ATOM     11  O   UNL     1      -1.282   9.302  19.315  0.00  0.00    +0.000 OA
BRANCH   9  12
ATOM     12  C   UNL     1      -2.422  11.553  18.089  0.00  0.00    +0.000 A 
ATOM     13  C   UNL     1      -3.413  11.993  18.980  0.00  0.00    +0.000 A 
ATOM     14  C   UNL     1      -4.762  11.986  18.609  0.00  0.00    +0.000 A 
ATOM     15  C   UNL     1      -5.133  11.581  17.331  0.00  0.00    +0.000 A 
ATOM     16  C   UNL     1      -4.158  11.192  16.419  0.00  0.00    +0.000 A 
ATOM     17  C   UNL     1      -2.813  11.172  16.798  0.00  0.00    +0.000 A 
ENDBRANCH   9  12
ENDBRANCH   3   5
BRANCH   2  18
ATOM     18  C   UNL     1       2.697   7.419  17.762  0.00  0.00    +0.000 C 
BRANCH  18  19
ATOM     19  C   UNL     1       3.433   6.189  18.191  0.00  0.00    +0.000 A 
ATOM     20  C   UNL     1       4.777   6.112  18.505  0.00  0.00    +0.000 A 
ATOM     21  N   UNL     1       5.055   4.832  18.900  0.00  0.00    +0.000 N 
ATOM     22  C   UNL     1       3.917   4.063  18.855  0.00  0.00    +0.000 A 
ATOM     23  C   UNL     1       3.731   2.713  19.182  0.00  0.00    +0.000 A 
ATOM     24  C   UNL     1       2.443   2.188  19.044  0.00  0.00    +0.000 A 
ATOM     25  C   UNL     1       1.401   2.987  18.596  0.00  0.00    +0.000 A 
ATOM     26  F   UNL     1       0.177   2.454  18.475  0.00  0.00    +0.000 F 
ATOM     27  C   UNL     1       1.593   4.331  18.269  0.00  0.00    +0.000 A 
ATOM     28  C   UNL     1       2.882   4.884  18.403  0.00  0.00    +0.000 A 
ATOM     29  H   UNL     1       5.961   4.498  19.204  0.00  0.00    +0.000 HD
ENDBRANCH  18  19
ENDBRANCH   2  18
TORSDOF 4
ENDMDL
MODEL 4
REMARK VINA RESULT:      -7.5      4.891      8.453
REMARK  Name = 
REMARK  4 active torsions:
REMARK  status: ('A' for Active; 'I' for Inactive)
REMARK    1  A    between atoms: C_2  and  C_3
REMARK    2  A    between atoms: C_3  and  C_4
REMARK    3  A    between atoms: N_14  and  C_15
REMARK    4  A    between atoms: N_19  and  C_20
REMARK                            x       y       z     vdW  Elec       q    Type
REMARK                         _______ _______ _______ _____ _____    ______ ____
ROOT
ATOM      1  O   UNL     1       1.887   8.105  19.838  0.00  0.00    +0.000 OA
ATOM      2  C   UNL     1       1.896   8.596  18.711  0.00  0.00    +0.000 C 
ATOM      3  N   UNL     1       1.552   9.909  18.459  0.00  0.00    +0.000 N 
ATOM      4  H   UNL     1       1.215  10.098  17.520  0.00  0.00    +0.000 HD
ENDROOT
BRANCH   3   5
ATOM      5  C   UNL     1       1.025  10.768  19.521  0.00  0.00    +0.000 C 
ATOM      6  C   UNL     1       1.622  12.172  19.507  0.00  0.00    +0.000 C 
ATOM      7  C   UNL     1       1.053  12.963  18.345  0.00  0.00    +0.000 C 
ATOM      8  C   UNL     1      -0.442  13.112  18.559  0.00  0.00    +0.000 C 
ATOM      9  N   UNL     1      -1.137  11.841  18.783  0.00  0.00    +0.000 N 
ATOM     10  C   UNL     1      -0.512  10.748  19.404  0.00  0.00    +0.000 C 
ATOM     11  O   UNL     1      -1.103   9.719  19.747  0.00  0.00    +0.000 OA
BRANCH   9  12
ATOM     12  C   UNL     1      -2.568  11.848  18.656  0.00  0.00    +0.000 A 
ATOM     13  C   UNL     1      -3.195  11.366  17.497  0.00  0.00    +0.000 A 
ATOM     14  C   UNL     1      -4.582  11.457  17.343  0.00  0.00    +0.000 A 
ATOM     15  C   UNL     1      -5.365  11.989  18.363  0.00  0.00    +0.000 A 
ATOM     16  C   UNL     1      -4.764  12.423  19.540  0.00  0.00    +0.000 A 
ATOM     17  C   UNL     1      -3.375  12.358  19.681  0.00  0.00    +0.000 A 
ENDBRANCH   9  12
ENDBRANCH   3   5
BRANCH   2  18
ATOM     18  C   UNL     1       2.381   7.824  17.499  0.00  0.00    +0.000 C 
BRANCH  18  19
ATOM     19  C   UNL     1       3.279   6.675  17.836  0.00  0.00    +0.000 A 
ATOM     20  C   UNL     1       4.649   6.736  18.011  0.00  0.00    +0.000 A 
ATOM     21  N   UNL     1       5.095   5.490  18.361  0.00  0.00    +0.000 N 
ATOM     22  C   UNL     1       4.042   4.609  18.424  0.00  0.00    +0.000 A 
ATOM     23  C   UNL     1       4.029   3.247  18.754  0.00  0.00    +0.000 A 
ATOM     24  C   UNL     1       2.793   2.593  18.743  0.00  0.00    +0.000 A 
ATOM     25  C   UNL     1       1.635   3.282  18.413  0.00  0.00    +0.000 A 
ATOM     26  F   UNL     1       0.465   2.627  18.412  0.00  0.00    +0.000 F 
ATOM     27  C   UNL     1       1.655   4.638  18.082  0.00  0.00    +0.000 A 
ATOM     28  C   UNL     1       2.889   5.320  18.090  0.00  0.00    +0.000 A 
ATOM     29  H   UNL     1       6.056   5.250  18.566  0.00  0.00    +0.000 HD
ENDBRANCH  18  19
ENDBRANCH   2  18
TORSDOF 4
ENDMDL
MODEL 5
REMARK VINA RESULT:      -7.4      5.104      8.791
REMARK  Name = 
REMARK  4 active torsions:
REMARK  status: ('A' for Active; 'I' for Inactive)
REMARK    1  A    between atoms: C_2  and  C_3
REMARK    2  A    between atoms: C_3  and  C_4
REMARK    3  A    between atoms: N_14  and  C_15
REMARK    4  A    between atoms: N_19  and  C_20
REMARK                            x       y       z     vdW  Elec       q    Type
REMARK                         _______ _______ _______ _____ _____    ______ ____
ROOT
ATOM      1  O   UNL     1       1.877   8.182  19.836  0.00  0.00    +0.000 OA
ATOM      2  C   UNL     1       1.936   8.702  18.724  0.00  0.00    +0.000 C 
ATOM      3  N   UNL     1       1.553  10.006  18.483  0.00  0.00    +0.000 N 
ATOM      4  H   UNL     1       1.268  10.206  17.529  0.00  0.00    +0.000 HD
ENDROOT
BRANCH   3   5
ATOM      5  C   UNL     1       0.924  10.814  19.529  0.00  0.00    +0.000 C 
ATOM      6  C   UNL     1       1.481  12.232  19.608  0.00  0.00    +0.000 C 
ATOM      7  C   UNL     1       0.981  13.049  18.432  0.00  0.00    +0.000 C 
ATOM      8  C   UNL     1      -0.530  13.153  18.536  0.00  0.00    +0.000 C 
ATOM      9  N   UNL     1      -1.205  11.859  18.663  0.00  0.00    +0.000 N 
ATOM     10  C   UNL     1      -0.599  10.760  19.294  0.00  0.00    +0.000 C 
ATOM     11  O   UNL     1      -1.186   9.706  19.556  0.00  0.00    +0.000 OA
BRANCH   9  12
ATOM     12  C   UNL     1      -2.622  11.834  18.427  0.00  0.00    +0.000 A 
ATOM     13  C   UNL     1      -3.528  12.258  19.410  0.00  0.00    +0.000 A 
ATOM     14  C   UNL     1      -4.908  12.147  19.207  0.00  0.00    +0.000 A 
ATOM     15  C   UNL     1      -5.399  11.655  18.002  0.00  0.00    +0.000 A 
ATOM     16  C   UNL     1      -4.514  11.281  16.996  0.00  0.00    +0.000 A 
ATOM     17  C   UNL     1      -3.136  11.364  17.211  0.00  0.00    +0.000 A 
ENDBRANCH   9  12
ENDBRANCH   3   5
BRANCH   2  18
ATOM     18  C   UNL     1       2.530   7.983  17.528  0.00  0.00    +0.000 C 
BRANCH  18  19
ATOM     19  C   UNL     1       3.226   6.706  17.877  0.00  0.00    +0.000 A 
ATOM     20  C   UNL     1       2.621   5.542  18.317  0.00  0.00    +0.000 A 
ATOM     21  N   UNL     1       3.588   4.588  18.477  0.00  0.00    +0.000 N 
ATOM     22  C   UNL     1       4.821   5.100  18.149  0.00  0.00    +0.000 A 
ATOM     23  C   UNL     1       6.080   4.483  18.150  0.00  0.00    +0.000 A 
ATOM     24  C   UNL     1       7.176   5.256  17.756  0.00  0.00    +0.000 A 
ATOM     25  C   UNL     1       7.005   6.582  17.385  0.00  0.00    +0.000 A 
ATOM     26  F   UNL     1       8.077   7.296  17.011  0.00  0.00    +0.000 F 
ATOM     27  C   UNL     1       5.749   7.191  17.388  0.00  0.00    +0.000 A 
ATOM     28  C   UNL     1       4.628   6.431  17.777  0.00  0.00    +0.000 A 
ATOM     29  H   UNL     1       3.424   3.634  18.774  0.00  0.00    +0.000 HD
ENDBRANCH  18  19
ENDBRANCH   2  18
TORSDOF 4
ENDMDL
MODEL 6
REMARK VINA RESULT:      -7.4      4.766      8.140
REMARK  Name = 
REMARK  4 active torsions:
REMARK  status: ('A' for Active; 'I' for Inactive)
REMARK    1  A    between atoms: C_2  and  C_3
REMARK    2  A    between atoms: C_3  and  C_4
REMARK    3  A    between atoms: N_14  and  C_15
REMARK    4  A    between atoms: N_19  and  C_20
REMARK                            x       y       z     vdW  Elec       q    Type
REMARK                         _______ _______ _______ _____ _____    ______ ____
ROOT
ATOM      1  O   UNL     1       2.035   8.554  17.301  0.00  0.00    +0.000 OA
ATOM      2  C   UNL     1       1.897   8.518  18.522  0.00  0.00    +0.000 C 
ATOM      3  N   UNL     1       1.117   9.419  19.218  0.00  0.00    +0.000 N 
ATOM      4  H   UNL     1       1.373   9.554  20.192  0.00  0.00    +0.000 HD
ENDROOT
BRANCH   3   5
ATOM      5  C   UNL     1       0.503  10.565  18.544  0.00  0.00    +0.000 C 
ATOM      6  C   UNL     1      -0.930  10.828  18.995  0.00  0.00    +0.000 C 
ATOM      7  C   UNL     1      -0.932  11.424  20.389  0.00  0.00    +0.000 C 
ATOM      8  C   UNL     1      -0.225  12.766  20.332  0.00  0.00    +0.000 C 
ATOM      9  N   UNL     1       1.113  12.706  19.735  0.00  0.00    +0.000 N 
ATOM     10  C   UNL     1       1.446  11.769  18.743  0.00  0.00    +0.000 C 
ATOM     11  O   UNL     1       2.506  11.783  18.109  0.00  0.00    +0.000 OA
BRANCH   9  12
ATOM     12  C   UNL     1       1.974  13.836  19.945  0.00  0.00    +0.000 A 
ATOM     13  C   UNL     1       1.834  15.006  19.184  0.00  0.00    +0.000 A 
ATOM     14  C   UNL     1       2.733  16.068  19.332  0.00  0.00    +0.000 A 
ATOM     15  C   UNL     1       3.754  15.992  20.274  0.00  0.00    +0.000 A 
ATOM     16  C   UNL     1       3.874  14.860  21.074  0.00  0.00    +0.000 A 
ATOM     17  C   UNL     1       2.994  13.788  20.905  0.00  0.00    +0.000 A 
ENDBRANCH   9  12
ENDBRANCH   3   5
BRANCH   2  18
ATOM     18  C   UNL     1       2.500   7.413  19.369  0.00  0.00    +0.000 C 
BRANCH  18  19
ATOM     19  C   UNL     1       3.153   6.330  18.569  0.00  0.00    +0.000 A 
ATOM     20  C   UNL     1       4.361   6.424  17.904  0.00  0.00    +0.000 A 
ATOM     21  N   UNL     1       4.638   5.209  17.338  0.00  0.00    +0.000 N 
ATOM     22  C   UNL     1       3.634   4.314  17.621  0.00  0.00    +0.000 A 
ATOM     23  C   UNL     1       3.506   2.964  17.262  0.00  0.00    +0.000 A 
ATOM     24  C   UNL     1       2.365   2.287  17.700  0.00  0.00    +0.000 A 
ATOM     25  C   UNL     1       1.405   2.942  18.459  0.00  0.00    +0.000 A 
ATOM     26  F   UNL     1       0.323   2.264  18.866  0.00  0.00    +0.000 F 
ATOM     27  C   UNL     1       1.538   4.286  18.812  0.00  0.00    +0.000 A 
ATOM     28  C   UNL     1       2.682   4.990  18.384  0.00  0.00    +0.000 A 
ATOM     29  H   UNL     1       5.469   4.988  16.805  0.00  0.00    +0.000 HD
ENDBRANCH  18  19
ENDBRANCH   2  18
TORSDOF 4
ENDMDL
MODEL 7
REMARK VINA RESULT:      -7.3      3.522      4.994
REMARK  Name = 
REMARK  4 active torsions:
REMARK  status: ('A' for Active; 'I' for Inactive)
REMARK    1  A    between atoms: C_2  and  C_3
REMARK    2  A    between atoms: C_3  and  C_4
REMARK    3  A    between atoms: N_14  and  C_15
REMARK    4  A    between atoms: N_19  and  C_20
REMARK                            x       y       z     vdW  Elec       q    Type
REMARK                         _______ _______ _______ _____ _____    ______ ____
ROOT
ATOM      1  O   UNL     1       2.664   7.112  19.633  0.00  0.00    +0.000 OA
ATOM      2  C   UNL     1       2.568   7.485  18.465  0.00  0.00    +0.000 C 
ATOM      3  N   UNL     1       3.436   7.080  17.472  0.00  0.00    +0.000 N 
ATOM      4  H   UNL     1       3.522   7.715  16.684  0.00  0.00    +0.000 HD
ENDROOT
BRANCH   3   5
ATOM      5  C   UNL     1       4.616   6.272  17.784  0.00  0.00    +0.000 C 
ATOM      6  C   UNL     1       4.284   4.997  18.553  0.00  0.00    +0.000 C 
ATOM      7  C   UNL     1       3.626   3.993  17.627  0.00  0.00    +0.000 C 
ATOM      8  C   UNL     1       4.624   3.619  16.546  0.00  0.00    +0.000 C 
ATOM      9  N   UNL     1       5.187   4.771  15.836  0.00  0.00    +0.000 N 
ATOM     10  C   UNL     1       5.360   6.019  16.457  0.00  0.00    +0.000 C 
ATOM     11  O   UNL     1       5.966   6.965  15.946  0.00  0.00    +0.000 OA
BRANCH   9  12
ATOM     12  C   UNL     1       5.863   4.509  14.596  0.00  0.00    +0.000 A 
ATOM     13  C   UNL     1       7.122   5.065  14.326  0.00  0.00    +0.000 A 
ATOM     14  C   UNL     1       7.735   4.879  13.082  0.00  0.00    +0.000 A 
ATOM     15  C   UNL     1       7.119   4.097  12.110  0.00  0.00    +0.000 A 
ATOM     16  C   UNL     1       5.895   3.495  12.382  0.00  0.00    +0.000 A 
ATOM     17  C   UNL     1       5.269   3.705  13.614  0.00  0.00    +0.000 A 
ENDBRANCH   9  12
ENDBRANCH   3   5
BRANCH   2  18
ATOM     18  C   UNL     1       1.420   8.355  17.989  0.00  0.00    +0.000 C 
BRANCH  18  19
ATOM     19  C   UNL     1       1.375   9.702  18.637  0.00  0.00    +0.000 A 
ATOM     20  C   UNL     1       1.873  10.878  18.107  0.00  0.00    +0.000 A 
ATOM     21  N   UNL     1       1.593  11.897  18.977  0.00  0.00    +0.000 N 
ATOM     22  C   UNL     1       0.916  11.413  20.071  0.00  0.00    +0.000 A 
ATOM     23  C   UNL     1       0.421  12.092  21.194  0.00  0.00    +0.000 A 
ATOM     24  C   UNL     1      -0.243  11.335  22.163  0.00  0.00    +0.000 A 
ATOM     25  C   UNL     1      -0.395   9.965  22.005  0.00  0.00    +0.000 A 
ATOM     26  F   UNL     1      -1.038   9.268  22.952  0.00  0.00    +0.000 F 
ATOM     27  C   UNL     1       0.102   9.295  20.886  0.00  0.00    +0.000 A 
ATOM     28  C   UNL     1       0.772  10.037  19.893  0.00  0.00    +0.000 A 
ATOM     29  H   UNL     1       1.828  12.870  18.832  0.00  0.00    +0.000 HD
ENDBRANCH  18  19
ENDBRANCH   2  18
TORSDOF 4
ENDMDL
MODEL 8
REMARK VINA RESULT:      -7.3      5.065      9.061
REMARK  Name = 
REMARK  4 active torsions:
REMARK  status: ('A' for Active; 'I' for Inactive)
REMARK    1  A    between atoms: C_2  and  C_3
REMARK    2  A    between atoms: C_3  and  C_4
REMARK    3  A    between atoms: N_14  and  C_15
REMARK    4  A    between atoms: N_19  and  C_20
REMARK                            x       y       z     vdW  Elec       q    Type
REMARK                         _______ _______ _______ _____ _____    ______ ____
ROOT
ATOM      1  O   UNL     1       2.250   8.804  17.325  0.00  0.00    +0.000 OA
ATOM      2  C   UNL     1       1.892   8.648  18.491  0.00  0.00    +0.000 C 
ATOM      3  N   UNL     1       0.992   9.483  19.119  0.00  0.00    +0.000 N 
ATOM      4  H   UNL     1       1.065   9.519  20.132  0.00  0.00    +0.000 HD
ENDROOT
BRANCH   3   5
ATOM      5  C   UNL     1       0.501  10.697  18.463  0.00  0.00    +0.000 C 
ATOM      6  C   UNL     1      -0.797  10.479  17.692  0.00  0.00    +0.000 C 
ATOM      7  C   UNL     1      -1.953  10.326  18.661  0.00  0.00    +0.000 C 
ATOM      8  C   UNL     1      -2.100  11.625  19.432  0.00  0.00    +0.000 C 
ATOM      9  N   UNL     1      -0.864  12.073  20.079  0.00  0.00    +0.000 N 
ATOM     10  C   UNL     1       0.403  11.792  19.543  0.00  0.00    +0.000 C 
ATOM     11  O   UNL     1       1.456  12.277  19.971  0.00  0.00    +0.000 OA
BRANCH   9  12
ATOM     12  C   UNL     1      -0.986  13.086  21.091  0.00  0.00    +0.000 A 
ATOM     13  C   UNL     1      -1.026  12.749  22.452  0.00  0.00    +0.000 A 
ATOM     14  C   UNL     1      -1.235  13.731  23.426  0.00  0.00    +0.000 A 
ATOM     15  C   UNL     1      -1.359  15.067  23.056  0.00  0.00    +0.000 A 
ATOM     16  C   UNL     1      -1.268  15.423  21.715  0.00  0.00    +0.000 A 
ATOM     17  C   UNL     1      -1.089  14.438  20.740  0.00  0.00    +0.000 A 
ENDBRANCH   9  12
ENDBRANCH   3   5
BRANCH   2  18
ATOM     18  C   UNL     1       2.340   7.458  19.319  0.00  0.00    +0.000 C 
BRANCH  18  19
ATOM     19  C   UNL     1       3.026   6.394  18.523  0.00  0.00    +0.000 A 
ATOM     20  C   UNL     1       4.228   6.526  17.852  0.00  0.00    +0.000 A 
ATOM     21  N   UNL     1       4.544   5.318  17.291  0.00  0.00    +0.000 N 
ATOM     22  C   UNL     1       3.572   4.390  17.582  0.00  0.00    +0.000 A 
ATOM     23  C   UNL     1       3.489   3.036  17.231  0.00  0.00    +0.000 A 
ATOM     24  C   UNL     1       2.373   2.322  17.677  0.00  0.00    +0.000 A 
ATOM     25  C   UNL     1       1.395   2.948  18.437  0.00  0.00    +0.000 A 
ATOM     26  F   UNL     1       0.338   2.235  18.851  0.00  0.00    +0.000 F 
ATOM     27  C   UNL     1       1.483   4.298  18.782  0.00  0.00    +0.000 A 
ATOM     28  C   UNL     1       2.600   5.038  18.346  0.00  0.00    +0.000 A 
ATOM     29  H   UNL     1       5.380   5.123  16.756  0.00  0.00    +0.000 HD
ENDBRANCH  18  19
ENDBRANCH   2  18
TORSDOF 4
ENDMDL
MODEL 9
REMARK VINA RESULT:      -7.2      5.151      8.333
REMARK  Name = 
REMARK  4 active torsions:
REMARK  status: ('A' for Active; 'I' for Inactive)
REMARK    1  A    between atoms: C_2  and  C_3
REMARK    2  A    between atoms: C_3  and  C_4
REMARK    3  A    between atoms: N_14  and  C_15
REMARK    4  A    between atoms: N_19  and  C_20
REMARK                            x       y       z     vdW  Elec       q    Type
REMARK                         _______ _______ _______ _____ _____    ______ ____
ROOT
ATOM      1  O   UNL     1       7.477   9.488  17.110  0.00  0.00    +0.000 OA
ATOM      2  C   UNL     1       7.876   8.635  17.900  0.00  0.00    +0.000 C 
ATOM      3  N   UNL     1       7.579   7.294  17.771  0.00  0.00    +0.000 N 
ATOM      4  H   UNL     1       7.605   6.758  18.634  0.00  0.00    +0.000 HD
ENDROOT
BRANCH   3   5
ATOM      5  C   UNL     1       6.650   6.821  16.743  0.00  0.00    +0.000 C 
ATOM      6  C   UNL     1       7.190   5.637  15.947  0.00  0.00    +0.000 C 
ATOM      7  C   UNL     1       7.159   4.384  16.799  0.00  0.00    +0.000 C 
ATOM      8  C   UNL     1       5.712   4.076  17.137  0.00  0.00    +0.000 C 
ATOM      9  N   UNL     1       4.993   5.200  17.743  0.00  0.00    +0.000 N 
ATOM     10  C   UNL     1       5.305   6.535  17.441  0.00  0.00    +0.000 C 
ATOM     11  O   UNL     1       4.629   7.502  17.809  0.00  0.00    +0.000 OA
BRANCH   9  12
ATOM     12  C   UNL     1       3.748   4.904  18.397  0.00  0.00    +0.000 A 
ATOM     13  C   UNL     1       3.600   5.069  19.782  0.00  0.00    +0.000 A 
ATOM     14  C   UNL     1       2.415   4.695  20.424  0.00  0.00    +0.000 A 
ATOM     15  C   UNL     1       1.348   4.194  19.685  0.00  0.00    +0.000 A 
ATOM     16  C   UNL     1       1.460   4.075  18.304  0.00  0.00    +0.000 A 
ATOM     17  C   UNL     1       2.654   4.421  17.666  0.00  0.00    +0.000 A 
ENDBRANCH   9  12
ENDBRANCH   3   5
BRANCH   2  18
ATOM     18  C   UNL     1       8.818   8.971  19.041  0.00  0.00    +0.000 C 
BRANCH  18  19
ATOM     19  C   UNL     1       9.372  10.359  18.976  0.00  0.00    +0.000 A 
ATOM     20  C   UNL     1       9.897  10.975  17.854  0.00  0.00    +0.000 A 
ATOM     21  N   UNL     1      10.248  12.254  18.189  0.00  0.00    +0.000 N 
ATOM     22  C   UNL     1       9.961  12.495  19.511  0.00  0.00    +0.000 A 
ATOM     23  C   UNL     1      10.137  13.660  20.271  0.00  0.00    +0.000 A 
ATOM     24  C   UNL     1       9.743  13.620  21.612  0.00  0.00    +0.000 A 
ATOM     25  C   UNL     1       9.203  12.461  22.153  0.00  0.00    +0.000 A 
ATOM     26  F   UNL     1       8.834  12.455  23.442  0.00  0.00    +0.000 F 
ATOM     27  C   UNL     1       9.033  11.304  21.391  0.00  0.00    +0.000 A 
ATOM     28  C   UNL     1       9.419  11.321  20.036  0.00  0.00    +0.000 A 
ATOM     29  H   UNL     1      10.643  12.937  17.554  0.00  0.00    +0.000 HD
ENDBRANCH  18  19
ENDBRANCH   2  18
TORSDOF 4
ENDMDL
