MODEL 1
REMARK VINA RESULT:      -8.6      0.000      0.000
REMARK  Name = 
REMARK  3 active torsions:
REMARK  status: ('A' for Active; 'I' for Inactive)
REMARK    1  A    between atoms: C_2  and  C_20
REMARK    2  A    between atoms: N_10  and  C_11
REMARK    3  A    between atoms: C_11  and  C_12
REMARK                            x       y       z     vdW  Elec       q    Type
REMARK                         _______ _______ _______ _____ _____    ______ ____
ROOT
ATOM      1  O   UNL     1       2.667   8.859  17.385  0.00  0.00    +0.000 OA
ATOM      2  C   UNL     1       2.451   8.015  18.244  0.00  0.00    +0.000 C 
ATOM      3  N   UNL     1       1.726   8.155  19.405  0.00  0.00    +0.000 N 
ATOM      4  C   UNL     1       1.054   9.303  19.727  0.00  0.00    +0.000 A 
ATOM      5  N   UNL     1       0.769  10.352  18.991  0.00  0.00    +0.000 NA
ATOM      6  C   UNL     1       0.100  11.276  19.771  0.00  0.00    +0.000 A 
ATOM      7  C   UNL     1      -0.094  10.916  21.088  0.00  0.00    +0.000 A 
ATOM      8  S   UNL     1       0.511   9.347  21.355  0.00  0.00    +0.000 S 
ATOM      9  C   UNL     1      -0.690  11.799  22.139  0.00  0.00    +0.000 C 
ATOM     10  N   UNL     1      -1.419  12.963  21.572  0.00  0.00    +0.000 NA
ATOM     11  C   UNL     1      -0.666  13.548  20.426  0.00  0.00    +0.000 C 
ATOM     12  C   UNL     1      -0.386  12.581  19.246  0.00  0.00    +0.000 C 
ATOM     13  H   UNL     1       1.768   7.447  20.123  0.00  0.00    +0.000 HD
ENDROOT
BRANCH   2  14
ATOM     14  C   UNL     1       3.093   6.679  18.089  0.00  0.00    +0.000 A 
ATOM     15  C   UNL     1       4.297   6.598  17.375  0.00  0.00    +0.000 A 
ATOM     16  C   UNL     1       4.928   5.369  17.139  0.00  0.00    +0.000 A 
ATOM     17  C   UNL     1       4.245   4.234  17.576  0.00  0.00    +0.000 A 
ATOM     18  N   UNL     1       4.491   2.891  17.414  0.00  0.00    +0.000 N 
ATOM     19  C   UNL     1       3.450   2.205  17.974  0.00  0.00    +0.000 A 
ATOM     20  N   UNL     1       2.592   3.015  18.554  0.00  0.00    +0.000 NA
ATOM     21  C   UNL     1       3.051   4.282  18.288  0.00  0.00    +0.000 A 
ATOM     22  C   UNL     1       2.473   5.525  18.592  0.00  0.00    +0.000 A 
ATOM     23  H   UNL     1       5.260   2.485  16.903  0.00  0.00    +0.000 HD
ENDBRANCH   2  14
BRANCH  10  24
ATOM     24  C   UNL     1      -2.801  12.641  21.177  0.00  0.00    +0.000 C 
BRANCH  24  25
ATOM     25  C   UNL     1      -3.824  12.719  22.295  0.00  0.00    +0.000 A 
ATOM     26  C   UNL     1      -5.180  12.955  22.032  0.00  0.00    +0.000 A 
ATOM     27  C   UNL     1      -6.118  12.948  23.072  0.00  0.00    +0.000 A 
ATOM     28  C   UNL     1      -5.709  12.697  24.380  0.00  0.00    +0.000 A 
ATOM     29  C   UNL     1      -4.363  12.460  24.654  0.00  0.00    +0.000 A 
ATOM     30  C   UNL     1      -3.427  12.470  23.617  0.00  0.00    +0.000 A 
ENDBRANCH  24  25
ENDBRANCH  10  24
TORSDOF 3
ENDMDL
MODEL 2
REMARK VINA RESULT:      -8.4      2.802      4.467
REMARK  Name = 
REMARK  3 active torsions:
REMARK  status: ('A' for Active; 'I' for Inactive)
REMARK    1  A    between atoms: C_2  and  C_20
REMARK    2  A    between atoms: N_10  and  C_11
REMARK    3  A    between atoms: C_11  and  C_12
REMARK                            x       y       z     vdW  Elec       q    Type
REMARK                         _______ _______ _______ _____ _____    ______ ____
ROOT
ATOM      1  O   UNL     1       2.698   5.828  19.960  0.00  0.00    +0.000 OA
ATOM      2  C   UNL     1       2.943   6.335  18.874  0.00  0.00    +0.000 C 
ATOM      3  N   UNL     1       2.530   7.557  18.398  0.00  0.00    +0.000 N 
ATOM      4  C   UNL     1       1.811   8.445  19.153  0.00  0.00    +0.000 A 
ATOM      5  N   UNL     1       1.564   8.454  20.442  0.00  0.00    +0.000 NA
ATOM      6  C   UNL     1       0.761   9.539  20.735  0.00  0.00    +0.000 A 
ATOM      7  C   UNL     1       0.400  10.323  19.659  0.00  0.00    +0.000 A 
ATOM      8  S   UNL     1       1.138   9.735  18.241  0.00  0.00    +0.000 S 
ATOM      9  C   UNL     1      -0.550  11.477  19.718  0.00  0.00    +0.000 C 
ATOM     10  N   UNL     1      -0.780  11.966  21.103  0.00  0.00    +0.000 NA
ATOM     11  C   UNL     1      -0.913  10.822  22.050  0.00  0.00    +0.000 C 
ATOM     12  C   UNL     1       0.302   9.860  22.114  0.00  0.00    +0.000 C 
ATOM     13  H   UNL     1       2.642   7.791  17.422  0.00  0.00    +0.000 HD
ENDROOT
BRANCH   2  14
ATOM     14  C   UNL     1       3.723   5.533  17.888  0.00  0.00    +0.000 A 
ATOM     15  C   UNL     1       3.641   4.135  17.955  0.00  0.00    +0.000 A 
ATOM     16  C   UNL     1       4.391   3.316  17.100  0.00  0.00    +0.000 A 
ATOM     17  C   UNL     1       5.281   3.969  16.246  0.00  0.00    +0.000 A 
ATOM     18  N   UNL     1       6.240   3.501  15.380  0.00  0.00    +0.000 N 
ATOM     19  C   UNL     1       6.891   4.581  14.854  0.00  0.00    +0.000 A 
ATOM     20  N   UNL     1       6.363   5.712  15.264  0.00  0.00    +0.000 NA
ATOM     21  C   UNL     1       5.383   5.353  16.157  0.00  0.00    +0.000 A 
ATOM     22  C   UNL     1       4.564   6.164  16.960  0.00  0.00    +0.000 A 
ATOM     23  H   UNL     1       6.475   2.533  15.223  0.00  0.00    +0.000 HD
ENDBRANCH   2  14
BRANCH  10  24
ATOM     24  C   UNL     1       0.258  12.904  21.563  0.00  0.00    +0.000 C 
BRANCH  24  25
ATOM     25  C   UNL     1       0.865  13.775  20.479  0.00  0.00    +0.000 A 
ATOM     26  C   UNL     1       0.152  14.837  19.907  0.00  0.00    +0.000 A 
ATOM     27  C   UNL     1       0.759  15.674  18.962  0.00  0.00    +0.000 A 
ATOM     28  C   UNL     1       2.083  15.460  18.587  0.00  0.00    +0.000 A 
ATOM     29  C   UNL     1       2.802  14.407  19.148  0.00  0.00    +0.000 A 
ATOM     30  C   UNL     1       2.197  13.570  20.088  0.00  0.00    +0.000 A 
ENDBRANCH  24  25
ENDBRANCH  10  24
TORSDOF 3
ENDMDL
MODEL 3
REMARK VINA RESULT:      -8.4      0.799      1.212
REMARK  Name = 
REMARK  3 active torsions:
REMARK  status: ('A' for Active; 'I' for Inactive)
REMARK    1  A    between atoms: C_2  and  C_20
REMARK    2  A    between atoms: N_10  and  C_11
REMARK    3  A    between atoms: C_11  and  C_12
REMARK                            x       y       z     vdW  Elec       q    Type
REMARK                         _______ _______ _______ _____ _____    ______ ____
ROOT
ATOM      1  O   UNL     1       2.864   8.229  18.072  0.00  0.00    +0.000 OA
ATOM      2  C   UNL     1       2.512   7.454  18.950  0.00  0.00    +0.000 C 
ATOM      3  N   UNL     1       1.709   7.712  20.036  0.00  0.00    +0.000 N 
ATOM      4  C   UNL     1       1.106   8.924  20.243  0.00  0.00    +0.000 A 
ATOM      5  N   UNL     1       0.967   9.949  19.435  0.00  0.00    +0.000 NA
ATOM      6  C   UNL     1       0.312  10.962  20.108  0.00  0.00    +0.000 A 
ATOM      7  C   UNL     1      -0.017  10.692  21.420  0.00  0.00    +0.000 A 
ATOM      8  S   UNL     1       0.438   9.100  21.815  0.00  0.00    +0.000 S 
ATOM      9  C   UNL     1      -0.623  11.674  22.372  0.00  0.00    +0.000 C 
ATOM     10  N   UNL     1      -1.209  12.857  21.688  0.00  0.00    +0.000 NA
ATOM     11  C   UNL     1      -0.321  13.319  20.583  0.00  0.00    +0.000 C 
ATOM     12  C   UNL     1      -0.024  12.269  19.480  0.00  0.00    +0.000 C 
ATOM     13  H   UNL     1       1.635   7.044  20.789  0.00  0.00    +0.000 HD
ENDROOT
BRANCH   2  14
ATOM     14  C   UNL     1       3.056   6.066  18.916  0.00  0.00    +0.000 A 
ATOM     15  C   UNL     1       4.438   5.890  19.072  0.00  0.00    +0.000 A 
ATOM     16  C   UNL     1       5.028   4.621  18.993  0.00  0.00    +0.000 A 
ATOM     17  C   UNL     1       4.176   3.566  18.664  0.00  0.00    +0.000 A 
ATOM     18  N   UNL     1       4.414   2.242  18.385  0.00  0.00    +0.000 N 
ATOM     19  C   UNL     1       3.224   1.668  18.036  0.00  0.00    +0.000 A 
ATOM     20  N   UNL     1       2.225   2.515  18.148  0.00  0.00    +0.000 NA
ATOM     21  C   UNL     1       2.802   3.710  18.504  0.00  0.00    +0.000 A 
ATOM     22  C   UNL     1       2.211   4.974  18.670  0.00  0.00    +0.000 A 
ATOM     23  H   UNL     1       5.317   1.792  18.363  0.00  0.00    +0.000 HD
ENDBRANCH   2  14
BRANCH  10  24
ATOM     24  C   UNL     1      -2.575  12.618  21.193  0.00  0.00    +0.000 C 
BRANCH  24  25
ATOM     25  C   UNL     1      -3.655  12.614  22.259  0.00  0.00    +0.000 A 
ATOM     26  C   UNL     1      -3.346  12.442  23.615  0.00  0.00    +0.000 A 
ATOM     27  C   UNL     1      -4.350  12.518  24.589  0.00  0.00    +0.000 A 
ATOM     28  C   UNL     1      -5.668  12.772  24.215  0.00  0.00    +0.000 A 
ATOM     29  C   UNL     1      -5.987  12.945  22.870  0.00  0.00    +0.000 A 
ATOM     30  C   UNL     1      -4.987  12.867  21.899  0.00  0.00    +0.000 A 
ENDBRANCH  24  25
ENDBRANCH  10  24
TORSDOF 3
ENDMDL
MODEL 4
REMARK VINA RESULT:      -8.3      2.452     10.436
REMARK  Name = 
REMARK  3 active torsions:
REMARK  status: ('A' for Active; 'I' for Inactive)
REMARK    1  A    between atoms: C_2  and  C_20
REMARK    2  A    between atoms: N_10  and  C_11
REMARK    3  A    between atoms: C_11  and  C_12
REMARK                            x       y       z     vdW  Elec       q    Type
REMARK                         _______ _______ _______ _____ _____    ______ ____
ROOT
ATOM      1  O   UNL     1      -0.231  10.281  23.533  0.00  0.00    +0.000 OA
ATOM      2  C   UNL     1      -0.645  10.984  22.621  0.00  0.00    +0.000 C 
ATOM      3  N   UNL     1      -0.390  10.863  21.275  0.00  0.00    +0.000 N 
ATOM      4  C   UNL     1       0.344   9.834  20.748  0.00  0.00    +0.000 A 
ATOM      5  N   UNL     1       0.742   8.710  21.297  0.00  0.00    +0.000 NA
ATOM      6  C   UNL     1       1.487   8.002  20.374  0.00  0.00    +0.000 A 
ATOM      7  C   UNL     1       1.653   8.611  19.147  0.00  0.00    +0.000 A 
ATOM      8  S   UNL     1       0.798  10.083  19.111  0.00  0.00    +0.000 S 
ATOM      9  C   UNL     1       2.509   8.086  18.038  0.00  0.00    +0.000 C 
ATOM     10  N   UNL     1       2.865   6.653  18.210  0.00  0.00    +0.000 NA
ATOM     11  C   UNL     1       3.202   6.362  19.633  0.00  0.00    +0.000 C 
ATOM     12  C   UNL     1       2.083   6.668  20.662  0.00  0.00    +0.000 C 
ATOM     13  H   UNL     1      -0.637  11.605  20.638  0.00  0.00    +0.000 HD
ENDROOT
BRANCH   2  14
ATOM     14  C   UNL     1      -1.472  12.173  22.976  0.00  0.00    +0.000 A 
ATOM     15  C   UNL     1      -2.787  11.961  23.415  0.00  0.00    +0.000 A 
ATOM     16  C   UNL     1      -3.641  13.032  23.710  0.00  0.00    +0.000 A 
ATOM     17  C   UNL     1      -3.138  14.308  23.458  0.00  0.00    +0.000 A 
ATOM     18  N   UNL     1      -3.716  15.554  23.509  0.00  0.00    +0.000 N 
ATOM     19  C   UNL     1      -2.791  16.462  23.076  0.00  0.00    +0.000 A 
ATOM     20  N   UNL     1      -1.633  15.894  22.826  0.00  0.00    +0.000 NA
ATOM     21  C   UNL     1      -1.839  14.550  23.025  0.00  0.00    +0.000 A 
ATOM     22  C   UNL     1      -0.965  13.470  22.814  0.00  0.00    +0.000 A 
ATOM     23  H   UNL     1      -4.676  15.754  23.746  0.00  0.00    +0.000 HD
ENDBRANCH   2  14
BRANCH  10  24
ATOM     24  C   UNL     1       1.820   5.737  17.725  0.00  0.00    +0.000 C 
BRANCH  24  25
ATOM     25  C   UNL     1       2.112   4.262  17.925  0.00  0.00    +0.000 A 
ATOM     26  C   UNL     1       3.281   3.672  17.428  0.00  0.00    +0.000 A 
ATOM     27  C   UNL     1       3.566   2.326  17.690  0.00  0.00    +0.000 A 
ATOM     28  C   UNL     1       2.688   1.563  18.457  0.00  0.00    +0.000 A 
ATOM     29  C   UNL     1       1.522   2.138  18.957  0.00  0.00    +0.000 A 
ATOM     30  C   UNL     1       1.237   3.479  18.693  0.00  0.00    +0.000 A 
ENDBRANCH  24  25
ENDBRANCH  10  24
TORSDOF 3
ENDMDL
MODEL 5
REMARK VINA RESULT:      -8.3      2.633      4.196
REMARK  Name = 
REMARK  3 active torsions:
REMARK  status: ('A' for Active; 'I' for Inactive)
REMARK    1  A    between atoms: C_2  and  C_20
REMARK    2  A    between atoms: N_10  and  C_11
REMARK    3  A    between atoms: C_11  and  C_12
REMARK                            x       y       z     vdW  Elec       q    Type
REMARK                         _______ _______ _______ _____ _____    ______ ____
ROOT
ATOM      1  O   UNL     1       2.499   6.155  20.073  0.00  0.00    +0.000 OA
ATOM      2  C   UNL     1       2.701   6.634  18.965  0.00  0.00    +0.000 C 
ATOM      3  N   UNL     1       2.247   7.832  18.465  0.00  0.00    +0.000 N 
ATOM      4  C   UNL     1       1.529   8.725  19.214  0.00  0.00    +0.000 A 
ATOM      5  N   UNL     1       1.319   8.769  20.508  0.00  0.00    +0.000 NA
ATOM      6  C   UNL     1       0.500   9.845  20.792  0.00  0.00    +0.000 A 
ATOM      7  C   UNL     1       0.091  10.586  19.704  0.00  0.00    +0.000 A 
ATOM      8  S   UNL     1       0.802   9.972  18.283  0.00  0.00    +0.000 S 
ATOM      9  C   UNL     1      -0.883  11.721  19.756  0.00  0.00    +0.000 C 
ATOM     10  N   UNL     1      -1.085  12.247  21.132  0.00  0.00    +0.000 NA
ATOM     11  C   UNL     1      -1.166  11.130  22.116  0.00  0.00    +0.000 C 
ATOM     12  C   UNL     1       0.073  10.198  22.174  0.00  0.00    +0.000 C 
ATOM     13  H   UNL     1       2.326   8.038  17.480  0.00  0.00    +0.000 HD
ENDROOT
BRANCH   2  14
ATOM     14  C   UNL     1       3.471   5.819  17.982  0.00  0.00    +0.000 A 
ATOM     15  C   UNL     1       3.235   4.438  17.933  0.00  0.00    +0.000 A 
ATOM     16  C   UNL     1       3.962   3.602  17.075  0.00  0.00    +0.000 A 
ATOM     17  C   UNL     1       4.986   4.208  16.346  0.00  0.00    +0.000 A 
ATOM     18  N   UNL     1       5.958   3.695  15.521  0.00  0.00    +0.000 N 
ATOM     19  C   UNL     1       6.764   4.729  15.132  0.00  0.00    +0.000 A 
ATOM     20  N   UNL     1       6.327   5.882  15.588  0.00  0.00    +0.000 NA
ATOM     21  C   UNL     1       5.242   5.574  16.373  0.00  0.00    +0.000 A 
ATOM     22  C   UNL     1       4.450   6.414  17.173  0.00  0.00    +0.000 A 
ATOM     23  H   UNL     1       6.101   2.720  15.307  0.00  0.00    +0.000 HD
ENDBRANCH   2  14
BRANCH  10  24
ATOM     24  C   UNL     1      -0.056  13.221  21.533  0.00  0.00    +0.000 C 
BRANCH  24  25
ATOM     25  C   UNL     1       0.185  14.347  20.545  0.00  0.00    +0.000 A 
ATOM     26  C   UNL     1       1.388  14.454  19.834  0.00  0.00    +0.000 A 
ATOM     27  C   UNL     1       1.559  15.458  18.873  0.00  0.00    +0.000 A 
ATOM     28  C   UNL     1       0.527  16.356  18.609  0.00  0.00    +0.000 A 
ATOM     29  C   UNL     1      -0.674  16.259  19.309  0.00  0.00    +0.000 A 
ATOM     30  C   UNL     1      -0.844  15.261  20.270  0.00  0.00    +0.000 A 
ENDBRANCH  24  25
ENDBRANCH  10  24
TORSDOF 3
ENDMDL
MODEL 6
REMARK VINA RESULT:      -8.2      2.522      3.481
REMARK  Name = 
REMARK  3 active torsions:
REMARK  status: ('A' for Active; 'I' for Inactive)
REMARK    1  A    between atoms: C_2  and  C_20
REMARK    2  A    between atoms: N_10  and  C_11
REMARK    3  A    between atoms: C_11  and  C_12
REMARK                            x       y       z     vdW  Elec       q    Type
REMARK                         _______ _______ _______ _____ _____    ______ ____
ROOT
ATOM      1  O   UNL     1       2.910   5.843  19.875  0.00  0.00    +0.000 OA
ATOM      2  C   UNL     1       3.036   6.356  18.772  0.00  0.00    +0.000 C 
ATOM      3  N   UNL     1       2.511   7.548  18.328  0.00  0.00    +0.000 N 
ATOM      4  C   UNL     1       1.801   8.394  19.137  0.00  0.00    +0.000 A 
ATOM      5  N   UNL     1       1.658   8.397  20.441  0.00  0.00    +0.000 NA
ATOM      6  C   UNL     1       0.815   9.432  20.795  0.00  0.00    +0.000 A 
ATOM      7  C   UNL     1       0.321  10.185  19.750  0.00  0.00    +0.000 A 
ATOM      8  S   UNL     1       0.979   9.633  18.279  0.00  0.00    +0.000 S 
ATOM      9  C   UNL     1      -0.691  11.278  19.883  0.00  0.00    +0.000 C 
ATOM     10  N   UNL     1      -0.839  11.762  21.281  0.00  0.00    +0.000 NA
ATOM     11  C   UNL     1      -0.826  10.618  22.238  0.00  0.00    +0.000 C 
ATOM     12  C   UNL     1       0.448   9.734  22.206  0.00  0.00    +0.000 C 
ATOM     13  H   UNL     1       2.530   7.781  17.346  0.00  0.00    +0.000 HD
ENDROOT
BRANCH   2  14
ATOM     14  C   UNL     1       3.783   5.597  17.729  0.00  0.00    +0.000 A 
ATOM     15  C   UNL     1       3.659   4.201  17.705  0.00  0.00    +0.000 A 
ATOM     16  C   UNL     1       4.377   3.418  16.791  0.00  0.00    +0.000 A 
ATOM     17  C   UNL     1       5.279   4.098  15.973  0.00  0.00    +0.000 A 
ATOM     18  N   UNL     1       6.216   3.658  15.069  0.00  0.00    +0.000 N 
ATOM     19  C   UNL     1       6.897   4.750  14.608  0.00  0.00    +0.000 A 
ATOM     20  N   UNL     1       6.407   5.868  15.095  0.00  0.00    +0.000 NA
ATOM     21  C   UNL     1       5.423   5.481  15.972  0.00  0.00    +0.000 A 
ATOM     22  C   UNL     1       4.636   6.262  16.835  0.00  0.00    +0.000 A 
ATOM     23  H   UNL     1       6.421   2.696  14.846  0.00  0.00    +0.000 HD
ENDBRANCH   2  14
BRANCH  10  24
ATOM     24  C   UNL     1       0.172  12.765  21.654  0.00  0.00    +0.000 C 
BRANCH  24  25
ATOM     25  C   UNL     1      -0.355  13.947  22.446  0.00  0.00    +0.000 A 
ATOM     26  C   UNL     1       0.036  15.260  22.152  0.00  0.00    +0.000 A 
ATOM     27  C   UNL     1      -0.521  16.341  22.847  0.00  0.00    +0.000 A 
ATOM     28  C   UNL     1      -1.478  16.118  23.835  0.00  0.00    +0.000 A 
ATOM     29  C   UNL     1      -1.875  14.816  24.136  0.00  0.00    +0.000 A 
ATOM     30  C   UNL     1      -1.318  13.738  23.446  0.00  0.00    +0.000 A 
ENDBRANCH  24  25
ENDBRANCH  10  24
TORSDOF 3
ENDMDL
MODEL 7
REMARK VINA RESULT:      -8.2      1.042      1.042
REMARK  Name = 
REMARK  3 active torsions:
REMARK  status: ('A' for Active; 'I' for Inactive)
REMARK    1  A    between atoms: C_2  and  C_20
REMARK    2  A    between atoms: N_10  and  C_11
REMARK    3  A    between atoms: C_11  and  C_12
REMARK                            x       y       z     vdW  Elec       q    Type
REMARK                         _______ _______ _______ _____ _____    ______ ____
ROOT
ATOM      1  O   UNL     1       2.283   8.893  17.403  0.00  0.00    +0.000 OA
ATOM      2  C   UNL     1       2.250   8.214  18.420  0.00  0.00    +0.000 C 
ATOM      3  N   UNL     1       1.612   8.497  19.606  0.00  0.00    +0.000 N 
ATOM      4  C   UNL     1       0.826   9.604  19.781  0.00  0.00    +0.000 A 
ATOM      5  N   UNL     1       0.348  10.451  18.900  0.00  0.00    +0.000 NA
ATOM      6  C   UNL     1      -0.367  11.429  19.564  0.00  0.00    +0.000 A 
ATOM      7  C   UNL     1      -0.404  11.313  20.938  0.00  0.00    +0.000 A 
ATOM      8  S   UNL     1       0.420   9.904  21.423  0.00  0.00    +0.000 S 
ATOM      9  C   UNL     1      -1.019  12.312  21.866  0.00  0.00    +0.000 C 
ATOM     10  N   UNL     1      -1.937  13.255  21.176  0.00  0.00    +0.000 NA
ATOM     11  C   UNL     1      -1.364  13.686  19.869  0.00  0.00    +0.000 C 
ATOM     12  C   UNL     1      -1.060  12.545  18.863  0.00  0.00    +0.000 C 
ATOM     13  H   UNL     1       1.804   7.951  20.433  0.00  0.00    +0.000 HD
ENDROOT
BRANCH   2  14
ATOM     14  C   UNL     1       3.045   6.953  18.445  0.00  0.00    +0.000 A 
ATOM     15  C   UNL     1       3.996   6.746  17.436  0.00  0.00    +0.000 A 
ATOM     16  C   UNL     1       4.738   5.560  17.362  0.00  0.00    +0.000 A 
ATOM     17  C   UNL     1       4.413   4.571  18.292  0.00  0.00    +0.000 A 
ATOM     18  N   UNL     1       4.831   3.271  18.439  0.00  0.00    +0.000 N 
ATOM     19  C   UNL     1       4.124   2.718  19.470  0.00  0.00    +0.000 A 
ATOM     20  N   UNL     1       3.336   3.599  20.044  0.00  0.00    +0.000 NA
ATOM     21  C   UNL     1       3.476   4.748  19.304  0.00  0.00    +0.000 A 
ATOM     22  C   UNL     1       2.799   5.974  19.419  0.00  0.00    +0.000 A 
ATOM     23  H   UNL     1       5.485   2.786  17.843  0.00  0.00    +0.000 HD
ENDBRANCH   2  14
BRANCH  10  24
ATOM     24  C   UNL     1      -3.293  12.711  20.996  0.00  0.00    +0.000 C 
BRANCH  24  25
ATOM     25  C   UNL     1      -4.348  13.290  21.921  0.00  0.00    +0.000 A 
ATOM     26  C   UNL     1      -5.664  12.812  21.923  0.00  0.00    +0.000 A 
ATOM     27  C   UNL     1      -6.601  13.310  22.837  0.00  0.00    +0.000 A 
ATOM     28  C   UNL     1      -6.227  14.284  23.760  0.00  0.00    +0.000 A 
ATOM     29  C   UNL     1      -4.920  14.768  23.768  0.00  0.00    +0.000 A 
ATOM     30  C   UNL     1      -3.987  14.273  22.854  0.00  0.00    +0.000 A 
ENDBRANCH  24  25
ENDBRANCH  10  24
TORSDOF 3
ENDMDL
MODEL 8
REMARK VINA RESULT:      -8.2      2.386     10.382
REMARK  Name = 
REMARK  3 active torsions:
REMARK  status: ('A' for Active; 'I' for Inactive)
REMARK    1  A    between atoms: C_2  and  C_20
REMARK    2  A    between atoms: N_10  and  C_11
REMARK    3  A    between atoms: C_11  and  C_12
REMARK                            x       y       z     vdW  Elec       q    Type
REMARK                         _______ _______ _______ _____ _____    ______ ____
ROOT
ATOM      1  O   UNL     1      -0.120  10.372  23.330  0.00  0.00    +0.000 OA
ATOM      2  C   UNL     1      -0.519  11.037  22.384  0.00  0.00    +0.000 C 
ATOM      3  N   UNL     1      -0.254  10.851  21.047  0.00  0.00    +0.000 N 
ATOM      4  C   UNL     1       0.473   9.792  20.573  0.00  0.00    +0.000 A 
ATOM      5  N   UNL     1       0.855   8.691  21.177  0.00  0.00    +0.000 NA
ATOM      6  C   UNL     1       1.600   7.934  20.293  0.00  0.00    +0.000 A 
ATOM      7  C   UNL     1       1.782   8.484  19.041  0.00  0.00    +0.000 A 
ATOM      8  S   UNL     1       0.943   9.961  18.931  0.00  0.00    +0.000 S 
ATOM      9  C   UNL     1       2.641   7.900  17.965  0.00  0.00    +0.000 C 
ATOM     10  N   UNL     1       2.981   6.473  18.205  0.00  0.00    +0.000 NA
ATOM     11  C   UNL     1       3.304   6.244  19.643  0.00  0.00    +0.000 C 
ATOM     12  C   UNL     1       2.179   6.609  20.648  0.00  0.00    +0.000 C 
ATOM     13  H   UNL     1      -0.488  11.567  20.374  0.00  0.00    +0.000 HD
ENDROOT
BRANCH   2  14
ATOM     14  C   UNL     1      -1.337  12.249  22.677  0.00  0.00    +0.000 A 
ATOM     15  C   UNL     1      -0.695  13.495  22.699  0.00  0.00    +0.000 A 
ATOM     16  C   UNL     1      -1.388  14.669  23.024  0.00  0.00    +0.000 A 
ATOM     17  C   UNL     1      -2.720  14.512  23.407  0.00  0.00    +0.000 A 
ATOM     18  N   UNL     1      -3.649  15.397  23.898  0.00  0.00    +0.000 N 
ATOM     19  C   UNL     1      -4.782  14.693  24.194  0.00  0.00    +0.000 A 
ATOM     20  N   UNL     1      -4.671  13.429  23.853  0.00  0.00    +0.000 NA
ATOM     21  C   UNL     1      -3.384  13.289  23.393  0.00  0.00    +0.000 A 
ATOM     22  C   UNL     1      -2.701  12.133  22.984  0.00  0.00    +0.000 A 
ATOM     23  H   UNL     1      -3.495  16.377  24.083  0.00  0.00    +0.000 HD
ENDBRANCH   2  14
BRANCH  10  24
ATOM     24  C   UNL     1       1.930   5.547  17.753  0.00  0.00    +0.000 C 
BRANCH  24  25
ATOM     25  C   UNL     1       2.211   4.078  18.013  0.00  0.00    +0.000 A 
ATOM     26  C   UNL     1       3.357   3.451  17.507  0.00  0.00    +0.000 A 
ATOM     27  C   UNL     1       3.634   2.114  17.821  0.00  0.00    +0.000 A 
ATOM     28  C   UNL     1       2.772   1.399  18.650  0.00  0.00    +0.000 A 
ATOM     29  C   UNL     1       1.629   2.012  19.159  0.00  0.00    +0.000 A 
ATOM     30  C   UNL     1       1.351   3.343  18.843  0.00  0.00    +0.000 A 
ENDBRANCH  24  25
ENDBRANCH  10  24
TORSDOF 3
ENDMDL
MODEL 9
REMARK VINA RESULT:      -8.1      2.625      4.618
REMARK  Name = 
REMARK  3 active torsions:
REMARK  status: ('A' for Active; 'I' for Inactive)
REMARK    1  A    between atoms: C_2  and  C_20
REMARK    2  A    between atoms: N_10  and  C_11
REMARK    3  A    between atoms: C_11  and  C_12
REMARK                            x       y       z     vdW  Elec       q    Type
REMARK                         _______ _______ _______ _____ _____    ______ ____
ROOT
ATOM      1  O   UNL     1       1.354   7.365  21.155  0.00  0.00    +0.000 OA
ATOM      2  C   UNL     1       1.882   7.430  20.053  0.00  0.00    +0.000 C 
ATOM      3  N   UNL     1       1.823   8.463  19.146  0.00  0.00    +0.000 N 
ATOM      4  C   UNL     1       1.189   9.648  19.409  0.00  0.00    +0.000 A 
ATOM      5  N   UNL     1       0.735  10.132  20.542  0.00  0.00    +0.000 NA
ATOM      6  C   UNL     1       0.141  11.355  20.298  0.00  0.00    +0.000 A 
ATOM      7  C   UNL     1       0.141  11.767  18.982  0.00  0.00    +0.000 A 
ATOM      8  S   UNL     1       0.968  10.632  18.020  0.00  0.00    +0.000 S 
ATOM      9  C   UNL     1      -0.540  12.996  18.468  0.00  0.00    +0.000 C 
ATOM     10  N   UNL     1      -0.893  13.956  19.547  0.00  0.00    +0.000 NA
ATOM     11  C   UNL     1      -1.424  13.235  20.739  0.00  0.00    +0.000 C 
ATOM     12  C   UNL     1      -0.468  12.189  21.370  0.00  0.00    +0.000 C 
ATOM     13  H   UNL     1       2.146   8.332  18.199  0.00  0.00    +0.000 HD
ENDROOT
BRANCH   2  14
ATOM     14  C   UNL     1       2.631   6.237  19.565  0.00  0.00    +0.000 A 
ATOM     15  C   UNL     1       3.323   6.338  18.350  0.00  0.00    +0.000 A 
ATOM     16  C   UNL     1       4.000   5.241  17.801  0.00  0.00    +0.000 A 
ATOM     17  C   UNL     1       3.870   4.032  18.485  0.00  0.00    +0.000 A 
ATOM     18  N   UNL     1       4.280   2.755  18.186  0.00  0.00    +0.000 N 
ATOM     19  C   UNL     1       3.811   1.925  19.165  0.00  0.00    +0.000 A 
ATOM     20  N   UNL     1       3.195   2.594  20.114  0.00  0.00    +0.000 NA
ATOM     21  C   UNL     1       3.192   3.902  19.692  0.00  0.00    +0.000 A 
ATOM     22  C   UNL     1       2.589   5.028  20.275  0.00  0.00    +0.000 A 
ATOM     23  H   UNL     1       4.770   2.468  17.351  0.00  0.00    +0.000 HD
ENDBRANCH   2  14
BRANCH  10  24
ATOM     24  C   UNL     1       0.226  14.835  19.925  0.00  0.00    +0.000 C 
BRANCH  24  25
ATOM     25  C   UNL     1       0.458  16.015  19.000  0.00  0.00    +0.000 A 
ATOM     26  C   UNL     1       1.740  16.344  18.540  0.00  0.00    +0.000 A 
ATOM     27  C   UNL     1       1.921  17.391  17.628  0.00  0.00    +0.000 A 
ATOM     28  C   UNL     1       0.823  18.111  17.164  0.00  0.00    +0.000 A 
ATOM     29  C   UNL     1      -0.457  17.793  17.614  0.00  0.00    +0.000 A 
ATOM     30  C   UNL     1      -0.638  16.751  18.526  0.00  0.00    +0.000 A 
ENDBRANCH  24  25
ENDBRANCH  10  24
TORSDOF 3
ENDMDL
