MODEL 1
REMARK VINA RESULT:      -8.8      0.000      0.000
REMARK  Name = 
REMARK  7 active torsions:
REMARK  status: ('A' for Active; 'I' for Inactive)
REMARK    1  A    between atoms: C_2  and  C_3
REMARK    2  A    between atoms: C_3  and  S_4
REMARK    3  A    between atoms: S_4  and  C_5
REMARK    4  A    between atoms: C_8  and  C_9
REMARK    5  A    between atoms: N_17  and  C_18
REMARK    6  A    between atoms: C_18  and  C_19
REMARK    7  A    between atoms: C_22  and  N_23
REMARK                            x       y       z     vdW  Elec       q    Type
REMARK                         _______ _______ _______ _____ _____    ______ ____
ROOT
ATOM      1  O   UNL     1       5.127   4.007  15.846  0.00  0.00    +0.000 OA
ATOM      2  C   UNL     1       5.647   4.389  16.889  0.00  0.00    +0.000 C 
ATOM      3  N   UNL     1       4.947   4.558  18.063  0.00  0.00    +0.000 N 
ATOM      4  H   UNL     1       5.409   4.938  18.874  0.00  0.00    +0.000 HD
ENDROOT
BRANCH   2   5
ATOM      5  C   UNL     1       7.137   4.710  16.988  0.00  0.00    +0.000 C 
BRANCH   5   6
ATOM      6  S   UNL     1       7.537   5.461  18.587  0.00  0.00    +0.000 S 
BRANCH   6   7
ATOM      7  C   UNL     1       7.814   7.118  18.151  0.00  0.00    +0.000 A 
ATOM      8  N   UNL     1       7.215   7.771  17.175  0.00  0.00    +0.000 NA
ATOM      9  N   UNL     1       7.658   9.083  17.248  0.00  0.00    +0.000 NA
ATOM     10  C   UNL     1       8.501   9.138  18.261  0.00  0.00    +0.000 A 
ATOM     11  O   UNL     1       8.654   7.922  18.873  0.00  0.00    +0.000 OA
BRANCH  10  12
ATOM     12  C   UNL     1       9.235  10.263  18.838  0.00  0.00    +0.000 A 
ATOM     13  C   UNL     1      10.003  11.109  18.020  0.00  0.00    +0.000 A 
ATOM     14  C   UNL     1      10.678  12.210  18.561  0.00  0.00    +0.000 A 
ATOM     15  C   UNL     1      10.595  12.467  19.925  0.00  0.00    +0.000 A 
ATOM     16  F   UNL     1      11.229  13.528  20.440  0.00  0.00    +0.000 F 
ATOM     17  C   UNL     1       9.858  11.638  20.759  0.00  0.00    +0.000 A 
ATOM     18  C   UNL     1       9.180  10.541  20.217  0.00  0.00    +0.000 A 
ENDBRANCH  10  12
ENDBRANCH   6   7
ENDBRANCH   5   6
ENDBRANCH   2   5
BRANCH   3  19
ATOM     19  C   UNL     1       3.512   4.376  18.144  0.00  0.00    +0.000 C 
BRANCH  19  20
ATOM     20  C   UNL     1       2.854   5.513  18.882  0.00  0.00    +0.000 A 
ATOM     21  C   UNL     1       2.151   5.307  20.075  0.00  0.00    +0.000 A 
ATOM     22  C   UNL     1       1.546   6.381  20.741  0.00  0.00    +0.000 A 
ATOM     23  C   UNL     1       1.601   7.681  20.227  0.00  0.00    +0.000 A 
ATOM     24  C   UNL     1       2.315   7.874  19.036  0.00  0.00    +0.000 A 
ATOM     25  C   UNL     1       2.931   6.810  18.372  0.00  0.00    +0.000 A 
BRANCH  23  26
ATOM     26  N   UNL     1       0.952   8.774  20.861  0.00  0.00    +0.000 N 
ATOM     27  C   UNL     1       1.124   9.057  22.267  0.00  0.00    +0.000 C 
ATOM     28  C   UNL     1       0.044  10.065  22.581  0.00  0.00    +0.000 C 
ATOM     29  C   UNL     1      -0.115  10.831  21.284  0.00  0.00    +0.000 C 
ATOM     30  C   UNL     1       0.272   9.826  20.225  0.00  0.00    +0.000 C 
ATOM     31  O   UNL     1       0.031   9.992  19.040  0.00  0.00    +0.000 OA
ENDBRANCH  23  26
ENDBRANCH  19  20
ENDBRANCH   3  19
TORSDOF 7
ENDMDL
MODEL 2
REMARK VINA RESULT:      -8.4      4.349      6.629
REMARK  Name = 
REMARK  7 active torsions:
REMARK  status: ('A' for Active; 'I' for Inactive)
REMARK    1  A    between atoms: C_2  and  C_3
REMARK    2  A    between atoms: C_3  and  S_4
REMARK    3  A    between atoms: S_4  and  C_5
REMARK    4  A    between atoms: C_8  and  C_9
REMARK    5  A    between atoms: N_17  and  C_18
REMARK    6  A    between atoms: C_18  and  C_19
REMARK    7  A    between atoms: C_22  and  N_23
REMARK                            x       y       z     vdW  Elec       q    Type
REMARK                         _______ _______ _______ _____ _____    ______ ____
ROOT
ATOM      1  O   UNL     1       5.095   6.925  15.403  0.00  0.00    +0.000 OA
ATOM      2  C   UNL     1       5.366   7.004  16.597  0.00  0.00    +0.000 C 
ATOM      3  N   UNL     1       4.409   7.126  17.581  0.00  0.00    +0.000 N 
ATOM      4  H   UNL     1       4.689   7.254  18.540  0.00  0.00    +0.000 HD
ENDROOT
BRANCH   2   5
ATOM      5  C   UNL     1       6.803   6.966  17.112  0.00  0.00    +0.000 C 
BRANCH   5   6
ATOM      6  S   UNL     1       7.375   5.261  17.323  0.00  0.00    +0.000 S 
BRANCH   6   7
ATOM      7  C   UNL     1       5.881   4.394  17.486  0.00  0.00    +0.000 A 
ATOM      8  N   UNL     1       5.339   3.609  16.575  0.00  0.00    +0.000 NA
ATOM      9  N   UNL     1       4.214   3.045  17.158  0.00  0.00    +0.000 NA
ATOM     10  C   UNL     1       4.144   3.530  18.382  0.00  0.00    +0.000 A 
ATOM     11  O   UNL     1       5.167   4.400  18.654  0.00  0.00    +0.000 OA
BRANCH  10  12
ATOM     12  C   UNL     1       3.206   3.257  19.470  0.00  0.00    +0.000 A 
ATOM     13  C   UNL     1       3.570   2.410  20.531  0.00  0.00    +0.000 A 
ATOM     14  C   UNL     1       2.689   2.174  21.594  0.00  0.00    +0.000 A 
ATOM     15  C   UNL     1       1.437   2.779  21.598  0.00  0.00    +0.000 A 
ATOM     16  F   UNL     1       0.600   2.565  22.621  0.00  0.00    +0.000 F 
ATOM     17  C   UNL     1       1.045   3.607  20.555  0.00  0.00    +0.000 A 
ATOM     18  C   UNL     1       1.927   3.845  19.495  0.00  0.00    +0.000 A 
ENDBRANCH  10  12
ENDBRANCH   6   7
ENDBRANCH   5   6
ENDBRANCH   2   5
BRANCH   3  19
ATOM     19  C   UNL     1       2.998   7.255  17.280  0.00  0.00    +0.000 C 
BRANCH  19  20
ATOM     20  C   UNL     1       2.286   8.078  18.321  0.00  0.00    +0.000 A 
ATOM     21  C   UNL     1       2.115   7.619  19.632  0.00  0.00    +0.000 A 
ATOM     22  C   UNL     1       1.448   8.403  20.583  0.00  0.00    +0.000 A 
ATOM     23  C   UNL     1       0.911   9.651  20.249  0.00  0.00    +0.000 A 
ATOM     24  C   UNL     1       1.096  10.103  18.935  0.00  0.00    +0.000 A 
ATOM     25  C   UNL     1       1.772   9.332  17.985  0.00  0.00    +0.000 A 
BRANCH  23  26
ATOM     26  N   UNL     1       0.188  10.440  21.184  0.00  0.00    +0.000 N 
ATOM     27  C   UNL     1      -0.228  11.791  20.887  0.00  0.00    +0.000 C 
ATOM     28  C   UNL     1      -0.662  12.351  22.220  0.00  0.00    +0.000 C 
ATOM     29  C   UNL     1      -1.193  11.139  22.958  0.00  0.00    +0.000 C 
ATOM     30  C   UNL     1      -0.405   9.991  22.375  0.00  0.00    +0.000 C 
ATOM     31  O   UNL     1      -0.371   8.885  22.892  0.00  0.00    +0.000 OA
ENDBRANCH  23  26
ENDBRANCH  19  20
ENDBRANCH   3  19
TORSDOF 7
ENDMDL
MODEL 3
REMARK VINA RESULT:      -8.4      3.788      5.305
REMARK  Name = 
REMARK  7 active torsions:
REMARK  status: ('A' for Active; 'I' for Inactive)
REMARK    1  A    between atoms: C_2  and  C_3
REMARK    2  A    between atoms: C_3  and  S_4
REMARK    3  A    between atoms: S_4  and  C_5
REMARK    4  A    between atoms: C_8  and  C_9
REMARK    5  A    between atoms: N_17  and  C_18
REMARK    6  A    between atoms: C_18  and  C_19
REMARK    7  A    between atoms: C_22  and  N_23
REMARK                            x       y       z     vdW  Elec       q    Type
REMARK                         _______ _______ _______ _____ _____    ______ ____
ROOT
ATOM      1  O   UNL     1       1.619   3.412  21.816  0.00  0.00    +0.000 OA
ATOM      2  C   UNL     1       1.370   3.688  20.647  0.00  0.00    +0.000 C 
ATOM      3  N   UNL     1       1.719   4.887  20.066  0.00  0.00    +0.000 N 
ATOM      4  H   UNL     1       1.432   5.091  19.121  0.00  0.00    +0.000 HD
ENDROOT
BRANCH   2   5
ATOM      5  C   UNL     1       0.651   2.717  19.714  0.00  0.00    +0.000 C 
BRANCH   5   6
ATOM      6  S   UNL     1       1.674   2.320  18.273  0.00  0.00    +0.000 S 
BRANCH   6   7
ATOM      7  C   UNL     1       3.232   2.908  18.761  0.00  0.00    +0.000 A 
ATOM      8  N   UNL     1       4.093   2.271  19.530  0.00  0.00    +0.000 NA
ATOM      9  N   UNL     1       5.237   3.054  19.576  0.00  0.00    +0.000 NA
ATOM     10  C   UNL     1       4.993   4.117  18.834  0.00  0.00    +0.000 A 
ATOM     11  O   UNL     1       3.734   4.093  18.293  0.00  0.00    +0.000 OA
BRANCH  10  12
ATOM     12  C   UNL     1       5.842   5.251  18.476  0.00  0.00    +0.000 A 
ATOM     13  C   UNL     1       7.095   5.426  19.087  0.00  0.00    +0.000 A 
ATOM     14  C   UNL     1       7.929   6.490  18.721  0.00  0.00    +0.000 A 
ATOM     15  C   UNL     1       7.511   7.390  17.747  0.00  0.00    +0.000 A 
ATOM     16  F   UNL     1       8.314   8.399  17.387  0.00  0.00    +0.000 F 
ATOM     17  C   UNL     1       6.271   7.251  17.139  0.00  0.00    +0.000 A 
ATOM     18  C   UNL     1       5.440   6.186  17.502  0.00  0.00    +0.000 A 
ENDBRANCH  10  12
ENDBRANCH   6   7
ENDBRANCH   5   6
ENDBRANCH   2   5
BRANCH   3  19
ATOM     19  C   UNL     1       2.338   5.962  20.814  0.00  0.00    +0.000 C 
BRANCH  19  20
ATOM     20  C   UNL     1       1.776   7.303  20.420  0.00  0.00    +0.000 A 
ATOM     21  C   UNL     1       2.111   7.914  19.206  0.00  0.00    +0.000 A 
ATOM     22  C   UNL     1       1.575   9.162  18.863  0.00  0.00    +0.000 A 
ATOM     23  C   UNL     1       0.715   9.848  19.728  0.00  0.00    +0.000 A 
ATOM     24  C   UNL     1       0.381   9.222  20.937  0.00  0.00    +0.000 A 
ATOM     25  C   UNL     1       0.902   7.971  21.280  0.00  0.00    +0.000 A 
BRANCH  23  26
ATOM     26  N   UNL     1       0.201  11.136  19.421  0.00  0.00    +0.000 N 
ATOM     27  C   UNL     1      -0.809  11.337  18.408  0.00  0.00    +0.000 C 
ATOM     28  C   UNL     1      -0.828  12.832  18.189  0.00  0.00    +0.000 C 
ATOM     29  C   UNL     1      -0.457  13.394  19.546  0.00  0.00    +0.000 C 
ATOM     30  C   UNL     1       0.403  12.314  20.158  0.00  0.00    +0.000 C 
ATOM     31  O   UNL     1       1.096  12.505  21.146  0.00  0.00    +0.000 OA
ENDBRANCH  23  26
ENDBRANCH  19  20
ENDBRANCH   3  19
TORSDOF 7
ENDMDL
MODEL 4
REMARK VINA RESULT:      -8.3      0.988      1.556
REMARK  Name = 
REMARK  7 active torsions:
REMARK  status: ('A' for Active; 'I' for Inactive)
REMARK    1  A    between atoms: C_2  and  C_3
REMARK    2  A    between atoms: C_3  and  S_4
REMARK    3  A    between atoms: S_4  and  C_5
REMARK    4  A    between atoms: C_8  and  C_9
REMARK    5  A    between atoms: N_17  and  C_18
REMARK    6  A    between atoms: C_18  and  C_19
REMARK    7  A    between atoms: C_22  and  N_23
REMARK                            x       y       z     vdW  Elec       q    Type
REMARK                         _______ _______ _______ _____ _____    ______ ____
ROOT
ATOM      1  O   UNL     1       5.143   3.963  16.232  0.00  0.00    +0.000 OA
ATOM      2  C   UNL     1       5.676   4.403  17.245  0.00  0.00    +0.000 C 
ATOM      3  N   UNL     1       4.976   4.722  18.387  0.00  0.00    +0.000 N 
ATOM      4  H   UNL     1       5.453   5.143  19.169  0.00  0.00    +0.000 HD
ENDROOT
BRANCH   2   5
ATOM      5  C   UNL     1       7.183   4.633  17.340  0.00  0.00    +0.000 C 
BRANCH   5   6
ATOM      6  S   UNL     1       7.610   5.531  18.853  0.00  0.00    +0.000 S 
BRANCH   6   7
ATOM      7  C   UNL     1       7.853   7.145  18.263  0.00  0.00    +0.000 A 
ATOM      8  N   UNL     1       7.311   7.660  17.176  0.00  0.00    +0.000 NA
ATOM      9  N   UNL     1       7.690   8.993  17.141  0.00  0.00    +0.000 NA
ATOM     10  C   UNL     1       8.440   9.198  18.205  0.00  0.00    +0.000 A 
ATOM     11  O   UNL     1       8.592   8.063  18.957  0.00  0.00    +0.000 OA
BRANCH  10  12
ATOM     12  C   UNL     1       9.073  10.414  18.713  0.00  0.00    +0.000 A 
ATOM     13  C   UNL     1       9.136  11.571  17.918  0.00  0.00    +0.000 A 
ATOM     14  C   UNL     1       9.708  12.750  18.411  0.00  0.00    +0.000 A 
ATOM     15  C   UNL     1      10.227  12.777  19.701  0.00  0.00    +0.000 A 
ATOM     16  F   UNL     1      10.761  13.908  20.179  0.00  0.00    +0.000 F 
ATOM     17  C   UNL     1      10.193  11.644  20.503  0.00  0.00    +0.000 A 
ATOM     18  C   UNL     1       9.618  10.468  20.010  0.00  0.00    +0.000 A 
ENDBRANCH  10  12
ENDBRANCH   6   7
ENDBRANCH   5   6
ENDBRANCH   2   5
BRANCH   3  19
ATOM     19  C   UNL     1       3.531   4.642  18.460  0.00  0.00    +0.000 C 
BRANCH  19  20
ATOM     20  C   UNL     1       2.917   5.996  18.705  0.00  0.00    +0.000 A 
ATOM     21  C   UNL     1       2.891   6.983  17.713  0.00  0.00    +0.000 A 
ATOM     22  C   UNL     1       2.314   8.234  17.965  0.00  0.00    +0.000 A 
ATOM     23  C   UNL     1       1.774   8.548  19.217  0.00  0.00    +0.000 A 
ATOM     24  C   UNL     1       1.800   7.548  20.200  0.00  0.00    +0.000 A 
ATOM     25  C   UNL     1       2.362   6.293  19.951  0.00  0.00    +0.000 A 
BRANCH  23  26
ATOM     26  N   UNL     1       1.231   9.827  19.510  0.00  0.00    +0.000 N 
ATOM     27  C   UNL     1       1.563  10.997  18.730  0.00  0.00    +0.000 C 
ATOM     28  C   UNL     1       1.046  12.155  19.551  0.00  0.00    +0.000 C 
ATOM     29  C   UNL     1      -0.158  11.574  20.264  0.00  0.00    +0.000 C 
ATOM     30  C   UNL     1       0.177  10.107  20.394  0.00  0.00    +0.000 C 
ATOM     31  O   UNL     1      -0.436   9.355  21.136  0.00  0.00    +0.000 OA
ENDBRANCH  23  26
ENDBRANCH  19  20
ENDBRANCH   3  19
TORSDOF 7
ENDMDL
MODEL 5
REMARK VINA RESULT:      -8.3      1.784      2.314
REMARK  Name = 
REMARK  7 active torsions:
REMARK  status: ('A' for Active; 'I' for Inactive)
REMARK    1  A    between atoms: C_2  and  C_3
REMARK    2  A    between atoms: C_3  and  S_4
REMARK    3  A    between atoms: S_4  and  C_5
REMARK    4  A    between atoms: C_8  and  C_9
REMARK    5  A    between atoms: N_17  and  C_18
REMARK    6  A    between atoms: C_18  and  C_19
REMARK    7  A    between atoms: C_22  and  N_23
REMARK                            x       y       z     vdW  Elec       q    Type
REMARK                         _______ _______ _______ _____ _____    ______ ____
ROOT
ATOM      1  O   UNL     1       4.150   3.270  18.536  0.00  0.00    +0.000 OA
ATOM      2  C   UNL     1       4.701   4.335  18.280  0.00  0.00    +0.000 C 
ATOM      3  N   UNL     1       4.238   5.551  18.732  0.00  0.00    +0.000 N 
ATOM      4  H   UNL     1       4.690   6.402  18.438  0.00  0.00    +0.000 HD
ENDROOT
BRANCH   2   5
ATOM      5  C   UNL     1       5.970   4.415  17.434  0.00  0.00    +0.000 C 
BRANCH   5   6
ATOM      6  S   UNL     1       7.358   5.061  18.401  0.00  0.00    +0.000 S 
BRANCH   6   7
ATOM      7  C   UNL     1       7.432   6.713  17.874  0.00  0.00    +0.000 A 
ATOM      8  N   UNL     1       6.715   7.247  16.905  0.00  0.00    +0.000 NA
ATOM      9  N   UNL     1       7.017   8.601  16.891  0.00  0.00    +0.000 NA
ATOM     10  C   UNL     1       7.901   8.797  17.850  0.00  0.00    +0.000 A 
ATOM     11  O   UNL     1       8.216   7.638  18.508  0.00  0.00    +0.000 OA
BRANCH  10  12
ATOM     12  C   UNL     1       8.538  10.022  18.331  0.00  0.00    +0.000 A 
ATOM     13  C   UNL     1       9.354  10.000  19.475  0.00  0.00    +0.000 A 
ATOM     14  C   UNL     1       9.997  11.162  19.919  0.00  0.00    +0.000 A 
ATOM     15  C   UNL     1       9.822  12.354  19.226  0.00  0.00    +0.000 A 
ATOM     16  F   UNL     1      10.448  13.462  19.642  0.00  0.00    +0.000 F 
ATOM     17  C   UNL     1       9.009  12.408  18.102  0.00  0.00    +0.000 A 
ATOM     18  C   UNL     1       8.370  11.246  17.656  0.00  0.00    +0.000 A 
ENDBRANCH  10  12
ENDBRANCH   6   7
ENDBRANCH   5   6
ENDBRANCH   2   5
BRANCH   3  19
ATOM     19  C   UNL     1       3.006   5.682  19.484  0.00  0.00    +0.000 C 
BRANCH  19  20
ATOM     20  C   UNL     1       2.401   7.051  19.314  0.00  0.00    +0.000 A 
ATOM     21  C   UNL     1       1.723   7.691  20.359  0.00  0.00    +0.000 A 
ATOM     22  C   UNL     1       1.168   8.964  20.176  0.00  0.00    +0.000 A 
ATOM     23  C   UNL     1       1.248   9.623  18.944  0.00  0.00    +0.000 A 
ATOM     24  C   UNL     1       1.936   8.975  17.909  0.00  0.00    +0.000 A 
ATOM     25  C   UNL     1       2.503   7.710  18.088  0.00  0.00    +0.000 A 
BRANCH  23  26
ATOM     26  N   UNL     1       0.648  10.891  18.723  0.00  0.00    +0.000 N 
ATOM     27  C   UNL     1      -0.720  11.168  19.098  0.00  0.00    +0.000 C 
ATOM     28  C   UNL     1      -1.039  12.476  18.414  0.00  0.00    +0.000 C 
ATOM     29  C   UNL     1       0.295  13.195  18.384  0.00  0.00    +0.000 C 
ATOM     30  C   UNL     1       1.305  12.073  18.346  0.00  0.00    +0.000 C 
ATOM     31  O   UNL     1       2.479  12.254  18.063  0.00  0.00    +0.000 OA
ENDBRANCH  23  26
ENDBRANCH  19  20
ENDBRANCH   3  19
TORSDOF 7
ENDMDL
MODEL 6
REMARK VINA RESULT:      -8.3      0.783      1.203
REMARK  Name = 
REMARK  7 active torsions:
REMARK  status: ('A' for Active; 'I' for Inactive)
REMARK    1  A    between atoms: C_2  and  C_3
REMARK    2  A    between atoms: C_3  and  S_4
REMARK    3  A    between atoms: S_4  and  C_5
REMARK    4  A    between atoms: C_8  and  C_9
REMARK    5  A    between atoms: N_17  and  C_18
REMARK    6  A    between atoms: C_18  and  C_19
REMARK    7  A    between atoms: C_22  and  N_23
REMARK                            x       y       z     vdW  Elec       q    Type
REMARK                         _______ _______ _______ _____ _____    ______ ____
ROOT
ATOM      1  O   UNL     1       6.429   4.647  15.765  0.00  0.00    +0.000 OA
ATOM      2  C   UNL     1       6.487   4.782  16.983  0.00  0.00    +0.000 C 
ATOM      3  N   UNL     1       5.386   5.055  17.764  0.00  0.00    +0.000 N 
ATOM      4  H   UNL     1       5.499   5.222  18.751  0.00  0.00    +0.000 HD
ENDROOT
BRANCH   2   5
ATOM      5  C   UNL     1       7.797   4.651  17.757  0.00  0.00    +0.000 C 
BRANCH   5   6
ATOM      6  S   UNL     1       7.807   5.736  19.207  0.00  0.00    +0.000 S 
BRANCH   6   7
ATOM      7  C   UNL     1       8.035   7.299  18.490  0.00  0.00    +0.000 A 
ATOM      8  N   UNL     1       7.511   7.712  17.353  0.00  0.00    +0.000 NA
ATOM      9  N   UNL     1       7.867   9.046  17.215  0.00  0.00    +0.000 NA
ATOM     10  C   UNL     1       8.587   9.352  18.276  0.00  0.00    +0.000 A 
ATOM     11  O   UNL     1       8.741   8.287  19.123  0.00  0.00    +0.000 OA
BRANCH  10  12
ATOM     12  C   UNL     1       9.186  10.618  18.696  0.00  0.00    +0.000 A 
ATOM     13  C   UNL     1       8.946  11.797  17.968  0.00  0.00    +0.000 A 
ATOM     14  C   UNL     1       9.487  13.019  18.386  0.00  0.00    +0.000 A 
ATOM     15  C   UNL     1      10.276  13.069  19.529  0.00  0.00    +0.000 A 
ATOM     16  F   UNL     1      10.781  14.241  19.937  0.00  0.00    +0.000 F 
ATOM     17  C   UNL     1      10.542  11.918  20.258  0.00  0.00    +0.000 A 
ATOM     18  C   UNL     1       9.999  10.698  19.842  0.00  0.00    +0.000 A 
ENDBRANCH  10  12
ENDBRANCH   6   7
ENDBRANCH   5   6
ENDBRANCH   2   5
BRANCH   3  19
ATOM     19  C   UNL     1       4.072   5.288  17.200  0.00  0.00    +0.000 C 
BRANCH  19  20
ATOM     20  C   UNL     1       3.273   6.247  18.044  0.00  0.00    +0.000 A 
ATOM     21  C   UNL     1       3.017   7.558  17.626  0.00  0.00    +0.000 A 
ATOM     22  C   UNL     1       2.272   8.432  18.429  0.00  0.00    +0.000 A 
ATOM     23  C   UNL     1       1.786   8.035  19.680  0.00  0.00    +0.000 A 
ATOM     24  C   UNL     1       2.044   6.717  20.084  0.00  0.00    +0.000 A 
ATOM     25  C   UNL     1       2.775   5.836  19.281  0.00  0.00    +0.000 A 
BRANCH  23  26
ATOM     26  N   UNL     1       1.073   8.920  20.532  0.00  0.00    +0.000 N 
ATOM     27  C   UNL     1       1.335   8.994  21.951  0.00  0.00    +0.000 C 
ATOM     28  C   UNL     1       0.177   9.791  22.504  0.00  0.00    +0.000 C 
ATOM     29  C   UNL     1      -0.185  10.726  21.369  0.00  0.00    +0.000 C 
ATOM     30  C   UNL     1       0.222   9.961  20.131  0.00  0.00    +0.000 C 
ATOM     31  O   UNL     1      -0.142  10.282  19.010  0.00  0.00    +0.000 OA
ENDBRANCH  23  26
ENDBRANCH  19  20
ENDBRANCH   3  19
TORSDOF 7
ENDMDL
MODEL 7
REMARK VINA RESULT:      -8.3      4.921      5.894
REMARK  Name = 
REMARK  7 active torsions:
REMARK  status: ('A' for Active; 'I' for Inactive)
REMARK    1  A    between atoms: C_2  and  C_3
REMARK    2  A    between atoms: C_3  and  S_4
REMARK    3  A    between atoms: S_4  and  C_5
REMARK    4  A    between atoms: C_8  and  C_9
REMARK    5  A    between atoms: N_17  and  C_18
REMARK    6  A    between atoms: C_18  and  C_19
REMARK    7  A    between atoms: C_22  and  N_23
REMARK                            x       y       z     vdW  Elec       q    Type
REMARK                         _______ _______ _______ _____ _____    ______ ____
ROOT
ATOM      1  O   UNL     1       1.185   4.441  17.308  0.00  0.00    +0.000 OA
ATOM      2  C   UNL     1       1.652   4.356  18.439  0.00  0.00    +0.000 C 
ATOM      3  N   UNL     1       2.435   5.337  19.006  0.00  0.00    +0.000 N 
ATOM      4  H   UNL     1       2.849   5.188  19.913  0.00  0.00    +0.000 HD
ENDROOT
BRANCH   2   5
ATOM      5  C   UNL     1       1.402   3.146  19.337  0.00  0.00    +0.000 C 
BRANCH   5   6
ATOM      6  S   UNL     1       2.769   1.964  19.233  0.00  0.00    +0.000 S 
BRANCH   6   7
ATOM      7  C   UNL     1       4.066   2.958  18.650  0.00  0.00    +0.000 A 
ATOM      8  N   UNL     1       4.976   3.556  19.393  0.00  0.00    +0.000 NA
ATOM      9  N   UNL     1       5.871   4.153  18.518  0.00  0.00    +0.000 NA
ATOM     10  C   UNL     1       5.443   3.880  17.301  0.00  0.00    +0.000 A 
ATOM     11  O   UNL     1       4.295   3.132  17.311  0.00  0.00    +0.000 OA
BRANCH  10  12
ATOM     12  C   UNL     1       6.007   4.202  15.991  0.00  0.00    +0.000 A 
ATOM     13  C   UNL     1       7.125   5.046  15.884  0.00  0.00    +0.000 A 
ATOM     14  C   UNL     1       7.693   5.329  14.635  0.00  0.00    +0.000 A 
ATOM     15  C   UNL     1       7.141   4.774  13.486  0.00  0.00    +0.000 A 
ATOM     16  F   UNL     1       7.692   5.032  12.293  0.00  0.00    +0.000 F 
ATOM     17  C   UNL     1       6.026   3.950  13.561  0.00  0.00    +0.000 A 
ATOM     18  C   UNL     1       5.462   3.665  14.809  0.00  0.00    +0.000 A 
ENDBRANCH  10  12
ENDBRANCH   6   7
ENDBRANCH   5   6
ENDBRANCH   2   5
BRANCH   3  19
ATOM     19  C   UNL     1       2.842   6.522  18.279  0.00  0.00    +0.000 C 
BRANCH  19  20
ATOM     20  C   UNL     1       2.098   7.742  18.756  0.00  0.00    +0.000 A 
ATOM     21  C   UNL     1       1.780   7.930  20.106  0.00  0.00    +0.000 A 
ATOM     22  C   UNL     1       1.086   9.073  20.523  0.00  0.00    +0.000 A 
ATOM     23  C   UNL     1       0.667  10.046  19.608  0.00  0.00    +0.000 A 
ATOM     24  C   UNL     1       0.999   9.849  18.260  0.00  0.00    +0.000 A 
ATOM     25  C   UNL     1       1.702   8.717  17.839  0.00  0.00    +0.000 A 
BRANCH  23  26
ATOM     26  N   UNL     1      -0.082  11.186  20.004  0.00  0.00    +0.000 N 
ATOM     27  C   UNL     1       0.496  12.243  20.802  0.00  0.00    +0.000 C 
ATOM     28  C   UNL     1      -0.689  13.065  21.250  0.00  0.00    +0.000 C 
ATOM     29  C   UNL     1      -1.675  12.918  20.110  0.00  0.00    +0.000 C 
ATOM     30  C   UNL     1      -1.346  11.565  19.525  0.00  0.00    +0.000 C 
ATOM     31  O   UNL     1      -2.089  10.985  18.748  0.00  0.00    +0.000 OA
ENDBRANCH  23  26
ENDBRANCH  19  20
ENDBRANCH   3  19
TORSDOF 7
ENDMDL
MODEL 8
REMARK VINA RESULT:      -8.2      1.303      1.861
REMARK  Name = 
REMARK  7 active torsions:
REMARK  status: ('A' for Active; 'I' for Inactive)
REMARK    1  A    between atoms: C_2  and  C_3
REMARK    2  A    between atoms: C_3  and  S_4
REMARK    3  A    between atoms: S_4  and  C_5
REMARK    4  A    between atoms: C_8  and  C_9
REMARK    5  A    between atoms: N_17  and  C_18
REMARK    6  A    between atoms: C_18  and  C_19
REMARK    7  A    between atoms: C_22  and  N_23
REMARK                            x       y       z     vdW  Elec       q    Type
REMARK                         _______ _______ _______ _____ _____    ______ ____
ROOT
ATOM      1  O   UNL     1       5.538   3.547  18.881  0.00  0.00    +0.000 OA
ATOM      2  C   UNL     1       5.860   4.510  18.193  0.00  0.00    +0.000 C 
ATOM      3  N   UNL     1       4.945   5.348  17.595  0.00  0.00    +0.000 N 
ATOM      4  H   UNL     1       5.261   6.085  16.985  0.00  0.00    +0.000 HD
ENDROOT
BRANCH   2   5
ATOM      5  C   UNL     1       7.319   4.880  17.938  0.00  0.00    +0.000 C 
BRANCH   5   6
ATOM      6  S   UNL     1       7.966   5.933  19.261  0.00  0.00    +0.000 S 
BRANCH   6   7
ATOM      7  C   UNL     1       8.052   7.482  18.484  0.00  0.00    +0.000 A 
ATOM      8  N   UNL     1       7.356   7.857  17.428  0.00  0.00    +0.000 NA
ATOM      9  N   UNL     1       7.660   9.193  17.210  0.00  0.00    +0.000 NA
ATOM     10  C   UNL     1       8.523   9.539  18.145  0.00  0.00    +0.000 A 
ATOM     11  O   UNL     1       8.823   8.497  18.983  0.00  0.00    +0.000 OA
BRANCH  10  12
ATOM     12  C   UNL     1       9.150  10.825  18.442  0.00  0.00    +0.000 A 
ATOM     13  C   UNL     1      10.199  10.909  19.373  0.00  0.00    +0.000 A 
ATOM     14  C   UNL     1      10.829  12.132  19.635  0.00  0.00    +0.000 A 
ATOM     15  C   UNL     1      10.409  13.280  18.972  0.00  0.00    +0.000 A 
ATOM     16  F   UNL     1      11.020  14.446  19.212  0.00  0.00    +0.000 F 
ATOM     17  C   UNL     1       9.364  13.229  18.060  0.00  0.00    +0.000 A 
ATOM     18  C   UNL     1       8.738  12.006  17.796  0.00  0.00    +0.000 A 
ENDBRANCH  10  12
ENDBRANCH   6   7
ENDBRANCH   5   6
ENDBRANCH   2   5
BRANCH   3  19
ATOM     19  C   UNL     1       3.517   5.112  17.662  0.00  0.00    +0.000 C 
BRANCH  19  20
ATOM     20  C   UNL     1       2.803   6.250  18.344  0.00  0.00    +0.000 A 
ATOM     21  C   UNL     1       2.630   7.491  17.720  0.00  0.00    +0.000 A 
ATOM     22  C   UNL     1       1.963   8.534  18.376  0.00  0.00    +0.000 A 
ATOM     23  C   UNL     1       1.474   8.380  19.678  0.00  0.00    +0.000 A 
ATOM     24  C   UNL     1       1.647   7.130  20.289  0.00  0.00    +0.000 A 
ATOM     25  C   UNL     1       2.300   6.082  19.636  0.00  0.00    +0.000 A 
BRANCH  23  26
ATOM     26  N   UNL     1       0.841   9.440  20.380  0.00  0.00    +0.000 N 
ATOM     27  C   UNL     1      -0.283  10.161  19.827  0.00  0.00    +0.000 C 
ATOM     28  C   UNL     1      -0.432  11.368  20.723  0.00  0.00    +0.000 C 
ATOM     29  C   UNL     1       0.039  10.868  22.073  0.00  0.00    +0.000 C 
ATOM     30  C   UNL     1       1.034   9.786  21.726  0.00  0.00    +0.000 C 
ATOM     31  O   UNL     1       1.812   9.321  22.545  0.00  0.00    +0.000 OA
ENDBRANCH  23  26
ENDBRANCH  19  20
ENDBRANCH   3  19
TORSDOF 7
ENDMDL
MODEL 9
REMARK VINA RESULT:      -8.2      5.032      5.959
REMARK  Name = 
REMARK  7 active torsions:
REMARK  status: ('A' for Active; 'I' for Inactive)
REMARK    1  A    between atoms: C_2  and  C_3
REMARK    2  A    between atoms: C_3  and  S_4
REMARK    3  A    between atoms: S_4  and  C_5
REMARK    4  A    between atoms: C_8  and  C_9
REMARK    5  A    between atoms: N_17  and  C_18
REMARK    6  A    between atoms: C_18  and  C_19
REMARK    7  A    between atoms: C_22  and  N_23
REMARK                            x       y       z     vdW  Elec       q    Type
REMARK                         _______ _______ _______ _____ _____    ______ ____
ROOT
ATOM      1  O   UNL     1       1.660   4.302  17.260  0.00  0.00    +0.000 OA
ATOM      2  C   UNL     1       2.092   4.376  18.405  0.00  0.00    +0.000 C 
ATOM      3  N   UNL     1       2.705   5.503  18.908  0.00  0.00    +0.000 N 
ATOM      4  H   UNL     1       3.102   5.488  19.834  0.00  0.00    +0.000 HD
ENDROOT
BRANCH   2   5
ATOM      5  C   UNL     1       1.985   3.218  19.395  0.00  0.00    +0.000 C 
BRANCH   5   6
ATOM      6  S   UNL     1       3.597   2.440  19.665  0.00  0.00    +0.000 S 
BRANCH   6   7
ATOM      7  C   UNL     1       4.650   3.450  18.725  0.00  0.00    +0.000 A 
ATOM      8  N   UNL     1       5.512   4.326  19.204  0.00  0.00    +0.000 NA
ATOM      9  N   UNL     1       6.209   4.829  18.115  0.00  0.00    +0.000 NA
ATOM     10  C   UNL     1       5.721   4.228  17.048  0.00  0.00    +0.000 A 
ATOM     11  O   UNL     1       4.721   3.346  17.362  0.00  0.00    +0.000 OA
BRANCH  10  12
ATOM     12  C   UNL     1       6.100   4.320  15.639  0.00  0.00    +0.000 A 
ATOM     13  C   UNL     1       7.262   5.011  15.255  0.00  0.00    +0.000 A 
ATOM     14  C   UNL     1       7.649   5.071  13.911  0.00  0.00    +0.000 A 
ATOM     15  C   UNL     1       6.873   4.447  12.941  0.00  0.00    +0.000 A 
ATOM     16  F   UNL     1       7.251   4.493  11.658  0.00  0.00    +0.000 F 
ATOM     17  C   UNL     1       5.711   3.772  13.290  0.00  0.00    +0.000 A 
ATOM     18  C   UNL     1       5.327   3.709  14.633  0.00  0.00    +0.000 A 
ENDBRANCH  10  12
ENDBRANCH   6   7
ENDBRANCH   5   6
ENDBRANCH   2   5
BRANCH   3  19
ATOM     19  C   UNL     1       2.965   6.673  18.095  0.00  0.00    +0.000 C 
BRANCH  19  20
ATOM     20  C   UNL     1       2.239   7.883  18.624  0.00  0.00    +0.000 A 
ATOM     21  C   UNL     1       1.767   7.941  19.940  0.00  0.00    +0.000 A 
ATOM     22  C   UNL     1       1.093   9.077  20.408  0.00  0.00    +0.000 A 
ATOM     23  C   UNL     1       0.848  10.173  19.574  0.00  0.00    +0.000 A 
ATOM     24  C   UNL     1       1.332  10.105  18.260  0.00  0.00    +0.000 A 
ATOM     25  C   UNL     1       2.016   8.981  17.791  0.00  0.00    +0.000 A 
BRANCH  23  26
ATOM     26  N   UNL     1       0.123  11.313  20.014  0.00  0.00    +0.000 N 
ATOM     27  C   UNL     1      -1.303  11.438  19.815  0.00  0.00    +0.000 C 
ATOM     28  C   UNL     1      -1.599  12.886  20.127  0.00  0.00    +0.000 C 
ATOM     29  C   UNL     1      -0.567  13.241  21.177  0.00  0.00    +0.000 C 
ATOM     30  C   UNL     1       0.594  12.328  20.861  0.00  0.00    +0.000 C 
ATOM     31  O   UNL     1       1.709  12.494  21.332  0.00  0.00    +0.000 OA
ENDBRANCH  23  26
ENDBRANCH  19  20
ENDBRANCH   3  19
TORSDOF 7
ENDMDL
