MODEL 1
REMARK VINA RESULT:      -9.5      0.000      0.000
REMARK  Name = 
REMARK  5 active torsions:
REMARK  status: ('A' for Active; 'I' for Inactive)
REMARK    1  A    between atoms: C_2  and  C_20
REMARK    2  A    between atoms: N_3  and  C_4
REMARK    3  A    between atoms: C_9  and  C_10
REMARK    4  A    between atoms: N_12  and  C_13
REMARK    5  A    between atoms: C_13  and  C_14
REMARK                            x       y       z     vdW  Elec       q    Type
REMARK                         _______ _______ _______ _____ _____    ______ ____
ROOT
ATOM      1  C   UNL     1       5.192   5.986  16.888  0.00  0.00    +0.000 A 
ATOM      2  C   UNL     1       5.238   6.019  15.483  0.00  0.00    +0.000 A 
ATOM      3  C   UNL     1       6.202   5.292  14.772  0.00  0.00    +0.000 A 
ATOM      4  C   UNL     1       7.111   4.496  15.451  0.00  0.00    +0.000 A 
ATOM      5  C   UNL     1       7.053   4.408  16.841  0.00  0.00    +0.000 A 
ATOM      6  C   UNL     1       6.084   5.130  17.574  0.00  0.00    +0.000 A 
ENDROOT
BRANCH   1   9
ATOM      7  O   UNL     1       2.438   5.422  17.593  0.00  0.00    +0.000 OA
ATOM      8  C   UNL     1       2.984   6.476  17.902  0.00  0.00    +0.000 C 
ATOM      9  N   UNL     1       4.283   6.857  17.539  0.00  0.00    +0.000 N 
ATOM     10  H   UNL     1       4.669   7.628  18.084  0.00  0.00    +0.000 HD
BRANCH   8  11
ATOM     11  C   UNL     1       2.310   7.402  18.868  0.00  0.00    +0.000 A 
ATOM     12  C   UNL     1       2.141   7.053  20.194  0.00  0.00    +0.000 A 
ATOM     13  N   UNL     1       1.487   7.855  21.074  0.00  0.00    +0.000 NA
ATOM     14  C   UNL     1       1.001   9.015  20.587  0.00  0.00    +0.000 A 
ATOM     15  C   UNL     1       0.222   9.837  21.396  0.00  0.00    +0.000 A 
ATOM     16  C   UNL     1      -0.313  11.034  20.912  0.00  0.00    +0.000 A 
ATOM     17  C   UNL     1      -0.033  11.435  19.611  0.00  0.00    +0.000 A 
ATOM     18  C   UNL     1       0.752  10.620  18.794  0.00  0.00    +0.000 A 
ATOM     19  C   UNL     1       1.247   9.404  19.242  0.00  0.00    +0.000 A 
ATOM     20  N   UNL     1       1.921   8.613  18.381  0.00  0.00    +0.000 NA
ENDBRANCH   8  11
ENDBRANCH   1   9
BRANCH   6  21
ATOM     21  C   UNL     1       6.074   4.785  19.035  0.00  0.00    +0.000 C 
ATOM     22  O   UNL     1       6.702   5.494  19.823  0.00  0.00    +0.000 OA
ATOM     23  N   UNL     1       5.493   3.623  19.503  0.00  0.00    +0.000 N 
ATOM     24  H   UNL     1       5.538   3.519  20.510  0.00  0.00    +0.000 HD
BRANCH  23  25
ATOM     25  C   UNL     1       4.531   2.845  18.788  0.00  0.00    +0.000 C 
BRANCH  25  26
ATOM     26  C   UNL     1       3.139   2.752  19.311  0.00  0.00    +0.000 A 
ATOM     27  C   UNL     1       2.798   3.393  20.512  0.00  0.00    +0.000 A 
ATOM     28  C   UNL     1       1.464   3.509  20.881  0.00  0.00    +0.000 A 
ATOM     29  C   UNL     1       0.466   2.981  20.062  0.00  0.00    +0.000 A 
ATOM     30  C   UNL     1       0.800   2.336  18.872  0.00  0.00    +0.000 A 
ATOM     31  C   UNL     1       2.135   2.217  18.499  0.00  0.00    +0.000 A 
ENDBRANCH  25  26
ENDBRANCH  23  25
ENDBRANCH   6  21
TORSDOF 5
ENDMDL
MODEL 2
REMARK VINA RESULT:      -9.1      0.733      1.437
REMARK  Name = 
REMARK  5 active torsions:
REMARK  status: ('A' for Active; 'I' for Inactive)
REMARK    1  A    between atoms: C_2  and  C_20
REMARK    2  A    between atoms: N_3  and  C_4
REMARK    3  A    between atoms: C_9  and  C_10
REMARK    4  A    between atoms: N_12  and  C_13
REMARK    5  A    between atoms: C_13  and  C_14
REMARK                            x       y       z     vdW  Elec       q    Type
REMARK                         _______ _______ _______ _____ _____    ______ ____
ROOT
ATOM      1  C   UNL     1       5.222   5.988  16.685  0.00  0.00    +0.000 A 
ATOM      2  C   UNL     1       5.337   5.825  15.294  0.00  0.00    +0.000 A 
ATOM      3  C   UNL     1       6.329   5.006  14.739  0.00  0.00    +0.000 A 
ATOM      4  C   UNL     1       7.199   4.312  15.565  0.00  0.00    +0.000 A 
ATOM      5  C   UNL     1       7.072   4.418  16.950  0.00  0.00    +0.000 A 
ATOM      6  C   UNL     1       6.073   5.235  17.526  0.00  0.00    +0.000 A 
ENDROOT
BRANCH   1   9
ATOM      7  O   UNL     1       2.526   5.473  17.617  0.00  0.00    +0.000 OA
ATOM      8  C   UNL     1       3.024   6.592  17.658  0.00  0.00    +0.000 C 
ATOM      9  N   UNL     1       4.289   6.941  17.164  0.00  0.00    +0.000 N 
ATOM     10  H   UNL     1       4.650   7.832  17.506  0.00  0.00    +0.000 HD
BRANCH   8  11
ATOM     11  C   UNL     1       2.332   7.681  18.421  0.00  0.00    +0.000 A 
ATOM     12  C   UNL     1       2.037   8.894  17.827  0.00  0.00    +0.000 A 
ATOM     13  N   UNL     1       1.457   9.912  18.514  0.00  0.00    +0.000 NA
ATOM     14  C   UNL     1       1.188   9.685  19.815  0.00  0.00    +0.000 A 
ATOM     15  C   UNL     1       0.699  10.714  20.615  0.00  0.00    +0.000 A 
ATOM     16  C   UNL     1       0.432  10.515  21.972  0.00  0.00    +0.000 A 
ATOM     17  C   UNL     1       0.617   9.255  22.530  0.00  0.00    +0.000 A 
ATOM     18  C   UNL     1       1.100   8.215  21.735  0.00  0.00    +0.000 A 
ATOM     19  C   UNL     1       1.420   8.410  20.400  0.00  0.00    +0.000 A 
ATOM     20  N   UNL     1       1.972   7.395  19.702  0.00  0.00    +0.000 NA
ENDBRANCH   8  11
ENDBRANCH   1   9
BRANCH   6  21
ATOM     21  C   UNL     1       5.990   5.097  19.019  0.00  0.00    +0.000 C 
ATOM     22  O   UNL     1       6.515   5.954  19.732  0.00  0.00    +0.000 OA
ATOM     23  N   UNL     1       5.460   3.970  19.615  0.00  0.00    +0.000 N 
ATOM     24  H   UNL     1       5.445   4.011  20.627  0.00  0.00    +0.000 HD
BRANCH  23  25
ATOM     25  C   UNL     1       4.602   3.029  18.966  0.00  0.00    +0.000 C 
BRANCH  25  26
ATOM     26  C   UNL     1       3.178   2.929  19.393  0.00  0.00    +0.000 A 
ATOM     27  C   UNL     1       2.727   3.661  20.503  0.00  0.00    +0.000 A 
ATOM     28  C   UNL     1       1.365   3.758  20.761  0.00  0.00    +0.000 A 
ATOM     29  C   UNL     1       0.450   3.121  19.924  0.00  0.00    +0.000 A 
ATOM     30  C   UNL     1       0.894   2.384  18.827  0.00  0.00    +0.000 A 
ATOM     31  C   UNL     1       2.256   2.284  18.564  0.00  0.00    +0.000 A 
ENDBRANCH  25  26
ENDBRANCH  23  25
ENDBRANCH   6  21
TORSDOF 5
ENDMDL
MODEL 3
REMARK VINA RESULT:      -8.4      2.021      7.750
REMARK  Name = 
REMARK  5 active torsions:
REMARK  status: ('A' for Active; 'I' for Inactive)
REMARK    1  A    between atoms: C_2  and  C_20
REMARK    2  A    between atoms: N_3  and  C_4
REMARK    3  A    between atoms: C_9  and  C_10
REMARK    4  A    between atoms: N_12  and  C_13
REMARK    5  A    between atoms: C_13  and  C_14
REMARK                            x       y       z     vdW  Elec       q    Type
REMARK                         _______ _______ _______ _____ _____    ______ ____
ROOT
ATOM      1  C   UNL     1       2.818   4.868  18.546  0.00  0.00    +0.000 A 
ATOM      2  C   UNL     1       2.469   3.549  18.884  0.00  0.00    +0.000 A 
ATOM      3  C   UNL     1       1.719   3.268  20.034  0.00  0.00    +0.000 A 
ATOM      4  C   UNL     1       1.279   4.302  20.845  0.00  0.00    +0.000 A 
ATOM      5  C   UNL     1       1.568   5.623  20.503  0.00  0.00    +0.000 A 
ATOM      6  C   UNL     1       2.319   5.924  19.343  0.00  0.00    +0.000 A 
ENDROOT
BRANCH   1   9
ATOM      7  O   UNL     1       5.706   5.089  18.643  0.00  0.00    +0.000 OA
ATOM      8  C   UNL     1       5.090   5.089  17.583  0.00  0.00    +0.000 C 
ATOM      9  N   UNL     1       3.695   5.060  17.450  0.00  0.00    +0.000 N 
ATOM     10  H   UNL     1       3.360   4.805  16.521  0.00  0.00    +0.000 HD
BRANCH   8  11
ATOM     11  C   UNL     1       5.841   4.960  16.293  0.00  0.00    +0.000 A 
ATOM     12  C   UNL     1       7.048   5.605  16.100  0.00  0.00    +0.000 A 
ATOM     13  N   UNL     1       7.719   5.544  14.920  0.00  0.00    +0.000 NA
ATOM     14  C   UNL     1       7.144   4.823  13.936  0.00  0.00    +0.000 A 
ATOM     15  C   UNL     1       7.711   4.805  12.665  0.00  0.00    +0.000 A 
ATOM     16  C   UNL     1       7.126   4.085  11.620  0.00  0.00    +0.000 A 
ATOM     17  C   UNL     1       5.977   3.340  11.859  0.00  0.00    +0.000 A 
ATOM     18  C   UNL     1       5.405   3.347  13.131  0.00  0.00    +0.000 A 
ATOM     19  C   UNL     1       5.944   4.097  14.166  0.00  0.00    +0.000 A 
ATOM     20  N   UNL     1       5.297   4.143  15.350  0.00  0.00    +0.000 NA
ENDBRANCH   8  11
ENDBRANCH   1   9
BRANCH   6  21
ATOM     21  C   UNL     1       2.391   7.395  19.055  0.00  0.00    +0.000 C 
ATOM     22  O   UNL     1       2.976   7.781  18.042  0.00  0.00    +0.000 OA
ATOM     23  N   UNL     1       1.937   8.335  19.960  0.00  0.00    +0.000 N 
ATOM     24  H   UNL     1       2.026   9.291  19.636  0.00  0.00    +0.000 HD
BRANCH  23  25
ATOM     25  C   UNL     1       1.029   8.068  21.030  0.00  0.00    +0.000 C 
BRANCH  25  26
ATOM     26  C   UNL     1       0.096   9.142  21.476  0.00  0.00    +0.000 A 
ATOM     27  C   UNL     1      -0.265   9.237  22.829  0.00  0.00    +0.000 A 
ATOM     28  C   UNL     1      -0.938  10.363  23.288  0.00  0.00    +0.000 A 
ATOM     29  C   UNL     1      -1.261  11.391  22.402  0.00  0.00    +0.000 A 
ATOM     30  C   UNL     1      -0.913  11.296  21.056  0.00  0.00    +0.000 A 
ATOM     31  C   UNL     1      -0.239  10.170  20.592  0.00  0.00    +0.000 A 
ENDBRANCH  25  26
ENDBRANCH  23  25
ENDBRANCH   6  21
TORSDOF 5
ENDMDL
MODEL 4
REMARK VINA RESULT:      -8.3      1.991      7.458
REMARK  Name = 
REMARK  5 active torsions:
REMARK  status: ('A' for Active; 'I' for Inactive)
REMARK    1  A    between atoms: C_2  and  C_20
REMARK    2  A    between atoms: N_3  and  C_4
REMARK    3  A    between atoms: C_9  and  C_10
REMARK    4  A    between atoms: N_12  and  C_13
REMARK    5  A    between atoms: C_13  and  C_14
REMARK                            x       y       z     vdW  Elec       q    Type
REMARK                         _______ _______ _______ _____ _____    ______ ____
ROOT
ATOM      1  C   UNL     1       3.465   3.570  19.432  0.00  0.00    +0.000 A 
ATOM      2  C   UNL     1       3.738   2.741  20.534  0.00  0.00    +0.000 A 
ATOM      3  C   UNL     1       2.801   2.569  21.562  0.00  0.00    +0.000 A 
ATOM      4  C   UNL     1       1.567   3.194  21.488  0.00  0.00    +0.000 A 
ATOM      5  C   UNL     1       1.253   3.981  20.379  0.00  0.00    +0.000 A 
ATOM      6  C   UNL     1       2.185   4.161  19.331  0.00  0.00    +0.000 A 
ENDROOT
BRANCH   1   9
ATOM      7  O   UNL     1       3.882   2.241  16.890  0.00  0.00    +0.000 OA
ATOM      8  C   UNL     1       4.600   3.160  17.267  0.00  0.00    +0.000 C 
ATOM      9  N   UNL     1       4.513   3.807  18.508  0.00  0.00    +0.000 N 
ATOM     10  H   UNL     1       5.000   4.702  18.558  0.00  0.00    +0.000 HD
BRANCH   8  11
ATOM     11  C   UNL     1       5.567   3.783  16.307  0.00  0.00    +0.000 A 
ATOM     12  C   UNL     1       6.484   4.728  16.728  0.00  0.00    +0.000 A 
ATOM     13  N   UNL     1       7.335   5.344  15.866  0.00  0.00    +0.000 NA
ATOM     14  C   UNL     1       7.237   4.991  14.568  0.00  0.00    +0.000 A 
ATOM     15  C   UNL     1       7.992   5.656  13.607  0.00  0.00    +0.000 A 
ATOM     16  C   UNL     1       7.896   5.327  12.252  0.00  0.00    +0.000 A 
ATOM     17  C   UNL     1       7.060   4.290  11.855  0.00  0.00    +0.000 A 
ATOM     18  C   UNL     1       6.303   3.613  12.812  0.00  0.00    +0.000 A 
ATOM     19  C   UNL     1       6.348   3.961  14.153  0.00  0.00    +0.000 A 
ATOM     20  N   UNL     1       5.525   3.336  15.022  0.00  0.00    +0.000 NA
ENDBRANCH   8  11
ENDBRANCH   1   9
BRANCH   6  21
ATOM     21  C   UNL     1       1.613   4.902  18.158  0.00  0.00    +0.000 C 
ATOM     22  O   UNL     1       0.905   4.296  17.352  0.00  0.00    +0.000 OA
ATOM     23  N   UNL     1       1.966   6.208  17.883  0.00  0.00    +0.000 N 
ATOM     24  H   UNL     1       1.495   6.599  17.075  0.00  0.00    +0.000 HD
BRANCH  23  25
ATOM     25  C   UNL     1       2.551   7.113  18.822  0.00  0.00    +0.000 C 
BRANCH  25  26
ATOM     26  C   UNL     1       1.724   8.224  19.373  0.00  0.00    +0.000 A 
ATOM     27  C   UNL     1       1.396   8.241  20.737  0.00  0.00    +0.000 A 
ATOM     28  C   UNL     1       0.833   9.381  21.300  0.00  0.00    +0.000 A 
ATOM     29  C   UNL     1       0.589  10.501  20.506  0.00  0.00    +0.000 A 
ATOM     30  C   UNL     1       0.905  10.485  19.149  0.00  0.00    +0.000 A 
ATOM     31  C   UNL     1       1.468   9.346  18.581  0.00  0.00    +0.000 A 
ENDBRANCH  25  26
ENDBRANCH  23  25
ENDBRANCH   6  21
TORSDOF 5
ENDMDL
MODEL 5
REMARK VINA RESULT:      -8.2      2.091      7.457
REMARK  Name = 
REMARK  5 active torsions:
REMARK  status: ('A' for Active; 'I' for Inactive)
REMARK    1  A    between atoms: C_2  and  C_20
REMARK    2  A    between atoms: N_3  and  C_4
REMARK    3  A    between atoms: C_9  and  C_10
REMARK    4  A    between atoms: N_12  and  C_13
REMARK    5  A    between atoms: C_13  and  C_14
REMARK                            x       y       z     vdW  Elec       q    Type
REMARK                         _______ _______ _______ _____ _____    ______ ____
ROOT
ATOM      1  C   UNL     1       3.876   2.922  19.026  0.00  0.00    +0.000 A 
ATOM      2  C   UNL     1       4.667   2.081  19.827  0.00  0.00    +0.000 A 
ATOM      3  C   UNL     1       4.255   1.705  21.113  0.00  0.00    +0.000 A 
ATOM      4  C   UNL     1       3.032   2.135  21.603  0.00  0.00    +0.000 A 
ATOM      5  C   UNL     1       2.206   2.929  20.807  0.00  0.00    +0.000 A 
ATOM      6  C   UNL     1       2.604   3.313  19.506  0.00  0.00    +0.000 A 
ENDROOT
BRANCH   1   9
ATOM      7  O   UNL     1       5.421   5.335  18.588  0.00  0.00    +0.000 OA
ATOM      8  C   UNL     1       5.217   4.524  17.692  0.00  0.00    +0.000 C 
ATOM      9  N   UNL     1       4.423   3.373  17.799  0.00  0.00    +0.000 N 
ATOM     10  H   UNL     1       4.567   2.685  17.060  0.00  0.00    +0.000 HD
BRANCH   8  11
ATOM     11  C   UNL     1       5.970   4.642  16.402  0.00  0.00    +0.000 A 
ATOM     12  C   UNL     1       7.042   5.505  16.277  0.00  0.00    +0.000 A 
ATOM     13  N   UNL     1       7.707   5.666  15.103  0.00  0.00    +0.000 NA
ATOM     14  C   UNL     1       7.262   4.943  14.054  0.00  0.00    +0.000 A 
ATOM     15  C   UNL     1       7.815   5.136  12.792  0.00  0.00    +0.000 A 
ATOM     16  C   UNL     1       7.360   4.418  11.683  0.00  0.00    +0.000 A 
ATOM     17  C   UNL     1       6.363   3.462  11.846  0.00  0.00    +0.000 A 
ATOM     18  C   UNL     1       5.806   3.258  13.109  0.00  0.00    +0.000 A 
ATOM     19  C   UNL     1       6.210   3.999  14.209  0.00  0.00    +0.000 A 
ATOM     20  N   UNL     1       5.574   3.826  15.387  0.00  0.00    +0.000 NA
ENDBRANCH   8  11
ENDBRANCH   1   9
BRANCH   6  21
ATOM     21  C   UNL     1       1.523   4.026  18.747  0.00  0.00    +0.000 C 
ATOM     22  O   UNL     1       0.691   3.365  18.123  0.00  0.00    +0.000 OA
ATOM     23  N   UNL     1       1.513   5.401  18.617  0.00  0.00    +0.000 N 
ATOM     24  H   UNL     1       0.720   5.758  18.097  0.00  0.00    +0.000 HD
BRANCH  23  25
ATOM     25  C   UNL     1       2.229   6.307  19.459  0.00  0.00    +0.000 C 
BRANCH  25  26
ATOM     26  C   UNL     1       1.992   7.772  19.317  0.00  0.00    +0.000 A 
ATOM     27  C   UNL     1       2.154   8.389  18.067  0.00  0.00    +0.000 A 
ATOM     28  C   UNL     1       1.712   9.692  17.875  0.00  0.00    +0.000 A 
ATOM     29  C   UNL     1       1.116  10.387  18.927  0.00  0.00    +0.000 A 
ATOM     30  C   UNL     1       0.961   9.782  20.173  0.00  0.00    +0.000 A 
ATOM     31  C   UNL     1       1.403   8.477  20.370  0.00  0.00    +0.000 A 
ENDBRANCH  25  26
ENDBRANCH  23  25
ENDBRANCH   6  21
TORSDOF 5
ENDMDL
MODEL 6
REMARK VINA RESULT:      -8.1      1.432      2.257
REMARK  Name = 
REMARK  5 active torsions:
REMARK  status: ('A' for Active; 'I' for Inactive)
REMARK    1  A    between atoms: C_2  and  C_20
REMARK    2  A    between atoms: N_3  and  C_4
REMARK    3  A    between atoms: C_9  and  C_10
REMARK    4  A    between atoms: N_12  and  C_13
REMARK    5  A    between atoms: C_13  and  C_14
REMARK                            x       y       z     vdW  Elec       q    Type
REMARK                         _______ _______ _______ _____ _____    ______ ____
ROOT
ATOM      1  C   UNL     1       5.531   6.129  17.741  0.00  0.00    +0.000 A 
ATOM      2  C   UNL     1       6.674   6.704  18.323  0.00  0.00    +0.000 A 
ATOM      3  C   UNL     1       7.879   5.994  18.412  0.00  0.00    +0.000 A 
ATOM      4  C   UNL     1       7.969   4.714  17.890  0.00  0.00    +0.000 A 
ATOM      5  C   UNL     1       6.864   4.141  17.262  0.00  0.00    +0.000 A 
ATOM      6  C   UNL     1       5.642   4.845  17.159  0.00  0.00    +0.000 A 
ENDROOT
BRANCH   1   9
ATOM      7  O   UNL     1       3.452   5.841  19.740  0.00  0.00    +0.000 OA
ATOM      8  C   UNL     1       3.393   6.693  18.861  0.00  0.00    +0.000 C 
ATOM      9  N   UNL     1       4.315   6.853  17.817  0.00  0.00    +0.000 N 
ATOM     10  H   UNL     1       4.264   7.751  17.336  0.00  0.00    +0.000 HD
BRANCH   8  11
ATOM     11  C   UNL     1       2.355   7.770  18.944  0.00  0.00    +0.000 A 
ATOM     12  C   UNL     1       1.955   8.467  17.820  0.00  0.00    +0.000 A 
ATOM     13  N   UNL     1       1.054   9.482  17.881  0.00  0.00    +0.000 NA
ATOM     14  C   UNL     1       0.570   9.785  19.103  0.00  0.00    +0.000 A 
ATOM     15  C   UNL     1      -0.269  10.883  19.266  0.00  0.00    +0.000 A 
ATOM     16  C   UNL     1      -0.769  11.235  20.523  0.00  0.00    +0.000 A 
ATOM     17  C   UNL     1      -0.457  10.452  21.629  0.00  0.00    +0.000 A 
ATOM     18  C   UNL     1       0.378   9.345  21.474  0.00  0.00    +0.000 A 
ATOM     19  C   UNL     1       0.924   9.013  20.243  0.00  0.00    +0.000 A 
ATOM     20  N   UNL     1       1.800   7.989  20.168  0.00  0.00    +0.000 NA
ENDBRANCH   8  11
ENDBRANCH   1   9
BRANCH   6  21
ATOM     21  C   UNL     1       4.624   4.136  16.315  0.00  0.00    +0.000 C 
ATOM     22  O   UNL     1       4.458   4.494  15.148  0.00  0.00    +0.000 OA
ATOM     23  N   UNL     1       3.776   3.185  16.846  0.00  0.00    +0.000 N 
ATOM     24  H   UNL     1       3.150   2.769  16.167  0.00  0.00    +0.000 HD
BRANCH  23  25
ATOM     25  C   UNL     1       3.995   2.488  18.074  0.00  0.00    +0.000 C 
BRANCH  25  26
ATOM     26  C   UNL     1       2.962   2.560  19.145  0.00  0.00    +0.000 A 
ATOM     27  C   UNL     1       3.346   2.493  20.494  0.00  0.00    +0.000 A 
ATOM     28  C   UNL     1       2.426   2.793  21.491  0.00  0.00    +0.000 A 
ATOM     29  C   UNL     1       1.123   3.152  21.152  0.00  0.00    +0.000 A 
ATOM     30  C   UNL     1       0.734   3.210  19.814  0.00  0.00    +0.000 A 
ATOM     31  C   UNL     1       1.651   2.910  18.812  0.00  0.00    +0.000 A 
ENDBRANCH  25  26
ENDBRANCH  23  25
ENDBRANCH   6  21
TORSDOF 5
ENDMDL
MODEL 7
REMARK VINA RESULT:      -8.1      1.456      4.496
REMARK  Name = 
REMARK  5 active torsions:
REMARK  status: ('A' for Active; 'I' for Inactive)
REMARK    1  A    between atoms: C_2  and  C_20
REMARK    2  A    between atoms: N_3  and  C_4
REMARK    3  A    between atoms: C_9  and  C_10
REMARK    4  A    between atoms: N_12  and  C_13
REMARK    5  A    between atoms: C_13  and  C_14
REMARK                            x       y       z     vdW  Elec       q    Type
REMARK                         _______ _______ _______ _____ _____    ______ ____
ROOT
ATOM      1  C   UNL     1       2.694   4.809  19.012  0.00  0.00    +0.000 A 
ATOM      2  C   UNL     1       1.669   3.852  18.923  0.00  0.00    +0.000 A 
ATOM      3  C   UNL     1       1.882   2.614  18.302  0.00  0.00    +0.000 A 
ATOM      4  C   UNL     1       3.132   2.301  17.791  0.00  0.00    +0.000 A 
ATOM      5  C   UNL     1       4.179   3.214  17.912  0.00  0.00    +0.000 A 
ATOM      6  C   UNL     1       3.982   4.464  18.541  0.00  0.00    +0.000 A 
ENDROOT
BRANCH   1   9
ATOM      7  O   UNL     1       2.620   7.309  17.548  0.00  0.00    +0.000 OA
ATOM      8  C   UNL     1       2.288   7.237  18.726  0.00  0.00    +0.000 C 
ATOM      9  N   UNL     1       2.363   6.087  19.525  0.00  0.00    +0.000 N 
ATOM     10  H   UNL     1       1.815   6.129  20.385  0.00  0.00    +0.000 HD
BRANCH   8  11
ATOM     11  C   UNL     1       1.602   8.401  19.373  0.00  0.00    +0.000 A 
ATOM     12  C   UNL     1       1.568   9.641  18.763  0.00  0.00    +0.000 A 
ATOM     13  N   UNL     1       0.997  10.722  19.355  0.00  0.00    +0.000 NA
ATOM     14  C   UNL     1       0.467  10.528  20.580  0.00  0.00    +0.000 A 
ATOM     15  C   UNL     1      -0.035  11.609  21.300  0.00  0.00    +0.000 A 
ATOM     16  C   UNL     1      -0.570  11.443  22.580  0.00  0.00    +0.000 A 
ATOM     17  C   UNL     1      -0.642  10.170  23.134  0.00  0.00    +0.000 A 
ATOM     18  C   UNL     1      -0.147   9.079  22.418  0.00  0.00    +0.000 A 
ATOM     19  C   UNL     1       0.434   9.234  21.168  0.00  0.00    +0.000 A 
ATOM     20  N   UNL     1       0.981   8.160  20.560  0.00  0.00    +0.000 NA
ENDBRANCH   8  11
ENDBRANCH   1   9
BRANCH   6  21
ATOM     21  C   UNL     1       5.255   5.240  18.719  0.00  0.00    +0.000 C 
ATOM     22  O   UNL     1       5.895   5.111  19.764  0.00  0.00    +0.000 OA
ATOM     23  N   UNL     1       5.659   6.192  17.805  0.00  0.00    +0.000 N 
ATOM     24  H   UNL     1       6.544   6.629  18.032  0.00  0.00    +0.000 HD
BRANCH  23  25
ATOM     25  C   UNL     1       5.190   6.284  16.458  0.00  0.00    +0.000 C 
BRANCH  25  26
ATOM     26  C   UNL     1       5.765   5.377  15.424  0.00  0.00    +0.000 A 
ATOM     27  C   UNL     1       4.928   4.499  14.719  0.00  0.00    +0.000 A 
ATOM     28  C   UNL     1       5.411   3.828  13.603  0.00  0.00    +0.000 A 
ATOM     29  C   UNL     1       6.729   4.021  13.191  0.00  0.00    +0.000 A 
ATOM     30  C   UNL     1       7.567   4.884  13.894  0.00  0.00    +0.000 A 
ATOM     31  C   UNL     1       7.088   5.559  15.012  0.00  0.00    +0.000 A 
ENDBRANCH  25  26
ENDBRANCH  23  25
ENDBRANCH   6  21
TORSDOF 5
ENDMDL
MODEL 8
REMARK VINA RESULT:      -8.1      1.655      4.771
REMARK  Name = 
REMARK  5 active torsions:
REMARK  status: ('A' for Active; 'I' for Inactive)
REMARK    1  A    between atoms: C_2  and  C_20
REMARK    2  A    between atoms: N_3  and  C_4
REMARK    3  A    between atoms: C_9  and  C_10
REMARK    4  A    between atoms: N_12  and  C_13
REMARK    5  A    between atoms: C_13  and  C_14
REMARK                            x       y       z     vdW  Elec       q    Type
REMARK                         _______ _______ _______ _____ _____    ______ ____
ROOT
ATOM      1  C   UNL     1       1.853   4.422  20.259  0.00  0.00    +0.000 A 
ATOM      2  C   UNL     1       2.038   3.857  21.533  0.00  0.00    +0.000 A 
ATOM      3  C   UNL     1       2.159   2.472  21.702  0.00  0.00    +0.000 A 
ATOM      4  C   UNL     1       2.131   1.633  20.599  0.00  0.00    +0.000 A 
ATOM      5  C   UNL     1       2.000   2.174  19.320  0.00  0.00    +0.000 A 
ATOM      6  C   UNL     1       1.882   3.570  19.131  0.00  0.00    +0.000 A 
ENDROOT
BRANCH   1   9
ATOM      7  O   UNL     1       3.702   6.493  19.425  0.00  0.00    +0.000 OA
ATOM      8  C   UNL     1       2.534   6.740  19.704  0.00  0.00    +0.000 C 
ATOM      9  N   UNL     1       1.597   5.814  20.184  0.00  0.00    +0.000 N 
ATOM     10  H   UNL     1       0.625   6.117  20.118  0.00  0.00    +0.000 HD
BRANCH   8  11
ATOM     11  C   UNL     1       1.967   8.090  19.386  0.00  0.00    +0.000 A 
ATOM     12  C   UNL     1       2.151   8.669  18.145  0.00  0.00    +0.000 A 
ATOM     13  N   UNL     1       1.691   9.913  17.852  0.00  0.00    +0.000 NA
ATOM     14  C   UNL     1       1.047  10.565  18.841  0.00  0.00    +0.000 A 
ATOM     15  C   UNL     1       0.646  11.885  18.658  0.00  0.00    +0.000 A 
ATOM     16  C   UNL     1      -0.004  12.594  19.671  0.00  0.00    +0.000 A 
ATOM     17  C   UNL     1      -0.294  11.960  20.874  0.00  0.00    +0.000 A 
ATOM     18  C   UNL     1       0.099  10.635  21.066  0.00  0.00    +0.000 A 
ATOM     19  C   UNL     1       0.791   9.934  20.089  0.00  0.00    +0.000 A 
ATOM     20  N   UNL     1       1.229   8.687  20.362  0.00  0.00    +0.000 NA
ENDBRANCH   8  11
ENDBRANCH   1   9
BRANCH   6  21
ATOM     21  C   UNL     1       1.912   3.972  17.685  0.00  0.00    +0.000 C 
ATOM     22  O   UNL     1       0.883   4.397  17.159  0.00  0.00    +0.000 OA
ATOM     23  N   UNL     1       3.022   3.754  16.894  0.00  0.00    +0.000 N 
ATOM     24  H   UNL     1       2.920   4.088  15.943  0.00  0.00    +0.000 HD
BRANCH  23  25
ATOM     25  C   UNL     1       4.343   3.517  17.385  0.00  0.00    +0.000 C 
BRANCH  25  26
ATOM     26  C   UNL     1       5.367   4.594  17.265  0.00  0.00    +0.000 A 
ATOM     27  C   UNL     1       5.114   5.713  16.457  0.00  0.00    +0.000 A 
ATOM     28  C   UNL     1       5.951   6.819  16.524  0.00  0.00    +0.000 A 
ATOM     29  C   UNL     1       7.046   6.813  17.388  0.00  0.00    +0.000 A 
ATOM     30  C   UNL     1       7.306   5.700  18.186  0.00  0.00    +0.000 A 
ATOM     31  C   UNL     1       6.471   4.590  18.122  0.00  0.00    +0.000 A 
ENDBRANCH  25  26
ENDBRANCH  23  25
ENDBRANCH   6  21
TORSDOF 5
ENDMDL
MODEL 9
REMARK VINA RESULT:      -8.1      1.307      4.293
REMARK  Name = 
REMARK  5 active torsions:
REMARK  status: ('A' for Active; 'I' for Inactive)
REMARK    1  A    between atoms: C_2  and  C_20
REMARK    2  A    between atoms: N_3  and  C_4
REMARK    3  A    between atoms: C_9  and  C_10
REMARK    4  A    between atoms: N_12  and  C_13
REMARK    5  A    between atoms: C_13  and  C_14
REMARK                            x       y       z     vdW  Elec       q    Type
REMARK                         _______ _______ _______ _____ _____    ______ ____
ROOT
ATOM      1  C   UNL     1       3.000   4.666  19.618  0.00  0.00    +0.000 A 
ATOM      2  C   UNL     1       2.015   3.668  19.716  0.00  0.00    +0.000 A 
ATOM      3  C   UNL     1       2.196   2.409  19.129  0.00  0.00    +0.000 A 
ATOM      4  C   UNL     1       3.377   2.116  18.465  0.00  0.00    +0.000 A 
ATOM      5  C   UNL     1       4.390   3.073  18.398  0.00  0.00    +0.000 A 
ATOM      6  C   UNL     1       4.225   4.346  18.990  0.00  0.00    +0.000 A 
ENDROOT
BRANCH   1   9
ATOM      7  O   UNL     1       2.231   6.989  18.066  0.00  0.00    +0.000 OA
ATOM      8  C   UNL     1       2.258   7.008  19.291  0.00  0.00    +0.000 C 
ATOM      9  N   UNL     1       2.686   5.956  20.113  0.00  0.00    +0.000 N 
ATOM     10  H   UNL     1       2.404   6.036  21.090  0.00  0.00    +0.000 HD
BRANCH   8  11
ATOM     11  C   UNL     1       1.657   8.167  20.026  0.00  0.00    +0.000 A 
ATOM     12  C   UNL     1       1.533   8.154  21.402  0.00  0.00    +0.000 A 
ATOM     13  N   UNL     1       0.944   9.172  22.083  0.00  0.00    +0.000 NA
ATOM     14  C   UNL     1       0.477  10.200  21.346  0.00  0.00    +0.000 A 
ATOM     15  C   UNL     1      -0.239  11.225  21.957  0.00  0.00    +0.000 A 
ATOM     16  C   UNL     1      -0.754  12.292  21.217  0.00  0.00    +0.000 A 
ATOM     17  C   UNL     1      -0.515  12.356  19.848  0.00  0.00    +0.000 A 
ATOM     18  C   UNL     1       0.206  11.336  19.227  0.00  0.00    +0.000 A 
ATOM     19  C   UNL     1       0.679  10.244  19.940  0.00  0.00    +0.000 A 
ATOM     20  N   UNL     1       1.289   9.241  19.274  0.00  0.00    +0.000 NA
ENDBRANCH   8  11
ENDBRANCH   1   9
BRANCH   6  21
ATOM     21  C   UNL     1       5.475   5.176  18.954  0.00  0.00    +0.000 C 
ATOM     22  O   UNL     1       6.246   5.143  19.915  0.00  0.00    +0.000 OA
ATOM     23  N   UNL     1       5.720   6.077  17.937  0.00  0.00    +0.000 N 
ATOM     24  H   UNL     1       6.607   6.559  18.021  0.00  0.00    +0.000 HD
BRANCH  23  25
ATOM     25  C   UNL     1       5.084   6.058  16.658  0.00  0.00    +0.000 C 
BRANCH  25  26
ATOM     26  C   UNL     1       5.667   5.225  15.568  0.00  0.00    +0.000 A 
ATOM     27  C   UNL     1       4.832   4.405  14.792  0.00  0.00    +0.000 A 
ATOM     28  C   UNL     1       5.325   3.813  13.635  0.00  0.00    +0.000 A 
ATOM     29  C   UNL     1       6.649   4.027  13.253  0.00  0.00    +0.000 A 
ATOM     30  C   UNL     1       7.483   4.833  14.026  0.00  0.00    +0.000 A 
ATOM     31  C   UNL     1       6.995   5.428  15.184  0.00  0.00    +0.000 A 
ENDBRANCH  25  26
ENDBRANCH  23  25
ENDBRANCH   6  21
TORSDOF 5
ENDMDL
