MODEL 1
REMARK VINA RESULT:      -7.5      0.000      0.000
REMARK  Name = 
REMARK  6 active torsions:
REMARK  status: ('A' for Active; 'I' for Inactive)
REMARK    1  A    between atoms: C_1  and  N_2
REMARK    2  A    between atoms: C_6  and  C_7
REMARK    3  A    between atoms: C_7  and  C_8
REMARK    4  A    between atoms: C_8  and  C_9
REMARK    5  A    between atoms: C_13  and  N_14
REMARK    6  A    between atoms: C_17  and  C_18
REMARK                            x       y       z     vdW  Elec       q    Type
REMARK                         _______ _______ _______ _____ _____    ______ ____
ROOT
ATOM      1  C   UNL     1       5.455   4.240  17.416  0.00  0.00    +0.000 A 
ATOM      2  C   UNL     1       5.795   4.119  18.778  0.00  0.00    +0.000 A 
ATOM      3  C   UNL     1       5.161   3.210  19.618  0.00  0.00    +0.000 A 
ATOM      4  C   UNL     1       4.077   2.484  19.151  0.00  0.00    +0.000 A 
ATOM      5  C   UNL     1       3.526   2.811  17.905  0.00  0.00    +0.000 A 
ATOM      6  C   UNL     1       4.292   3.559  17.003  0.00  0.00    +0.000 A 
ENDROOT
BRANCH   5   7
ATOM      7  N   UNL     1       2.071   2.833  17.742  0.00  0.00    +0.000 N 
ATOM      8  C   UNL     1       1.662   4.148  17.191  0.00  0.00    +0.000 C 
ATOM      9  C   UNL     1       1.527   4.963  18.442  0.00  0.00    +0.000 A 
ATOM     10  C   UNL     1       2.038   6.220  18.751  0.00  0.00    +0.000 A 
ATOM     11  C   UNL     1       2.076   6.582  20.111  0.00  0.00    +0.000 A 
ATOM     12  C   UNL     1       1.617   5.712  21.118  0.00  0.00    +0.000 A 
ATOM     13  C   UNL     1       1.137   4.444  20.797  0.00  0.00    +0.000 A 
ATOM     14  C   UNL     1       1.127   4.091  19.459  0.00  0.00    +0.000 A 
ATOM     15  C   UNL     1       1.322   2.709  18.948  0.00  0.00    +0.000 C 
ATOM     16  O   UNL     1       1.071   1.698  19.580  0.00  0.00    +0.000 OA
BRANCH  10  17
ATOM     17  C   UNL     1       2.754   7.059  17.736  0.00  0.00    +0.000 C 
ATOM     18  F   UNL     1       2.060   8.172  17.369  0.00  0.00    +0.000 F 
ENDBRANCH  10  17
ENDBRANCH   5   7
BRANCH   1  19
ATOM     19  C   UNL     1       6.346   5.116  16.396  0.00  0.00    +0.000 C 
ATOM     20  C   UNL     1       5.616   6.288  15.665  0.00  0.00    +0.000 C 
ATOM     21  N   UNL     1       6.221   7.260  16.585  0.00  0.00    +0.000 NA
ATOM     22  C   UNL     1       7.166   6.261  17.083  0.00  0.00    +0.000 C 
ATOM     23  H   UNL     1       5.568   7.580  17.303  0.00  0.00    +0.000 HD
BRANCH  19  24
ATOM     24  C   UNL     1       7.230   4.229  15.486  0.00  0.00    +0.000 C 
BRANCH  24  30
ATOM     25  C   UNL     1       5.770   3.411  12.812  0.00  0.00    +0.000 C 
ATOM     26  N   UNL     1       6.818   4.380  12.959  0.00  0.00    +0.000 N 
ATOM     27  C   UNL     1       7.363   5.100  11.949  0.00  0.00    +0.000 A 
ATOM     28  N   UNL     1       8.284   5.900  12.424  0.00  0.00    +0.000 NA
ATOM     29  N   UNL     1       8.364   5.681  13.777  0.00  0.00    +0.000 NA
ATOM     30  C   UNL     1       7.467   4.773  14.112  0.00  0.00    +0.000 A 
ENDBRANCH  24  30
ENDBRANCH  19  24
ENDBRANCH   1  19
TORSDOF 5
ENDMDL
MODEL 2
REMARK VINA RESULT:      -7.3      4.541      7.699
REMARK  Name = 
REMARK  6 active torsions:
REMARK  status: ('A' for Active; 'I' for Inactive)
REMARK    1  A    between atoms: C_1  and  N_2
REMARK    2  A    between atoms: C_6  and  C_7
REMARK    3  A    between atoms: C_7  and  C_8
REMARK    4  A    between atoms: C_8  and  C_9
REMARK    5  A    between atoms: C_13  and  N_14
REMARK    6  A    between atoms: C_17  and  C_18
REMARK                            x       y       z     vdW  Elec       q    Type
REMARK                         _______ _______ _______ _____ _____    ______ ____
ROOT
ATOM      1  C   UNL     1       1.558   8.815  19.247  0.00  0.00    +0.000 A 
ATOM      2  C   UNL     1       2.264   9.114  18.065  0.00  0.00    +0.000 A 
ATOM      3  C   UNL     1       2.962   8.141  17.358  0.00  0.00    +0.000 A 
ATOM      4  C   UNL     1       3.085   6.865  17.885  0.00  0.00    +0.000 A 
ATOM      5  C   UNL     1       2.662   6.627  19.199  0.00  0.00    +0.000 A 
ATOM      6  C   UNL     1       1.783   7.538  19.800  0.00  0.00    +0.000 A 
ENDROOT
BRANCH   5   7
ATOM      7  N   UNL     1       3.474   5.785  20.078  0.00  0.00    +0.000 N 
ATOM      8  C   UNL     1       4.610   5.227  19.307  0.00  0.00    +0.000 C 
ATOM      9  C   UNL     1       3.990   3.998  18.713  0.00  0.00    +0.000 A 
ATOM     10  C   UNL     1       3.994   3.538  17.399  0.00  0.00    +0.000 A 
ATOM     11  C   UNL     1       3.032   2.570  17.055  0.00  0.00    +0.000 A 
ATOM     12  C   UNL     1       2.104   2.085  17.996  0.00  0.00    +0.000 A 
ATOM     13  C   UNL     1       2.091   2.578  19.300  0.00  0.00    +0.000 A 
ATOM     14  C   UNL     1       3.027   3.545  19.620  0.00  0.00    +0.000 A 
ATOM     15  C   UNL     1       2.810   4.638  20.604  0.00  0.00    +0.000 C 
ATOM     16  O   UNL     1       2.031   4.579  21.539  0.00  0.00    +0.000 OA
BRANCH  10  17
ATOM     17  C   UNL     1       4.797   4.207  16.325  0.00  0.00    +0.000 C 
ATOM     18  F   UNL     1       5.689   3.374  15.720  0.00  0.00    +0.000 F 
ENDBRANCH  10  17
ENDBRANCH   5   7
BRANCH   1  19
ATOM     19  C   UNL     1       0.560   9.882  19.929  0.00  0.00    +0.000 C 
ATOM     20  C   UNL     1      -0.559   9.297  20.852  0.00  0.00    +0.000 C 
ATOM     21  N   UNL     1       0.207   9.675  22.046  0.00  0.00    +0.000 NA
ATOM     22  C   UNL     1       1.106  10.515  21.254  0.00  0.00    +0.000 C 
ATOM     23  H   UNL     1       0.684   8.880  22.474  0.00  0.00    +0.000 HD
BRANCH  19  24
ATOM     24  C   UNL     1       0.080  10.956  18.922  0.00  0.00    +0.000 C 
BRANCH  24  30
ATOM     25  C   UNL     1      -2.703  12.268  19.620  0.00  0.00    +0.000 C 
ATOM     26  N   UNL     1      -2.450  11.262  18.628  0.00  0.00    +0.000 N 
ATOM     27  C   UNL     1      -3.388  10.699  17.829  0.00  0.00    +0.000 A 
ATOM     28  N   UNL     1      -2.823   9.828  17.031  0.00  0.00    +0.000 NA
ATOM     29  N   UNL     1      -1.484   9.800  17.331  0.00  0.00    +0.000 NA
ATOM     30  C   UNL     1      -1.246  10.678  18.287  0.00  0.00    +0.000 A 
ENDBRANCH  24  30
ENDBRANCH  19  24
ENDBRANCH   1  19
TORSDOF 5
ENDMDL
MODEL 3
REMARK VINA RESULT:      -7.2      0.612      1.166
REMARK  Name = 
REMARK  6 active torsions:
REMARK  status: ('A' for Active; 'I' for Inactive)
REMARK    1  A    between atoms: C_1  and  N_2
REMARK    2  A    between atoms: C_6  and  C_7
REMARK    3  A    between atoms: C_7  and  C_8
REMARK    4  A    between atoms: C_8  and  C_9
REMARK    5  A    between atoms: C_13  and  N_14
REMARK    6  A    between atoms: C_17  and  C_18
REMARK                            x       y       z     vdW  Elec       q    Type
REMARK                         _______ _______ _______ _____ _____    ______ ____
ROOT
ATOM      1  C   UNL     1       5.597   4.486  17.467  0.00  0.00    +0.000 A 
ATOM      2  C   UNL     1       5.908   4.356  18.835  0.00  0.00    +0.000 A 
ATOM      3  C   UNL     1       5.320   3.384  19.636  0.00  0.00    +0.000 A 
ATOM      4  C   UNL     1       4.302   2.594  19.122  0.00  0.00    +0.000 A 
ATOM      5  C   UNL     1       3.762   2.912  17.869  0.00  0.00    +0.000 A 
ATOM      6  C   UNL     1       4.497   3.735  17.006  0.00  0.00    +0.000 A 
ENDROOT
BRANCH   5   7
ATOM      7  N   UNL     1       2.315   2.835  17.665  0.00  0.00    +0.000 N 
ATOM      8  C   UNL     1       1.829   4.127  17.124  0.00  0.00    +0.000 C 
ATOM      9  C   UNL     1       1.603   4.909  18.384  0.00  0.00    +0.000 A 
ATOM     10  C   UNL     1       2.015   6.193  18.726  0.00  0.00    +0.000 A 
ATOM     11  C   UNL     1       1.991   6.533  20.092  0.00  0.00    +0.000 A 
ATOM     12  C   UNL     1       1.568   5.615  21.072  0.00  0.00    +0.000 A 
ATOM     13  C   UNL     1       1.188   4.322  20.718  0.00  0.00    +0.000 A 
ATOM     14  C   UNL     1       1.238   3.993  19.375  0.00  0.00    +0.000 A 
ATOM     15  C   UNL     1       1.545   2.637  18.848  0.00  0.00    +0.000 C 
ATOM     16  O   UNL     1       1.348   1.600  19.456  0.00  0.00    +0.000 OA
BRANCH  10  17
ATOM     17  C   UNL     1       2.698   7.098  17.745  0.00  0.00    +0.000 C 
ATOM     18  F   UNL     1       2.032   8.268  17.537  0.00  0.00    +0.000 F 
ENDBRANCH  10  17
ENDBRANCH   5   7
BRANCH   1  19
ATOM     19  C   UNL     1       6.450   5.448  16.493  0.00  0.00    +0.000 C 
ATOM     20  C   UNL     1       5.649   6.554  15.732  0.00  0.00    +0.000 C 
ATOM     21  N   UNL     1       6.119   7.570  16.683  0.00  0.00    +0.000 NA
ATOM     22  C   UNL     1       7.129   6.657  17.221  0.00  0.00    +0.000 C 
ATOM     23  H   UNL     1       5.408   7.823  17.370  0.00  0.00    +0.000 HD
BRANCH  19  24
ATOM     24  C   UNL     1       7.453   4.652  15.622  0.00  0.00    +0.000 C 
BRANCH  24  30
ATOM     25  C   UNL     1       8.494   5.793  12.870  0.00  0.00    +0.000 C 
ATOM     26  N   UNL     1       7.436   4.843  13.064  0.00  0.00    +0.000 N 
ATOM     27  C   UNL     1       6.695   4.287  12.075  0.00  0.00    +0.000 A 
ATOM     28  N   UNL     1       5.824   3.455  12.590  0.00  0.00    +0.000 NA
ATOM     29  N   UNL     1       5.980   3.485  13.954  0.00  0.00    +0.000 NA
ATOM     30  C   UNL     1       6.965   4.312  14.248  0.00  0.00    +0.000 A 
ENDBRANCH  24  30
ENDBRANCH  19  24
ENDBRANCH   1  19
TORSDOF 5
ENDMDL
MODEL 4
REMARK VINA RESULT:      -7.1      4.665      7.909
REMARK  Name = 
REMARK  6 active torsions:
REMARK  status: ('A' for Active; 'I' for Inactive)
REMARK    1  A    between atoms: C_1  and  N_2
REMARK    2  A    between atoms: C_6  and  C_7
REMARK    3  A    between atoms: C_7  and  C_8
REMARK    4  A    between atoms: C_8  and  C_9
REMARK    5  A    between atoms: C_13  and  N_14
REMARK    6  A    between atoms: C_17  and  C_18
REMARK                            x       y       z     vdW  Elec       q    Type
REMARK                         _______ _______ _______ _____ _____    ______ ____
ROOT
ATOM      1  C   UNL     1       1.434   8.667  19.551  0.00  0.00    +0.000 A 
ATOM      2  C   UNL     1       2.095   9.120  18.392  0.00  0.00    +0.000 A 
ATOM      3  C   UNL     1       2.844   8.266  17.591  0.00  0.00    +0.000 A 
ATOM      4  C   UNL     1       3.064   6.959  17.996  0.00  0.00    +0.000 A 
ATOM      5  C   UNL     1       2.683   6.575  19.288  0.00  0.00    +0.000 A 
ATOM      6  C   UNL     1       1.755   7.364  19.981  0.00  0.00    +0.000 A 
ENDROOT
BRANCH   5   7
ATOM      7  N   UNL     1       3.566   5.715  20.077  0.00  0.00    +0.000 N 
ATOM      8  C   UNL     1       4.662   5.216  19.211  0.00  0.00    +0.000 C 
ATOM      9  C   UNL     1       4.029   3.999  18.605  0.00  0.00    +0.000 A 
ATOM     10  C   UNL     1       3.958   3.595  17.275  0.00  0.00    +0.000 A 
ATOM     11  C   UNL     1       2.995   2.621  16.951  0.00  0.00    +0.000 A 
ATOM     12  C   UNL     1       2.139   2.076  17.928  0.00  0.00    +0.000 A 
ATOM     13  C   UNL     1       2.201   2.512  19.250  0.00  0.00    +0.000 A 
ATOM     14  C   UNL     1       3.136   3.487  19.551  0.00  0.00    +0.000 A 
ATOM     15  C   UNL     1       2.961   4.532  20.594  0.00  0.00    +0.000 C 
ATOM     16  O   UNL     1       2.246   4.416  21.573  0.00  0.00    +0.000 OA
BRANCH  10  17
ATOM     17  C   UNL     1       4.675   4.327  16.182  0.00  0.00    +0.000 C 
ATOM     18  F   UNL     1       5.599   3.562  15.537  0.00  0.00    +0.000 F 
ENDBRANCH  10  17
ENDBRANCH   5   7
BRANCH   1  19
ATOM     19  C   UNL     1       0.378   9.596  20.340  0.00  0.00    +0.000 C 
ATOM     20  C   UNL     1      -0.273   8.977  21.619  0.00  0.00    +0.000 C 
ATOM     21  N   UNL     1       0.627   9.760  22.476  0.00  0.00    +0.000 NA
ATOM     22  C   UNL     1       1.035  10.599  21.348  0.00  0.00    +0.000 C 
ATOM     23  H   UNL     1       1.395   9.202  22.852  0.00  0.00    +0.000 HD
BRANCH  19  24
ATOM     24  C   UNL     1      -0.612  10.298  19.378  0.00  0.00    +0.000 C 
BRANCH  24  30
ATOM     25  C   UNL     1      -2.417  12.481  20.769  0.00  0.00    +0.000 C 
ATOM     26  N   UNL     1      -1.289  12.714  19.913  0.00  0.00    +0.000 N 
ATOM     27  C   UNL     1      -0.822  13.933  19.552  0.00  0.00    +0.000 A 
ATOM     28  N   UNL     1       0.223  13.793  18.775  0.00  0.00    +0.000 NA
ATOM     29  N   UNL     1       0.433  12.448  18.602  0.00  0.00    +0.000 NA
ATOM     30  C   UNL     1      -0.470  11.786  19.302  0.00  0.00    +0.000 A 
ENDBRANCH  24  30
ENDBRANCH  19  24
ENDBRANCH   1  19
TORSDOF 5
ENDMDL
MODEL 5
REMARK VINA RESULT:      -7.1      3.648      5.927
REMARK  Name = 
REMARK  6 active torsions:
REMARK  status: ('A' for Active; 'I' for Inactive)
REMARK    1  A    between atoms: C_1  and  N_2
REMARK    2  A    between atoms: C_6  and  C_7
REMARK    3  A    between atoms: C_7  and  C_8
REMARK    4  A    between atoms: C_8  and  C_9
REMARK    5  A    between atoms: C_13  and  N_14
REMARK    6  A    between atoms: C_17  and  C_18
REMARK                            x       y       z     vdW  Elec       q    Type
REMARK                         _______ _______ _______ _____ _____    ______ ____
ROOT
ATOM      1  C   UNL     1       2.263   5.892  18.848  0.00  0.00    +0.000 A 
ATOM      2  C   UNL     1       2.067   6.782  17.774  0.00  0.00    +0.000 A 
ATOM      3  C   UNL     1       1.973   8.157  17.963  0.00  0.00    +0.000 A 
ATOM      4  C   UNL     1       1.942   8.672  19.250  0.00  0.00    +0.000 A 
ATOM      5  C   UNL     1       1.822   7.792  20.332  0.00  0.00    +0.000 A 
ATOM      6  C   UNL     1       2.132   6.439  20.140  0.00  0.00    +0.000 A 
ENDROOT
BRANCH   5   7
ATOM      7  N   UNL     1       0.937   8.134  21.447  0.00  0.00    +0.000 N 
ATOM      8  C   UNL     1      -0.435   8.357  20.930  0.00  0.00    +0.000 C 
ATOM      9  C   UNL     1      -0.374   9.804  20.543  0.00  0.00    +0.000 A 
ATOM     10  C   UNL     1      -0.755  10.432  19.361  0.00  0.00    +0.000 A 
ATOM     11  C   UNL     1      -0.247  11.723  19.126  0.00  0.00    +0.000 A 
ATOM     12  C   UNL     1       0.611  12.357  20.046  0.00  0.00    +0.000 A 
ATOM     13  C   UNL     1       1.010  11.704  21.211  0.00  0.00    +0.000 A 
ATOM     14  C   UNL     1       0.521  10.426  21.419  0.00  0.00    +0.000 A 
ATOM     15  C   UNL     1       1.257   9.345  22.127  0.00  0.00    +0.000 C 
ATOM     16  O   UNL     1       2.118   9.534  22.968  0.00  0.00    +0.000 OA
BRANCH  10  17
ATOM     17  C   UNL     1      -1.457   9.696  18.260  0.00  0.00    +0.000 C 
ATOM     18  F   UNL     1      -0.760   9.684  17.089  0.00  0.00    +0.000 F 
ENDBRANCH  10  17
ENDBRANCH   5   7
BRANCH   1  19
ATOM     19  C   UNL     1       2.609   4.336  18.605  0.00  0.00    +0.000 C 
ATOM     20  C   UNL     1       2.585   3.413  19.866  0.00  0.00    +0.000 C 
ATOM     21  N   UNL     1       1.269   2.890  19.478  0.00  0.00    +0.000 NA
ATOM     22  C   UNL     1       1.386   3.473  18.141  0.00  0.00    +0.000 C 
ATOM     23  H   UNL     1       0.508   3.300  20.023  0.00  0.00    +0.000 HD
BRANCH  19  24
ATOM     24  C   UNL     1       3.839   4.150  17.682  0.00  0.00    +0.000 C 
BRANCH  24  30
ATOM     25  C   UNL     1       5.456   6.595  16.518  0.00  0.00    +0.000 C 
ATOM     26  N   UNL     1       5.803   5.798  17.660  0.00  0.00    +0.000 N 
ATOM     27  C   UNL     1       6.910   5.968  18.423  0.00  0.00    +0.000 A 
ATOM     28  N   UNL     1       6.919   5.084  19.389  0.00  0.00    +0.000 NA
ATOM     29  N   UNL     1       5.804   4.297  19.241  0.00  0.00    +0.000 NA
ATOM     30  C   UNL     1       5.114   4.734  18.205  0.00  0.00    +0.000 A 
ENDBRANCH  24  30
ENDBRANCH  19  24
ENDBRANCH   1  19
TORSDOF 5
ENDMDL
MODEL 6
REMARK VINA RESULT:      -7.1      4.876      8.080
REMARK  Name = 
REMARK  6 active torsions:
REMARK  status: ('A' for Active; 'I' for Inactive)
REMARK    1  A    between atoms: C_1  and  N_2
REMARK    2  A    between atoms: C_6  and  C_7
REMARK    3  A    between atoms: C_7  and  C_8
REMARK    4  A    between atoms: C_8  and  C_9
REMARK    5  A    between atoms: C_13  and  N_14
REMARK    6  A    between atoms: C_17  and  C_18
REMARK                            x       y       z     vdW  Elec       q    Type
REMARK                         _______ _______ _______ _____ _____    ______ ____
ROOT
ATOM      1  C   UNL     1       1.344   8.682  19.636  0.00  0.00    +0.000 A 
ATOM      2  C   UNL     1       1.996   9.128  18.470  0.00  0.00    +0.000 A 
ATOM      3  C   UNL     1       2.734   8.268  17.664  0.00  0.00    +0.000 A 
ATOM      4  C   UNL     1       2.951   6.961  18.072  0.00  0.00    +0.000 A 
ATOM      5  C   UNL     1       2.581   6.583  19.368  0.00  0.00    +0.000 A 
ATOM      6  C   UNL     1       1.664   7.378  20.068  0.00  0.00    +0.000 A 
ENDROOT
BRANCH   5   7
ATOM      7  N   UNL     1       3.468   5.722  20.151  0.00  0.00    +0.000 N 
ATOM      8  C   UNL     1       4.573   5.244  19.286  0.00  0.00    +0.000 C 
ATOM      9  C   UNL     1       3.956   4.029  18.661  0.00  0.00    +0.000 A 
ATOM     10  C   UNL     1       3.896   3.642  17.325  0.00  0.00    +0.000 A 
ATOM     11  C   UNL     1       2.944   2.663  16.983  0.00  0.00    +0.000 A 
ATOM     12  C   UNL     1       2.089   2.097  17.947  0.00  0.00    +0.000 A 
ATOM     13  C   UNL     1       2.138   2.517  19.275  0.00  0.00    +0.000 A 
ATOM     14  C   UNL     1       3.062   3.496  19.595  0.00  0.00    +0.000 A 
ATOM     15  C   UNL     1       2.871   4.527  20.649  0.00  0.00    +0.000 C 
ATOM     16  O   UNL     1       2.152   4.392  21.623  0.00  0.00    +0.000 OA
BRANCH  10  17
ATOM     17  C   UNL     1       4.613   4.395  16.245  0.00  0.00    +0.000 C 
ATOM     18  F   UNL     1       5.571   3.657  15.619  0.00  0.00    +0.000 F 
ENDBRANCH  10  17
ENDBRANCH   5   7
BRANCH   1  19
ATOM     19  C   UNL     1       0.300   9.618  20.433  0.00  0.00    +0.000 C 
ATOM     20  C   UNL     1      -0.314   9.020  21.740  0.00  0.00    +0.000 C 
ATOM     21  N   UNL     1       0.600   9.828  22.558  0.00  0.00    +0.000 NA
ATOM     22  C   UNL     1       0.973  10.647  21.403  0.00  0.00    +0.000 C 
ATOM     23  H   UNL     1       1.382   9.284  22.925  0.00  0.00    +0.000 HD
BRANCH  19  24
ATOM     24  C   UNL     1      -0.720  10.292  19.482  0.00  0.00    +0.000 C 
BRANCH  24  30
ATOM     25  C   UNL     1       0.714  12.927  18.506  0.00  0.00    +0.000 C 
ATOM     26  N   UNL     1      -0.409  12.837  19.395  0.00  0.00    +0.000 N 
ATOM     27  C   UNL     1      -1.032  13.890  19.975  0.00  0.00    +0.000 A 
ATOM     28  N   UNL     1      -2.023  13.463  20.717  0.00  0.00    +0.000 NA
ATOM     29  N   UNL     1      -2.035  12.092  20.643  0.00  0.00    +0.000 NA
ATOM     30  C   UNL     1      -1.069  11.705  19.830  0.00  0.00    +0.000 A 
ENDBRANCH  24  30
ENDBRANCH  19  24
ENDBRANCH   1  19
TORSDOF 5
ENDMDL
MODEL 7
REMARK VINA RESULT:      -7.1      1.896      3.222
REMARK  Name = 
REMARK  6 active torsions:
REMARK  status: ('A' for Active; 'I' for Inactive)
REMARK    1  A    between atoms: C_1  and  N_2
REMARK    2  A    between atoms: C_6  and  C_7
REMARK    3  A    between atoms: C_7  and  C_8
REMARK    4  A    between atoms: C_8  and  C_9
REMARK    5  A    between atoms: C_13  and  N_14
REMARK    6  A    between atoms: C_17  and  C_18
REMARK                            x       y       z     vdW  Elec       q    Type
REMARK                         _______ _______ _______ _____ _____    ______ ____
ROOT
ATOM      1  C   UNL     1       4.957   6.130  17.546  0.00  0.00    +0.000 A 
ATOM      2  C   UNL     1       4.427   7.397  17.233  0.00  0.00    +0.000 A 
ATOM      3  C   UNL     1       3.130   7.759  17.580  0.00  0.00    +0.000 A 
ATOM      4  C   UNL     1       2.279   6.816  18.136  0.00  0.00    +0.000 A 
ATOM      5  C   UNL     1       2.680   5.475  18.170  0.00  0.00    +0.000 A 
ATOM      6  C   UNL     1       4.040   5.172  18.022  0.00  0.00    +0.000 A 
ENDROOT
BRANCH   5   7
ATOM      7  N   UNL     1       1.712   4.423  17.853  0.00  0.00    +0.000 N 
ATOM      8  C   UNL     1       1.096   3.932  19.109  0.00  0.00    +0.000 C 
ATOM      9  C   UNL     1       2.083   2.886  19.533  0.00  0.00    +0.000 A 
ATOM     10  C   UNL     1       2.695   2.680  20.766  0.00  0.00    +0.000 A 
ATOM     11  C   UNL     1       3.846   1.870  20.785  0.00  0.00    +0.000 A 
ATOM     12  C   UNL     1       4.360   1.292  19.608  0.00  0.00    +0.000 A 
ATOM     13  C   UNL     1       3.756   1.533  18.376  0.00  0.00    +0.000 A 
ATOM     14  C   UNL     1       2.639   2.349  18.367  0.00  0.00    +0.000 A 
ATOM     15  C   UNL     1       2.261   3.254  17.250  0.00  0.00    +0.000 C 
ATOM     16  O   UNL     1       2.580   3.083  16.087  0.00  0.00    +0.000 OA
BRANCH  10  17
ATOM     17  C   UNL     1       2.321   3.472  21.982  0.00  0.00    +0.000 C 
ATOM     18  F   UNL     1       2.429   4.818  21.802  0.00  0.00    +0.000 F 
ENDBRANCH  10  17
ENDBRANCH   5   7
BRANCH   1  19
ATOM     19  C   UNL     1       6.524   5.800  17.358  0.00  0.00    +0.000 C 
ATOM     20  C   UNL     1       7.465   7.018  17.088  0.00  0.00    +0.000 C 
ATOM     21  N   UNL     1       7.917   7.000  18.485  0.00  0.00    +0.000 NA
ATOM     22  C   UNL     1       7.320   5.682  18.703  0.00  0.00    +0.000 C 
ATOM     23  H   UNL     1       7.480   7.731  19.049  0.00  0.00    +0.000 HD
BRANCH  19  24
ATOM     24  C   UNL     1       6.756   4.579  16.434  0.00  0.00    +0.000 C 
BRANCH  24  30
ATOM     25  C   UNL     1       5.331   3.687  13.764  0.00  0.00    +0.000 C 
ATOM     26  N   UNL     1       6.511   4.495  13.882  0.00  0.00    +0.000 N 
ATOM     27  C   UNL     1       7.219   4.999  12.843  0.00  0.00    +0.000 A 
ATOM     28  N   UNL     1       8.229   5.698  13.296  0.00  0.00    +0.000 NA
ATOM     29  N   UNL     1       8.199   5.630  14.666  0.00  0.00    +0.000 NA
ATOM     30  C   UNL     1       7.151   4.915  15.030  0.00  0.00    +0.000 A 
ENDBRANCH  24  30
ENDBRANCH  19  24
ENDBRANCH   1  19
TORSDOF 5
ENDMDL
MODEL 8
REMARK VINA RESULT:      -7.0      4.734      7.809
REMARK  Name = 
REMARK  6 active torsions:
REMARK  status: ('A' for Active; 'I' for Inactive)
REMARK    1  A    between atoms: C_1  and  N_2
REMARK    2  A    between atoms: C_6  and  C_7
REMARK    3  A    between atoms: C_7  and  C_8
REMARK    4  A    between atoms: C_8  and  C_9
REMARK    5  A    between atoms: C_13  and  N_14
REMARK    6  A    between atoms: C_17  and  C_18
REMARK                            x       y       z     vdW  Elec       q    Type
REMARK                         _______ _______ _______ _____ _____    ______ ____
ROOT
ATOM      1  C   UNL     1       1.599   8.746  19.299  0.00  0.00    +0.000 A 
ATOM      2  C   UNL     1       2.287   9.060  18.111  0.00  0.00    +0.000 A 
ATOM      3  C   UNL     1       2.979   8.098  17.383  0.00  0.00    +0.000 A 
ATOM      4  C   UNL     1       3.111   6.815  17.892  0.00  0.00    +0.000 A 
ATOM      5  C   UNL     1       2.706   6.562  19.209  0.00  0.00    +0.000 A 
ATOM      6  C   UNL     1       1.834   7.463  19.833  0.00  0.00    +0.000 A 
ENDROOT
BRANCH   5   7
ATOM      7  N   UNL     1       3.532   5.711  20.068  0.00  0.00    +0.000 N 
ATOM      8  C   UNL     1       4.640   5.138  19.266  0.00  0.00    +0.000 C 
ATOM      9  C   UNL     1       3.990   3.916  18.692  0.00  0.00    +0.000 A 
ATOM     10  C   UNL     1       3.952   3.454  17.379  0.00  0.00    +0.000 A 
ATOM     11  C   UNL     1       2.969   2.498  17.063  0.00  0.00    +0.000 A 
ATOM     12  C   UNL     1       2.062   2.025  18.030  0.00  0.00    +0.000 A 
ATOM     13  C   UNL     1       2.090   2.519  19.333  0.00  0.00    +0.000 A 
ATOM     14  C   UNL     1       3.046   3.476  19.626  0.00  0.00    +0.000 A 
ATOM     15  C   UNL     1       2.869   4.573  20.613  0.00  0.00    +0.000 C 
ATOM     16  O   UNL     1       2.115   4.525  21.569  0.00  0.00    +0.000 OA
BRANCH  10  17
ATOM     17  C   UNL     1       4.733   4.113  16.282  0.00  0.00    +0.000 C 
ATOM     18  F   UNL     1       6.016   3.666  16.191  0.00  0.00    +0.000 F 
ENDBRANCH  10  17
ENDBRANCH   5   7
BRANCH   1  19
ATOM     19  C   UNL     1       0.607   9.802  20.006  0.00  0.00    +0.000 C 
ATOM     20  C   UNL     1      -0.589   9.201  20.813  0.00  0.00    +0.000 C 
ATOM     21  N   UNL     1       0.118   9.448  22.076  0.00  0.00    +0.000 NA
ATOM     22  C   UNL     1       1.099  10.303  21.407  0.00  0.00    +0.000 C 
ATOM     23  H   UNL     1       0.534   8.599  22.465  0.00  0.00    +0.000 HD
BRANCH  19  24
ATOM     24  C   UNL     1       0.235  10.974  19.064  0.00  0.00    +0.000 C 
BRANCH  24  30
ATOM     25  C   UNL     1      -1.976   9.919  17.077  0.00  0.00    +0.000 C 
ATOM     26  N   UNL     1      -2.157  10.859  18.146  0.00  0.00    +0.000 N 
ATOM     27  C   UNL     1      -3.327  11.461  18.466  0.00  0.00    +0.000 A 
ATOM     28  N   UNL     1      -3.150  12.250  19.497  0.00  0.00    +0.000 NA
ATOM     29  N   UNL     1      -1.824  12.183  19.846  0.00  0.00    +0.000 NA
ATOM     30  C   UNL     1      -1.218  11.330  19.042  0.00  0.00    +0.000 A 
ENDBRANCH  24  30
ENDBRANCH  19  24
ENDBRANCH   1  19
TORSDOF 5
ENDMDL
MODEL 9
REMARK VINA RESULT:      -6.9      1.053      1.559
REMARK  Name = 
REMARK  6 active torsions:
REMARK  status: ('A' for Active; 'I' for Inactive)
REMARK    1  A    between atoms: C_1  and  N_2
REMARK    2  A    between atoms: C_6  and  C_7
REMARK    3  A    between atoms: C_7  and  C_8
REMARK    4  A    between atoms: C_8  and  C_9
REMARK    5  A    between atoms: C_13  and  N_14
REMARK    6  A    between atoms: C_17  and  C_18
REMARK                            x       y       z     vdW  Elec       q    Type
REMARK                         _______ _______ _______ _____ _____    ______ ____
ROOT
ATOM      1  C   UNL     1       5.271   4.433  17.189  0.00  0.00    +0.000 A 
ATOM      2  C   UNL     1       5.721   4.033  18.462  0.00  0.00    +0.000 A 
ATOM      3  C   UNL     1       5.140   2.973  19.150  0.00  0.00    +0.000 A 
ATOM      4  C   UNL     1       4.002   2.365  18.640  0.00  0.00    +0.000 A 
ATOM      5  C   UNL     1       3.356   2.945  17.541  0.00  0.00    +0.000 A 
ATOM      6  C   UNL     1       4.061   3.859  16.748  0.00  0.00    +0.000 A 
ENDROOT
BRANCH   5   7
ATOM      7  N   UNL     1       1.894   3.008  17.514  0.00  0.00    +0.000 N 
ATOM      8  C   UNL     1       1.462   4.411  17.727  0.00  0.00    +0.000 C 
ATOM      9  C   UNL     1       1.431   4.487  19.224  0.00  0.00    +0.000 A 
ATOM     10  C   UNL     1       1.979   5.433  20.084  0.00  0.00    +0.000 A 
ATOM     11  C   UNL     1       2.122   5.066  21.436  0.00  0.00    +0.000 A 
ATOM     12  C   UNL     1       1.728   3.797  21.901  0.00  0.00    +0.000 A 
ATOM     13  C   UNL     1       1.209   2.848  21.022  0.00  0.00    +0.000 A 
ATOM     14  C   UNL     1       1.095   3.213  19.692  0.00  0.00    +0.000 A 
ATOM     15  C   UNL     1       1.234   2.278  18.545  0.00  0.00    +0.000 C 
ATOM     16  O   UNL     1       1.017   1.081  18.601  0.00  0.00    +0.000 OA
BRANCH  10  17
ATOM     17  C   UNL     1       2.630   6.685  19.579  0.00  0.00    +0.000 C 
ATOM     18  F   UNL     1       3.839   6.465  18.992  0.00  0.00    +0.000 F 
ENDBRANCH  10  17
ENDBRANCH   5   7
BRANCH   1  19
ATOM     19  C   UNL     1       6.093   5.496  16.296  0.00  0.00    +0.000 C 
ATOM     20  C   UNL     1       5.243   6.513  15.468  0.00  0.00    +0.000 C 
ATOM     21  N   UNL     1       5.509   7.565  16.458  0.00  0.00    +0.000 NA
ATOM     22  C   UNL     1       6.563   6.766  17.084  0.00  0.00    +0.000 C 
ATOM     23  H   UNL     1       4.715   7.729  17.079  0.00  0.00    +0.000 HD
BRANCH  19  24
ATOM     24  C   UNL     1       7.253   4.828  15.518  0.00  0.00    +0.000 C 
BRANCH  24  30
ATOM     25  C   UNL     1       8.493   5.840  12.799  0.00  0.00    +0.000 C 
ATOM     26  N   UNL     1       7.462   4.854  12.962  0.00  0.00    +0.000 N 
ATOM     27  C   UNL     1       6.839   4.202  11.951  0.00  0.00    +0.000 A 
ATOM     28  N   UNL     1       5.960   3.365  12.442  0.00  0.00    +0.000 NA
ATOM     29  N   UNL     1       5.989   3.489  13.808  0.00  0.00    +0.000 NA
ATOM     30  C   UNL     1       6.908   4.378  14.133  0.00  0.00    +0.000 A 
ENDBRANCH  24  30
ENDBRANCH  19  24
ENDBRANCH   1  19
TORSDOF 5
ENDMDL
