MODEL 1
REMARK VINA RESULT:      -8.6      0.000      0.000
REMARK  Name = 
REMARK  4 active torsions:
REMARK  status: ('A' for Active; 'I' for Inactive)
REMARK    1  A    between atoms: N_3  and  C_4
REMARK    2  A    between atoms: N_10  and  C_11
REMARK    3  A    between atoms: C_14  and  C_15
REMARK    4  A    between atoms: C_18  and  C_19
REMARK                            x       y       z     vdW  Elec       q    Type
REMARK                         _______ _______ _______ _____ _____    ______ ____
ROOT
ATOM      1  C   UNL     1      -1.063  11.160  22.043  0.00  0.00    +0.000 A 
ATOM      2  C   UNL     1      -0.702  11.812  20.862  0.00  0.00    +0.000 A 
ATOM      3  C   UNL     1       0.116  11.193  19.919  0.00  0.00    +0.000 A 
ATOM      4  C   UNL     1       0.596   9.902  20.142  0.00  0.00    +0.000 A 
ATOM      5  C   UNL     1       0.259   9.252  21.337  0.00  0.00    +0.000 A 
ATOM      6  C   UNL     1      -0.562   9.876  22.282  0.00  0.00    +0.000 A 
ENDROOT
BRANCH   1  10
ATOM      7  O   UNL     1      -3.724  12.260  21.705  0.00  0.00    +0.000 OA
ATOM      8  C   UNL     1      -3.159  12.267  22.791  0.00  0.00    +0.000 C 
ATOM      9  N   UNL     1      -3.679  12.859  23.930  0.00  0.00    +0.000 N 
ATOM     10  N   UNL     1      -1.906  11.726  23.022  0.00  0.00    +0.000 N 
ATOM     11  H   UNL     1      -3.051  12.987  24.708  0.00  0.00    +0.000 HD
ATOM     12  H   UNL     1      -1.594  11.673  23.977  0.00  0.00    +0.000 HD
BRANCH   9  13
ATOM     13  C   UNL     1      -4.903  13.560  23.985  0.00  0.00    +0.000 A 
ATOM     14  C   UNL     1      -6.149  12.933  24.114  0.00  0.00    +0.000 A 
ATOM     15  C   UNL     1      -7.331  13.669  24.087  0.00  0.00    +0.000 A 
ATOM     16  C   UNL     1      -7.281  15.052  23.945  0.00  0.00    +0.000 A 
ATOM     17  C   UNL     1      -6.048  15.695  23.851  0.00  0.00    +0.000 A 
ATOM     18  C   UNL     1      -4.861  14.955  23.882  0.00  0.00    +0.000 A 
ENDBRANCH   9  13
ENDBRANCH   1  10
BRANCH   4  19
ATOM     19  C   UNL     1       1.417   9.248  19.140  0.00  0.00    +0.000 A 
ATOM     20  N   UNL     1       1.514   9.660  17.865  0.00  0.00    +0.000 NA
ATOM     21  O   UNL     1       2.349   8.722  17.275  0.00  0.00    +0.000 OA
ATOM     22  C   UNL     1       2.677   7.835  18.254  0.00  0.00    +0.000 A 
ATOM     23  N   UNL     1       2.146   8.117  19.420  0.00  0.00    +0.000 NA
BRANCH  22  24
ATOM     24  C   UNL     1       3.482   6.664  17.847  0.00  0.00    +0.000 C 
ATOM     25  C   UNL     1       4.065   5.972  19.107  0.00  0.00    +0.000 C 
ATOM     26  C   UNL     1       4.753   4.649  18.727  0.00  0.00    +0.000 C 
ATOM     27  C   UNL     1       5.696   4.894  17.607  0.00  0.00    +0.000 A 
ATOM     28  C   UNL     1       6.825   4.194  17.153  0.00  0.00    +0.000 A 
ATOM     29  N   UNL     1       7.404   4.801  16.111  0.00  0.00    +0.000 NA
ATOM     30  N   UNL     1       6.647   5.895  15.903  0.00  0.00    +0.000 N 
ATOM     31  C   UNL     1       5.598   5.979  16.767  0.00  0.00    +0.000 A 
ATOM     32  C   UNL     1       4.592   7.070  16.844  0.00  0.00    +0.000 C 
ATOM     33  H   UNL     1       6.921   6.538  15.168  0.00  0.00    +0.000 HD
ENDBRANCH  22  24
ENDBRANCH   4  19
TORSDOF 4
ENDMDL
MODEL 2
REMARK VINA RESULT:      -8.6      2.610      3.062
REMARK  Name = 
REMARK  4 active torsions:
REMARK  status: ('A' for Active; 'I' for Inactive)
REMARK    1  A    between atoms: N_3  and  C_4
REMARK    2  A    between atoms: N_10  and  C_11
REMARK    3  A    between atoms: C_14  and  C_15
REMARK    4  A    between atoms: C_18  and  C_19
REMARK                            x       y       z     vdW  Elec       q    Type
REMARK                         _______ _______ _______ _____ _____    ______ ____
ROOT
ATOM      1  C   UNL     1      -0.668  11.020  21.947  0.00  0.00    +0.000 A 
ATOM      2  C   UNL     1      -0.506  10.926  20.563  0.00  0.00    +0.000 A 
ATOM      3  C   UNL     1       0.222   9.883  19.993  0.00  0.00    +0.000 A 
ATOM      4  C   UNL     1       0.809   8.910  20.801  0.00  0.00    +0.000 A 
ATOM      5  C   UNL     1       0.674   9.013  22.192  0.00  0.00    +0.000 A 
ATOM      6  C   UNL     1      -0.058  10.061  22.762  0.00  0.00    +0.000 A 
ENDROOT
BRANCH   1  10
ATOM      7  O   UNL     1       0.178  13.708  22.632  0.00  0.00    +0.000 OA
ATOM      8  C   UNL     1      -0.941  13.296  22.911  0.00  0.00    +0.000 C 
ATOM      9  N   UNL     1      -1.872  14.017  23.636  0.00  0.00    +0.000 N 
ATOM     10  N   UNL     1      -1.413  12.038  22.579  0.00  0.00    +0.000 N 
ATOM     11  H   UNL     1      -2.674  13.515  23.982  0.00  0.00    +0.000 HD
ATOM     12  H   UNL     1      -2.389  11.852  22.743  0.00  0.00    +0.000 HD
BRANCH   9  13
ATOM     13  C   UNL     1      -1.649  15.301  24.181  0.00  0.00    +0.000 A 
ATOM     14  C   UNL     1      -1.726  16.483  23.433  0.00  0.00    +0.000 A 
ATOM     15  C   UNL     1      -1.422  17.716  24.005  0.00  0.00    +0.000 A 
ATOM     16  C   UNL     1      -1.050  17.785  25.343  0.00  0.00    +0.000 A 
ATOM     17  C   UNL     1      -1.002  16.622  26.110  0.00  0.00    +0.000 A 
ATOM     18  C   UNL     1      -1.311  15.384  25.536  0.00  0.00    +0.000 A 
ENDBRANCH   9  13
ENDBRANCH   1  10
BRANCH   4  19
ATOM     19  C   UNL     1       1.535   7.806  20.200  0.00  0.00    +0.000 A 
ATOM     20  N   UNL     1       1.851   6.674  20.852  0.00  0.00    +0.000 NA
ATOM     21  O   UNL     1       2.574   5.945  19.918  0.00  0.00    +0.000 OA
ATOM     22  C   UNL     1       2.623   6.709  18.794  0.00  0.00    +0.000 A 
ATOM     23  N   UNL     1       1.992   7.853  18.905  0.00  0.00    +0.000 NA
BRANCH  22  24
ATOM     24  C   UNL     1       3.442   6.193  17.675  0.00  0.00    +0.000 C 
ATOM     25  C   UNL     1       3.646   4.665  17.843  0.00  0.00    +0.000 C 
ATOM     26  C   UNL     1       4.336   4.073  16.602  0.00  0.00    +0.000 C 
ATOM     27  C   UNL     1       5.546   4.874  16.288  0.00  0.00    +0.000 A 
ATOM     28  C   UNL     1       6.714   4.578  15.568  0.00  0.00    +0.000 A 
ATOM     29  N   UNL     1       7.572   5.604  15.563  0.00  0.00    +0.000 NA
ATOM     30  N   UNL     1       6.953   6.556  16.287  0.00  0.00    +0.000 N 
ATOM     31  C   UNL     1       5.724   6.167  16.724  0.00  0.00    +0.000 A 
ATOM     32  C   UNL     1       4.792   6.949  17.576  0.00  0.00    +0.000 C 
ATOM     33  H   UNL     1       7.440   7.432  16.449  0.00  0.00    +0.000 HD
ENDBRANCH  22  24
ENDBRANCH   4  19
TORSDOF 4
ENDMDL
MODEL 3
REMARK VINA RESULT:      -8.6      1.833      2.326
REMARK  Name = 
REMARK  4 active torsions:
REMARK  status: ('A' for Active; 'I' for Inactive)
REMARK    1  A    between atoms: N_3  and  C_4
REMARK    2  A    between atoms: N_10  and  C_11
REMARK    3  A    between atoms: C_14  and  C_15
REMARK    4  A    between atoms: C_18  and  C_19
REMARK                            x       y       z     vdW  Elec       q    Type
REMARK                         _______ _______ _______ _____ _____    ______ ____
ROOT
ATOM      1  C   UNL     1      -0.532  11.302  22.114  0.00  0.00    +0.000 A 
ATOM      2  C   UNL     1       0.171  11.835  21.031  0.00  0.00    +0.000 A 
ATOM      3  C   UNL     1       0.893  11.014  20.168  0.00  0.00    +0.000 A 
ATOM      4  C   UNL     1       0.931   9.635  20.374  0.00  0.00    +0.000 A 
ATOM      5  C   UNL     1       0.250   9.096  21.474  0.00  0.00    +0.000 A 
ATOM      6  C   UNL     1      -0.475   9.923  22.339  0.00  0.00    +0.000 A 
ENDROOT
BRANCH   1  10
ATOM      7  O   UNL     1      -3.191  12.390  21.723  0.00  0.00    +0.000 OA
ATOM      8  C   UNL     1      -2.555  12.600  22.747  0.00  0.00    +0.000 C 
ATOM      9  N   UNL     1      -2.988  13.425  23.771  0.00  0.00    +0.000 N 
ATOM     10  N   UNL     1      -1.299  12.080  23.006  0.00  0.00    +0.000 N 
ATOM     11  H   UNL     1      -2.308  13.689  24.467  0.00  0.00    +0.000 HD
ATOM     12  H   UNL     1      -0.925  12.212  23.932  0.00  0.00    +0.000 HD
BRANCH   9  13
ATOM     13  C   UNL     1      -4.194  14.160  23.757  0.00  0.00    +0.000 A 
ATOM     14  C   UNL     1      -4.246  15.559  23.723  0.00  0.00    +0.000 A 
ATOM     15  C   UNL     1      -5.463  16.235  23.786  0.00  0.00    +0.000 A 
ATOM     16  C   UNL     1      -6.650  15.515  23.870  0.00  0.00    +0.000 A 
ATOM     17  C   UNL     1      -6.617  14.122  23.870  0.00  0.00    +0.000 A 
ATOM     18  C   UNL     1      -5.395  13.444  23.802  0.00  0.00    +0.000 A 
ENDBRANCH   9  13
ENDBRANCH   1  10
BRANCH   4  19
ATOM     19  C   UNL     1       1.655   8.780  19.450  0.00  0.00    +0.000 A 
ATOM     20  N   UNL     1       2.030   9.159  18.217  0.00  0.00    +0.000 NA
ATOM     21  O   UNL     1       2.632   8.025  17.691  0.00  0.00    +0.000 OA
ATOM     22  C   UNL     1       2.563   7.072  18.660  0.00  0.00    +0.000 A 
ATOM     23  N   UNL     1       1.988   7.484  19.764  0.00  0.00    +0.000 NA
BRANCH  22  24
ATOM     24  C   UNL     1       3.046   5.722  18.301  0.00  0.00    +0.000 C 
ATOM     25  C   UNL     1       1.835   4.800  17.997  0.00  0.00    +0.000 C 
ATOM     26  C   UNL     1       2.312   3.446  17.445  0.00  0.00    +0.000 C 
ATOM     27  C   UNL     1       3.358   2.895  18.343  0.00  0.00    +0.000 A 
ATOM     28  C   UNL     1       3.827   1.589  18.556  0.00  0.00    +0.000 A 
ATOM     29  N   UNL     1       4.775   1.545  19.497  0.00  0.00    +0.000 NA
ATOM     30  N   UNL     1       4.909   2.826  19.891  0.00  0.00    +0.000 N 
ATOM     31  C   UNL     1       4.091   3.673  19.209  0.00  0.00    +0.000 A 
ATOM     32  C   UNL     1       3.952   5.138  19.415  0.00  0.00    +0.000 C 
ATOM     33  H   UNL     1       5.564   3.035  20.638  0.00  0.00    +0.000 HD
ENDBRANCH  22  24
ENDBRANCH   4  19
TORSDOF 4
ENDMDL
MODEL 4
REMARK VINA RESULT:      -8.5      1.398      1.900
REMARK  Name = 
REMARK  4 active torsions:
REMARK  status: ('A' for Active; 'I' for Inactive)
REMARK    1  A    between atoms: N_3  and  C_4
REMARK    2  A    between atoms: N_10  and  C_11
REMARK    3  A    between atoms: C_14  and  C_15
REMARK    4  A    between atoms: C_18  and  C_19
REMARK                            x       y       z     vdW  Elec       q    Type
REMARK                         _______ _______ _______ _____ _____    ______ ____
ROOT
ATOM      1  C   UNL     1      -0.422  11.139  22.257  0.00  0.00    +0.000 A 
ATOM      2  C   UNL     1       0.116  11.258  20.973  0.00  0.00    +0.000 A 
ATOM      3  C   UNL     1       0.750  10.183  20.355  0.00  0.00    +0.000 A 
ATOM      4  C   UNL     1       0.864   8.959  21.015  0.00  0.00    +0.000 A 
ATOM      5  C   UNL     1       0.351   8.839  22.313  0.00  0.00    +0.000 A 
ATOM      6  C   UNL     1      -0.286   9.921  22.931  0.00  0.00    +0.000 A 
ENDROOT
BRANCH   1  10
ATOM      7  O   UNL     1      -2.975  12.342  21.595  0.00  0.00    +0.000 OA
ATOM      8  C   UNL     1      -2.302  12.740  22.537  0.00  0.00    +0.000 C 
ATOM      9  N   UNL     1      -2.636  13.832  23.319  0.00  0.00    +0.000 N 
ATOM     10  N   UNL     1      -1.095  12.184  22.923  0.00  0.00    +0.000 N 
ATOM     11  H   UNL     1      -1.921  14.196  23.929  0.00  0.00    +0.000 HD
ATOM     12  H   UNL     1      -0.692  12.507  23.787  0.00  0.00    +0.000 HD
BRANCH   9  13
ATOM     13  C   UNL     1      -3.768  14.651  23.116  0.00  0.00    +0.000 A 
ATOM     14  C   UNL     1      -3.747  15.824  22.349  0.00  0.00    +0.000 A 
ATOM     15  C   UNL     1      -4.875  16.634  22.245  0.00  0.00    +0.000 A 
ATOM     16  C   UNL     1      -6.049  16.273  22.897  0.00  0.00    +0.000 A 
ATOM     17  C   UNL     1      -6.097  15.092  23.635  0.00  0.00    +0.000 A 
ATOM     18  C   UNL     1      -4.965  14.276  23.737  0.00  0.00    +0.000 A 
ENDBRANCH   9  13
ENDBRANCH   1  10
BRANCH   4  19
ATOM     19  C   UNL     1       1.493   7.831  20.352  0.00  0.00    +0.000 A 
ATOM     20  N   UNL     1       1.636   6.618  20.911  0.00  0.00    +0.000 NA
ATOM     21  O   UNL     1       2.325   5.890  19.952  0.00  0.00    +0.000 OA
ATOM     22  C   UNL     1       2.531   6.736  18.906  0.00  0.00    +0.000 A 
ATOM     23  N   UNL     1       2.030   7.933  19.091  0.00  0.00    +0.000 NA
BRANCH  22  24
ATOM     24  C   UNL     1       3.352   6.223  17.788  0.00  0.00    +0.000 C 
ATOM     25  C   UNL     1       3.588   4.701  17.972  0.00  0.00    +0.000 C 
ATOM     26  C   UNL     1       4.281   4.109  16.733  0.00  0.00    +0.000 C 
ATOM     27  C   UNL     1       5.472   4.930  16.401  0.00  0.00    +0.000 A 
ATOM     28  C   UNL     1       6.641   4.649  15.676  0.00  0.00    +0.000 A 
ATOM     29  N   UNL     1       7.478   5.691  15.652  0.00  0.00    +0.000 NA
ATOM     30  N   UNL     1       6.845   6.640  16.369  0.00  0.00    +0.000 N 
ATOM     31  C   UNL     1       5.627   6.231  16.820  0.00  0.00    +0.000 A 
ATOM     32  C   UNL     1       4.686   7.005  17.670  0.00  0.00    +0.000 C 
ATOM     33  H   UNL     1       7.315   7.527  16.517  0.00  0.00    +0.000 HD
ENDBRANCH  22  24
ENDBRANCH   4  19
TORSDOF 4
ENDMDL
MODEL 5
REMARK VINA RESULT:      -8.5      0.218      1.259
REMARK  Name = 
REMARK  4 active torsions:
REMARK  status: ('A' for Active; 'I' for Inactive)
REMARK    1  A    between atoms: N_3  and  C_4
REMARK    2  A    between atoms: N_10  and  C_11
REMARK    3  A    between atoms: C_14  and  C_15
REMARK    4  A    between atoms: C_18  and  C_19
REMARK                            x       y       z     vdW  Elec       q    Type
REMARK                         _______ _______ _______ _____ _____    ______ ____
ROOT
ATOM      1  C   UNL     1      -1.069  10.944  22.055  0.00  0.00    +0.000 A 
ATOM      2  C   UNL     1      -0.465   9.706  22.287  0.00  0.00    +0.000 A 
ATOM      3  C   UNL     1       0.344   9.109  21.322  0.00  0.00    +0.000 A 
ATOM      4  C   UNL     1       0.563   9.740  20.098  0.00  0.00    +0.000 A 
ATOM      5  C   UNL     1      -0.061  10.970  19.848  0.00  0.00    +0.000 A 
ATOM      6  C   UNL     1      -0.873  11.567  20.818  0.00  0.00    +0.000 A 
ENDROOT
BRANCH   1  10
ATOM      7  O   UNL     1      -3.609  12.277  21.631  0.00  0.00    +0.000 OA
ATOM      8  C   UNL     1      -3.070  12.257  22.730  0.00  0.00    +0.000 C 
ATOM      9  N   UNL     1      -3.557  12.920  23.843  0.00  0.00    +0.000 N 
ATOM     10  N   UNL     1      -1.878  11.608  23.001  0.00  0.00    +0.000 N 
ATOM     11  H   UNL     1      -2.937  13.007  24.633  0.00  0.00    +0.000 HD
ATOM     12  H   UNL     1      -1.593  11.548  23.965  0.00  0.00    +0.000 HD
BRANCH   9  13
ATOM     13  C   UNL     1      -4.711  13.732  23.855  0.00  0.00    +0.000 A 
ATOM     14  C   UNL     1      -4.671  15.133  23.842  0.00  0.00    +0.000 A 
ATOM     15  C   UNL     1      -5.840  15.886  23.931  0.00  0.00    +0.000 A 
ATOM     16  C   UNL     1      -7.071  15.245  24.019  0.00  0.00    +0.000 A 
ATOM     17  C   UNL     1      -7.130  13.853  23.997  0.00  0.00    +0.000 A 
ATOM     18  C   UNL     1      -5.957  13.097  23.905  0.00  0.00    +0.000 A 
ENDBRANCH   9  13
ENDBRANCH   1  10
BRANCH   4  19
ATOM     19  C   UNL     1       1.437   9.130  19.111  0.00  0.00    +0.000 A 
ATOM     20  N   UNL     1       1.585   9.589  17.857  0.00  0.00    +0.000 NA
ATOM     21  O   UNL     1       2.457   8.681  17.273  0.00  0.00    +0.000 OA
ATOM     22  C   UNL     1       2.751   7.763  18.234  0.00  0.00    +0.000 A 
ATOM     23  N   UNL     1       2.165   7.997  19.383  0.00  0.00    +0.000 NA
BRANCH  22  24
ATOM     24  C   UNL     1       3.587   6.615  17.823  0.00  0.00    +0.000 C 
ATOM     25  C   UNL     1       4.307   6.025  19.064  0.00  0.00    +0.000 C 
ATOM     26  C   UNL     1       5.037   4.722  18.696  0.00  0.00    +0.000 C 
ATOM     27  C   UNL     1       5.873   4.955  17.493  0.00  0.00    +0.000 A 
ATOM     28  C   UNL     1       7.001   4.292  16.984  0.00  0.00    +0.000 A 
ATOM     29  N   UNL     1       7.462   4.870  15.869  0.00  0.00    +0.000 NA
ATOM     30  N   UNL     1       6.628   5.909  15.668  0.00  0.00    +0.000 N 
ATOM     31  C   UNL     1       5.648   5.985  16.609  0.00  0.00    +0.000 A 
ATOM     32  C   UNL     1       4.591   7.024  16.713  0.00  0.00    +0.000 C 
ATOM     33  H   UNL     1       6.807   6.525  14.882  0.00  0.00    +0.000 HD
ENDBRANCH  22  24
ENDBRANCH   4  19
TORSDOF 4
ENDMDL
MODEL 6
REMARK VINA RESULT:      -8.5      2.759     12.230
REMARK  Name = 
REMARK  4 active torsions:
REMARK  status: ('A' for Active; 'I' for Inactive)
REMARK    1  A    between atoms: N_3  and  C_4
REMARK    2  A    between atoms: N_10  and  C_11
REMARK    3  A    between atoms: C_14  and  C_15
REMARK    4  A    between atoms: C_18  and  C_19
REMARK                            x       y       z     vdW  Elec       q    Type
REMARK                         _______ _______ _______ _____ _____    ______ ____
ROOT
ATOM      1  C   UNL     1       3.183   6.139  18.178  0.00  0.00    +0.000 A 
ATOM      2  C   UNL     1       2.762   7.390  17.718  0.00  0.00    +0.000 A 
ATOM      3  C   UNL     1       2.134   8.296  18.570  0.00  0.00    +0.000 A 
ATOM      4  C   UNL     1       1.909   7.966  19.906  0.00  0.00    +0.000 A 
ATOM      5  C   UNL     1       2.304   6.703  20.368  0.00  0.00    +0.000 A 
ATOM      6  C   UNL     1       2.935   5.796  19.511  0.00  0.00    +0.000 A 
ENDROOT
BRANCH   1  10
ATOM      7  O   UNL     1       5.067   6.614  16.025  0.00  0.00    +0.000 OA
ATOM      8  C   UNL     1       4.711   5.483  16.331  0.00  0.00    +0.000 C 
ATOM      9  N   UNL     1       5.095   4.342  15.648  0.00  0.00    +0.000 N 
ATOM     10  N   UNL     1       3.845   5.192  17.369  0.00  0.00    +0.000 N 
ATOM     11  H   UNL     1       4.590   3.494  15.852  0.00  0.00    +0.000 HD
ATOM     12  H   UNL     1       3.723   4.223  17.612  0.00  0.00    +0.000 HD
BRANCH   9  13
ATOM     13  C   UNL     1       5.910   4.329  14.495  0.00  0.00    +0.000 A 
ATOM     14  C   UNL     1       7.105   5.052  14.385  0.00  0.00    +0.000 A 
ATOM     15  C   UNL     1       7.831   5.063  13.196  0.00  0.00    +0.000 A 
ATOM     16  C   UNL     1       7.377   4.334  12.102  0.00  0.00    +0.000 A 
ATOM     17  C   UNL     1       6.209   3.582  12.207  0.00  0.00    +0.000 A 
ATOM     18  C   UNL     1       5.482   3.569  13.402  0.00  0.00    +0.000 A 
ENDBRANCH   9  13
ENDBRANCH   1  10
BRANCH   4  19
ATOM     19  C   UNL     1       1.287   8.928  20.798  0.00  0.00    +0.000 A 
ATOM     20  N   UNL     1       1.306   8.829  22.138  0.00  0.00    +0.000 NA
ATOM     21  O   UNL     1       0.557   9.918  22.562  0.00  0.00    +0.000 OA
ATOM     22  C   UNL     1       0.160  10.568  21.435  0.00  0.00    +0.000 A 
ATOM     23  N   UNL     1       0.590  10.015  20.327  0.00  0.00    +0.000 NA
BRANCH  22  24
ATOM     24  C   UNL     1      -0.754  11.716  21.618  0.00  0.00    +0.000 C 
ATOM     25  C   UNL     1      -1.535  11.552  22.948  0.00  0.00    +0.000 C 
ATOM     26  C   UNL     1      -2.355  12.817  23.253  0.00  0.00    +0.000 C 
ATOM     27  C   UNL     1      -3.153  13.181  22.055  0.00  0.00    +0.000 A 
ATOM     28  C   UNL     1      -4.320  13.946  21.894  0.00  0.00    +0.000 A 
ATOM     29  N   UNL     1      -4.717  13.988  20.618  0.00  0.00    +0.000 NA
ATOM     30  N   UNL     1      -3.805  13.244  19.962  0.00  0.00    +0.000 N 
ATOM     31  C   UNL     1      -2.837  12.757  20.785  0.00  0.00    +0.000 A 
ATOM     32  C   UNL     1      -1.706  11.872  20.404  0.00  0.00    +0.000 C 
ATOM     33  H   UNL     1      -3.925  13.104  18.964  0.00  0.00    +0.000 HD
ENDBRANCH  22  24
ENDBRANCH   4  19
TORSDOF 4
ENDMDL
MODEL 7
REMARK VINA RESULT:      -8.5      8.642     11.655
REMARK  Name = 
REMARK  4 active torsions:
REMARK  status: ('A' for Active; 'I' for Inactive)
REMARK    1  A    between atoms: N_3  and  C_4
REMARK    2  A    between atoms: N_10  and  C_11
REMARK    3  A    between atoms: C_14  and  C_15
REMARK    4  A    between atoms: C_18  and  C_19
REMARK                            x       y       z     vdW  Elec       q    Type
REMARK                         _______ _______ _______ _____ _____    ______ ____
ROOT
ATOM      1  C   UNL     1       6.873   6.828  17.652  0.00  0.00    +0.000 A 
ATOM      2  C   UNL     1       7.877   6.654  18.608  0.00  0.00    +0.000 A 
ATOM      3  C   UNL     1       8.680   7.719  19.009  0.00  0.00    +0.000 A 
ATOM      4  C   UNL     1       8.497   8.987  18.457  0.00  0.00    +0.000 A 
ATOM      5  C   UNL     1       7.510   9.164  17.479  0.00  0.00    +0.000 A 
ATOM      6  C   UNL     1       6.704   8.092  17.077  0.00  0.00    +0.000 A 
ENDROOT
BRANCH   1  10
ATOM      7  O   UNL     1       4.402   5.923  18.870  0.00  0.00    +0.000 OA
ATOM      8  C   UNL     1       4.860   5.385  17.870  0.00  0.00    +0.000 C 
ATOM      9  N   UNL     1       4.310   4.264  17.274  0.00  0.00    +0.000 N 
ATOM     10  N   UNL     1       6.014   5.795  17.224  0.00  0.00    +0.000 N 
ATOM     11  H   UNL     1       4.872   3.786  16.588  0.00  0.00    +0.000 HD
ATOM     12  H   UNL     1       6.227   5.363  16.340  0.00  0.00    +0.000 HD
BRANCH   9  13
ATOM     13  C   UNL     1       3.177   3.572  17.754  0.00  0.00    +0.000 A 
ATOM     14  C   UNL     1       1.878   4.095  17.717  0.00  0.00    +0.000 A 
ATOM     15  C   UNL     1       0.806   3.400  18.273  0.00  0.00    +0.000 A 
ATOM     16  C   UNL     1       1.020   2.159  18.864  0.00  0.00    +0.000 A 
ATOM     17  C   UNL     1       2.300   1.609  18.878  0.00  0.00    +0.000 A 
ATOM     18  C   UNL     1       3.375   2.306  18.315  0.00  0.00    +0.000 A 
ENDBRANCH   9  13
ENDBRANCH   1  10
BRANCH   4  19
ATOM     19  C   UNL     1       9.313  10.101  18.906  0.00  0.00    +0.000 A 
ATOM     20  N   UNL     1       9.566  10.371  20.198  0.00  0.00    +0.000 NA
ATOM     21  O   UNL     1      10.326  11.531  20.151  0.00  0.00    +0.000 OA
ATOM     22  C   UNL     1      10.457  11.848  18.835  0.00  0.00    +0.000 A 
ATOM     23  N   UNL     1       9.869  10.999  18.027  0.00  0.00    +0.000 NA
BRANCH  22  24
ATOM     24  C   UNL     1      11.141  13.121  18.522  0.00  0.00    +0.000 C 
ATOM     25  C   UNL     1      11.389  13.913  19.832  0.00  0.00    +0.000 C 
ATOM     26  C   UNL     1      12.259  15.152  19.559  0.00  0.00    +0.000 C 
ATOM     27  C   UNL     1      11.681  15.912  18.422  0.00  0.00    +0.000 A 
ATOM     28  C   UNL     1      11.803  17.253  18.024  0.00  0.00    +0.000 A 
ATOM     29  N   UNL     1      11.071  17.520  16.937  0.00  0.00    +0.000 NA
ATOM     30  N   UNL     1      10.476  16.348  16.643  0.00  0.00    +0.000 N 
ATOM     31  C   UNL     1      10.831  15.350  17.498  0.00  0.00    +0.000 A 
ATOM     32  C   UNL     1      10.335  13.950  17.489  0.00  0.00    +0.000 C 
ATOM     33  H   UNL     1       9.833  16.317  15.858  0.00  0.00    +0.000 HD
ENDBRANCH  22  24
ENDBRANCH   4  19
TORSDOF 4
ENDMDL
MODEL 8
REMARK VINA RESULT:      -8.4      2.476      3.052
REMARK  Name = 
REMARK  4 active torsions:
REMARK  status: ('A' for Active; 'I' for Inactive)
REMARK    1  A    between atoms: N_3  and  C_4
REMARK    2  A    between atoms: N_10  and  C_11
REMARK    3  A    between atoms: C_14  and  C_15
REMARK    4  A    between atoms: C_18  and  C_19
REMARK                            x       y       z     vdW  Elec       q    Type
REMARK                         _______ _______ _______ _____ _____    ______ ____
ROOT
ATOM      1  C   UNL     1      -0.804  11.098  21.971  0.00  0.00    +0.000 A 
ATOM      2  C   UNL     1      -0.757  11.331  20.595  0.00  0.00    +0.000 A 
ATOM      3  C   UNL     1       0.039  10.551  19.759  0.00  0.00    +0.000 A 
ATOM      4  C   UNL     1       0.813   9.518  20.287  0.00  0.00    +0.000 A 
ATOM      5  C   UNL     1       0.792   9.295  21.671  0.00  0.00    +0.000 A 
ATOM      6  C   UNL     1      -0.009  10.079  22.507  0.00  0.00    +0.000 A 
ENDROOT
BRANCH   1  10
ATOM      7  O   UNL     1      -0.767  13.951  22.482  0.00  0.00    +0.000 OA
ATOM      8  C   UNL     1      -1.521  13.200  23.088  0.00  0.00    +0.000 C 
ATOM      9  N   UNL     1      -2.358  13.605  24.113  0.00  0.00    +0.000 N 
ATOM     10  N   UNL     1      -1.609  11.837  22.862  0.00  0.00    +0.000 N 
ATOM     11  H   UNL     1      -2.779  12.882  24.674  0.00  0.00    +0.000 HD
ATOM     12  H   UNL     1      -2.352  11.339  23.325  0.00  0.00    +0.000 HD
BRANCH   9  13
ATOM     13  C   UNL     1      -2.429  14.920  24.621  0.00  0.00    +0.000 A 
ATOM     14  C   UNL     1      -3.428  15.835  24.262  0.00  0.00    +0.000 A 
ATOM     15  C   UNL     1      -3.407  17.145  24.737  0.00  0.00    +0.000 A 
ATOM     16  C   UNL     1      -2.390  17.554  25.593  0.00  0.00    +0.000 A 
ATOM     17  C   UNL     1      -1.409  16.646  25.987  0.00  0.00    +0.000 A 
ATOM     18  C   UNL     1      -1.432  15.330  25.513  0.00  0.00    +0.000 A 
ENDBRANCH   9  13
ENDBRANCH   1  10
BRANCH   4  19
ATOM     19  C   UNL     1       1.613   8.685  19.407  0.00  0.00    +0.000 A 
ATOM     20  N   UNL     1       2.099   9.096  18.224  0.00  0.00    +0.000 NA
ATOM     21  O   UNL     1       2.741   7.974  17.721  0.00  0.00    +0.000 OA
ATOM     22  C   UNL     1       2.580   6.994  18.652  0.00  0.00    +0.000 A 
ATOM     23  N   UNL     1       1.910   7.378  19.711  0.00  0.00    +0.000 NA
BRANCH  22  24
ATOM     24  C   UNL     1       3.088   5.651  18.297  0.00  0.00    +0.000 C 
ATOM     25  C   UNL     1       1.897   4.724  17.940  0.00  0.00    +0.000 C 
ATOM     26  C   UNL     1       2.405   3.379  17.393  0.00  0.00    +0.000 C 
ATOM     27  C   UNL     1       3.420   2.826  18.324  0.00  0.00    +0.000 A 
ATOM     28  C   UNL     1       3.892   1.522  18.541  0.00  0.00    +0.000 A 
ATOM     29  N   UNL     1       4.804   1.476  19.517  0.00  0.00    +0.000 NA
ATOM     30  N   UNL     1       4.913   2.754  19.929  0.00  0.00    +0.000 N 
ATOM     31  C   UNL     1       4.114   3.601  19.224  0.00  0.00    +0.000 A 
ATOM     32  C   UNL     1       3.956   5.063  19.440  0.00  0.00    +0.000 C 
ATOM     33  H   UNL     1       5.538   2.960  20.701  0.00  0.00    +0.000 HD
ENDBRANCH  22  24
ENDBRANCH   4  19
TORSDOF 4
ENDMDL
MODEL 9
REMARK VINA RESULT:      -8.3      2.251      2.769
REMARK  Name = 
REMARK  4 active torsions:
REMARK  status: ('A' for Active; 'I' for Inactive)
REMARK    1  A    between atoms: N_3  and  C_4
REMARK    2  A    between atoms: N_10  and  C_11
REMARK    3  A    between atoms: C_14  and  C_15
REMARK    4  A    between atoms: C_18  and  C_19
REMARK                            x       y       z     vdW  Elec       q    Type
REMARK                         _______ _______ _______ _____ _____    ______ ____
ROOT
ATOM      1  C   UNL     1      -2.484  12.102  19.274  0.00  0.00    +0.000 A 
ATOM      2  C   UNL     1      -2.537  11.052  18.354  0.00  0.00    +0.000 A 
ATOM      3  C   UNL     1      -1.403  10.300  18.055  0.00  0.00    +0.000 A 
ATOM      4  C   UNL     1      -0.185  10.586  18.671  0.00  0.00    +0.000 A 
ATOM      5  C   UNL     1      -0.118  11.654  19.576  0.00  0.00    +0.000 A 
ATOM      6  C   UNL     1      -1.258  12.408  19.874  0.00  0.00    +0.000 A 
ENDROOT
BRANCH   1  10
ATOM      7  O   UNL     1      -3.760  12.326  21.868  0.00  0.00    +0.000 OA
ATOM      8  C   UNL     1      -4.189  12.921  20.887  0.00  0.00    +0.000 C 
ATOM      9  N   UNL     1      -5.346  13.681  20.888  0.00  0.00    +0.000 N 
ATOM     10  N   UNL     1      -3.603  12.882  19.634  0.00  0.00    +0.000 N 
ATOM     11  H   UNL     1      -5.715  13.956  19.991  0.00  0.00    +0.000 HD
ATOM     12  H   UNL     1      -3.964  13.509  18.935  0.00  0.00    +0.000 HD
BRANCH   9  13
ATOM     13  C   UNL     1      -6.202  13.842  21.999  0.00  0.00    +0.000 A 
ATOM     14  C   UNL     1      -6.220  14.990  22.802  0.00  0.00    +0.000 A 
ATOM     15  C   UNL     1      -7.032  15.065  23.931  0.00  0.00    +0.000 A 
ATOM     16  C   UNL     1      -7.852  13.992  24.265  0.00  0.00    +0.000 A 
ATOM     17  C   UNL     1      -7.872  12.857  23.457  0.00  0.00    +0.000 A 
ATOM     18  C   UNL     1      -7.059  12.784  22.321  0.00  0.00    +0.000 A 
ENDBRANCH   9  13
ENDBRANCH   1  10
BRANCH   4  19
ATOM     19  C   UNL     1       0.985   9.775  18.384  0.00  0.00    +0.000 A 
ATOM     20  N   UNL     1       1.957  10.139  17.531  0.00  0.00    +0.000 NA
ATOM     21  O   UNL     1       2.823   9.055  17.533  0.00  0.00    +0.000 OA
ATOM     22  C   UNL     1       2.288   8.142  18.388  0.00  0.00    +0.000 A 
ATOM     23  N   UNL     1       1.170   8.536  18.949  0.00  0.00    +0.000 NA
BRANCH  22  24
ATOM     24  C   UNL     1       2.976   6.837  18.483  0.00  0.00    +0.000 C 
ATOM     25  C   UNL     1       4.066   6.743  17.383  0.00  0.00    +0.000 C 
ATOM     26  C   UNL     1       4.918   5.476  17.573  0.00  0.00    +0.000 C 
ATOM     27  C   UNL     1       4.020   4.303  17.720  0.00  0.00    +0.000 A 
ATOM     28  C   UNL     1       4.222   2.929  17.517  0.00  0.00    +0.000 A 
ATOM     29  N   UNL     1       3.110   2.221  17.742  0.00  0.00    +0.000 NA
ATOM     30  N   UNL     1       2.193   3.147  18.084  0.00  0.00    +0.000 N 
ATOM     31  C   UNL     1       2.703   4.409  18.102  0.00  0.00    +0.000 A 
ATOM     32  C   UNL     1       1.965   5.664  18.395  0.00  0.00    +0.000 C 
ATOM     33  H   UNL     1       1.244   2.839  18.271  0.00  0.00    +0.000 HD
ENDBRANCH  22  24
ENDBRANCH   4  19
TORSDOF 4
ENDMDL
