MODEL 1
REMARK VINA RESULT:      -8.5      0.000      0.000
REMARK  Name = 
REMARK  5 active torsions:
REMARK  status: ('A' for Active; 'I' for Inactive)
REMARK    1  A    between atoms: C_2  and  C_15
REMARK    2  A    between atoms: N_3  and  C_4
REMARK    3  A    between atoms: C_4  and  C_5
REMARK    4  A    between atoms: C_18  and  S_19
REMARK    5  A    between atoms: S_19  and  N_22
REMARK                            x       y       z     vdW  Elec       q    Type
REMARK                         _______ _______ _______ _____ _____    ______ ____
ROOT
ATOM      1  O   UNL     1       1.676   9.032  21.904  0.00  0.00    +0.000 OA
ATOM      2  C   UNL     1       1.237   8.630  20.837  0.00  0.00    +0.000 C 
ATOM      3  N   UNL     1       0.247   9.284  20.124  0.00  0.00    +0.000 N 
ATOM      4  H   UNL     1      -0.280   8.796  19.419  0.00  0.00    +0.000 HD
ENDROOT
BRANCH   2   5
ATOM      5  C   UNL     1       1.785   7.396  20.213  0.00  0.00    +0.000 A 
ATOM      6  C   UNL     1       2.311   7.465  18.923  0.00  0.00    +0.000 A 
ATOM      7  C   UNL     1       2.776   6.326  18.276  0.00  0.00    +0.000 A 
ATOM      8  C   UNL     1       2.741   5.083  18.935  0.00  0.00    +0.000 A 
ATOM      9  C   UNL     1       2.239   5.004  20.239  0.00  0.00    +0.000 A 
ATOM     10  C   UNL     1       1.746   6.157  20.873  0.00  0.00    +0.000 A 
BRANCH   8  11
ATOM     11  S   UNL     1       3.140   3.581  18.036  0.00  0.00    +0.000 S 
ATOM     12  O   UNL     1       3.177   2.508  19.019  0.00  0.00    +0.000 OA
ATOM     13  O   UNL     1       2.250   3.525  16.905  0.00  0.00    +0.000 OA
BRANCH  11  14
ATOM     14  N   UNL     1       4.733   3.842  17.467  0.00  0.00    +0.000 NA
ATOM     15  C   UNL     1       4.840   4.194  16.027  0.00  0.00    +0.000 C 
ATOM     16  C   UNL     1       6.291   4.235  15.558  0.00  0.00    +0.000 C 
ATOM     17  C   UNL     1       7.143   5.114  16.459  0.00  0.00    +0.000 C 
ATOM     18  C   UNL     1       7.064   4.623  17.897  0.00  0.00    +0.000 C 
ATOM     19  C   UNL     1       5.627   4.576  18.397  0.00  0.00    +0.000 C 
ENDBRANCH  11  14
ENDBRANCH   8  11
ENDBRANCH   2   5
BRANCH   3  20
ATOM     20  C   UNL     1      -0.412  10.461  20.654  0.00  0.00    +0.000 C 
BRANCH  20  21
ATOM     21  C   UNL     1      -0.230  11.686  19.738  0.00  0.00    +0.000 C 
ATOM     22  C   UNL     1      -1.160  12.839  20.115  0.00  0.00    +0.000 C 
ATOM     23  O   UNL     1      -2.539  12.481  19.977  0.00  0.00    +0.000 OA
ATOM     24  C   UNL     1      -2.774  11.785  18.819  0.00  0.00    +0.000 A 
ATOM     25  C   UNL     1      -4.107  11.592  18.462  0.00  0.00    +0.000 A 
ATOM     26  C   UNL     1      -4.419  10.870  17.308  0.00  0.00    +0.000 A 
ATOM     27  C   UNL     1      -3.401  10.335  16.518  0.00  0.00    +0.000 A 
ATOM     28  C   UNL     1      -2.066  10.522  16.878  0.00  0.00    +0.000 A 
ATOM     29  C   UNL     1      -1.757  11.235  18.035  0.00  0.00    +0.000 A 
ATOM     30  O   UNL     1      -0.427  11.322  18.358  0.00  0.00    +0.000 OA
ENDBRANCH  20  21
ENDBRANCH   3  20
TORSDOF 5
ENDMDL
MODEL 2
REMARK VINA RESULT:      -8.5      0.797      1.267
REMARK  Name = 
REMARK  5 active torsions:
REMARK  status: ('A' for Active; 'I' for Inactive)
REMARK    1  A    between atoms: C_2  and  C_15
REMARK    2  A    between atoms: N_3  and  C_4
REMARK    3  A    between atoms: C_4  and  C_5
REMARK    4  A    between atoms: C_18  and  S_19
REMARK    5  A    between atoms: S_19  and  N_22
REMARK                            x       y       z     vdW  Elec       q    Type
REMARK                         _______ _______ _______ _____ _____    ______ ____
ROOT
ATOM      1  O   UNL     1       1.557   9.231  21.878  0.00  0.00    +0.000 OA
ATOM      2  C   UNL     1       1.134   8.866  20.791  0.00  0.00    +0.000 C 
ATOM      3  N   UNL     1       0.120   9.517  20.109  0.00  0.00    +0.000 N 
ATOM      4  H   UNL     1      -0.388   9.043  19.379  0.00  0.00    +0.000 HD
ENDROOT
BRANCH   2   5
ATOM      5  C   UNL     1       1.730   7.688  20.107  0.00  0.00    +0.000 A 
ATOM      6  C   UNL     1       1.769   6.464  20.776  0.00  0.00    +0.000 A 
ATOM      7  C   UNL     1       2.373   5.351  20.202  0.00  0.00    +0.000 A 
ATOM      8  C   UNL     1       2.935   5.446  18.916  0.00  0.00    +0.000 A 
ATOM      9  C   UNL     1       2.880   6.661  18.223  0.00  0.00    +0.000 A 
ATOM     10  C   UNL     1       2.293   7.786  18.825  0.00  0.00    +0.000 A 
BRANCH   8  11
ATOM     11  S   UNL     1       3.899   4.082  18.258  0.00  0.00    +0.000 S 
ATOM     12  O   UNL     1       3.951   3.069  19.301  0.00  0.00    +0.000 OA
ATOM     13  O   UNL     1       3.360   3.783  16.955  0.00  0.00    +0.000 OA
BRANCH  11  14
ATOM     14  N   UNL     1       5.471   4.732  18.063  0.00  0.00    +0.000 NA
ATOM     15  C   UNL     1       5.696   5.472  16.795  0.00  0.00    +0.000 C 
ATOM     16  C   UNL     1       7.159   5.864  16.617  0.00  0.00    +0.000 C 
ATOM     17  C   UNL     1       7.695   6.589  17.843  0.00  0.00    +0.000 C 
ATOM     18  C   UNL     1       7.524   5.721  19.080  0.00  0.00    +0.000 C 
ATOM     19  C   UNL     1       6.071   5.317  19.288  0.00  0.00    +0.000 C 
ENDBRANCH  11  14
ENDBRANCH   8  11
ENDBRANCH   2   5
BRANCH   3  20
ATOM     20  C   UNL     1      -0.585  10.638  20.696  0.00  0.00    +0.000 C 
BRANCH  20  21
ATOM     21  C   UNL     1      -0.459  11.911  19.838  0.00  0.00    +0.000 C 
ATOM     22  C   UNL     1      -1.438  13.003  20.268  0.00  0.00    +0.000 C 
ATOM     23  O   UNL     1      -2.800  12.592  20.111  0.00  0.00    +0.000 OA
ATOM     24  C   UNL     1      -3.006  11.941  18.922  0.00  0.00    +0.000 A 
ATOM     25  C   UNL     1      -4.328  11.706  18.555  0.00  0.00    +0.000 A 
ATOM     26  C   UNL     1      -4.610  11.026  17.368  0.00  0.00    +0.000 A 
ATOM     27  C   UNL     1      -3.570  10.574  16.555  0.00  0.00    +0.000 A 
ATOM     28  C   UNL     1      -2.245  10.803  16.925  0.00  0.00    +0.000 A 
ATOM     29  C   UNL     1      -1.966  11.474  18.114  0.00  0.00    +0.000 A 
ATOM     30  O   UNL     1      -0.641  11.604  18.442  0.00  0.00    +0.000 OA
ENDBRANCH  20  21
ENDBRANCH   3  20
TORSDOF 5
ENDMDL
MODEL 3
REMARK VINA RESULT:      -8.5      2.641      4.010
REMARK  Name = 
REMARK  5 active torsions:
REMARK  status: ('A' for Active; 'I' for Inactive)
REMARK    1  A    between atoms: C_2  and  C_15
REMARK    2  A    between atoms: N_3  and  C_4
REMARK    3  A    between atoms: C_4  and  C_5
REMARK    4  A    between atoms: C_18  and  S_19
REMARK    5  A    between atoms: S_19  and  N_22
REMARK                            x       y       z     vdW  Elec       q    Type
REMARK                         _______ _______ _______ _____ _____    ______ ____
ROOT
ATOM      1  O   UNL     1       1.457   5.480  20.383  0.00  0.00    +0.000 OA
ATOM      2  C   UNL     1       2.167   6.410  20.029  0.00  0.00    +0.000 C 
ATOM      3  N   UNL     1       1.987   7.714  20.456  0.00  0.00    +0.000 N 
ATOM      4  H   UNL     1       2.392   8.479  19.941  0.00  0.00    +0.000 HD
ENDROOT
BRANCH   2   5
ATOM      5  C   UNL     1       3.320   6.173  19.120  0.00  0.00    +0.000 A 
ATOM      6  C   UNL     1       4.254   5.192  19.451  0.00  0.00    +0.000 A 
ATOM      7  C   UNL     1       5.381   4.979  18.665  0.00  0.00    +0.000 A 
ATOM      8  C   UNL     1       5.576   5.744  17.501  0.00  0.00    +0.000 A 
ATOM      9  C   UNL     1       4.633   6.714  17.143  0.00  0.00    +0.000 A 
ATOM     10  C   UNL     1       3.513   6.941  17.960  0.00  0.00    +0.000 A 
BRANCH   8  11
ATOM     11  S   UNL     1       7.125   5.624  16.600  0.00  0.00    +0.000 S 
ATOM     12  O   UNL     1       7.668   6.972  16.528  0.00  0.00    +0.000 OA
ATOM     13  O   UNL     1       7.873   4.550  17.201  0.00  0.00    +0.000 OA
BRANCH  11  14
ATOM     14  N   UNL     1       6.657   5.149  15.023  0.00  0.00    +0.000 NA
ATOM     15  C   UNL     1       7.746   5.153  14.012  0.00  0.00    +0.000 C 
ATOM     16  C   UNL     1       7.218   4.893  12.605  0.00  0.00    +0.000 C 
ATOM     17  C   UNL     1       6.353   3.643  12.557  0.00  0.00    +0.000 C 
ATOM     18  C   UNL     1       5.201   3.764  13.543  0.00  0.00    +0.000 C 
ATOM     19  C   UNL     1       5.697   4.018  14.960  0.00  0.00    +0.000 C 
ENDBRANCH  11  14
ENDBRANCH   8  11
ENDBRANCH   2   5
BRANCH   3  20
ATOM     20  C   UNL     1       0.863   8.086  21.292  0.00  0.00    +0.000 C 
BRANCH  20  21
ATOM     21  C   UNL     1       1.236   9.186  22.304  0.00  0.00    +0.000 C 
ATOM     22  C   UNL     1       0.058   9.582  23.194  0.00  0.00    +0.000 C 
ATOM     23  O   UNL     1      -1.022  10.137  22.435  0.00  0.00    +0.000 OA
ATOM     24  C   UNL     1      -0.579  11.016  21.480  0.00  0.00    +0.000 A 
ATOM     25  C   UNL     1      -1.546  11.792  20.844  0.00  0.00    +0.000 A 
ATOM     26  C   UNL     1      -1.168  12.690  19.844  0.00  0.00    +0.000 A 
ATOM     27  C   UNL     1       0.173  12.806  19.475  0.00  0.00    +0.000 A 
ATOM     28  C   UNL     1       1.140  12.025  20.106  0.00  0.00    +0.000 A 
ATOM     29  C   UNL     1       0.761  11.123  21.098  0.00  0.00    +0.000 A 
ATOM     30  O   UNL     1       1.758  10.345  21.626  0.00  0.00    +0.000 OA
ENDBRANCH  20  21
ENDBRANCH   3  20
TORSDOF 5
ENDMDL
MODEL 4
REMARK VINA RESULT:      -8.5      0.548      1.398
REMARK  Name = 
REMARK  5 active torsions:
REMARK  status: ('A' for Active; 'I' for Inactive)
REMARK    1  A    between atoms: C_2  and  C_15
REMARK    2  A    between atoms: N_3  and  C_4
REMARK    3  A    between atoms: C_4  and  C_5
REMARK    4  A    between atoms: C_18  and  S_19
REMARK    5  A    between atoms: S_19  and  N_22
REMARK                            x       y       z     vdW  Elec       q    Type
REMARK                         _______ _______ _______ _____ _____    ______ ____
ROOT
ATOM      1  O   UNL     1       1.567   9.246  21.946  0.00  0.00    +0.000 OA
ATOM      2  C   UNL     1       1.128   8.860  20.872  0.00  0.00    +0.000 C 
ATOM      3  N   UNL     1       0.136   9.523  20.170  0.00  0.00    +0.000 N 
ATOM      4  H   UNL     1      -0.390   9.044  19.457  0.00  0.00    +0.000 HD
ENDROOT
BRANCH   2   5
ATOM      5  C   UNL     1       1.681   7.639  20.227  0.00  0.00    +0.000 A 
ATOM      6  C   UNL     1       1.579   6.417  20.891  0.00  0.00    +0.000 A 
ATOM      7  C   UNL     1       2.138   5.261  20.357  0.00  0.00    +0.000 A 
ATOM      8  C   UNL     1       2.796   5.312  19.115  0.00  0.00    +0.000 A 
ATOM      9  C   UNL     1       2.883   6.527  18.426  0.00  0.00    +0.000 A 
ATOM     10  C   UNL     1       2.341   7.694  18.989  0.00  0.00    +0.000 A 
BRANCH   8  11
ATOM     11  S   UNL     1       3.699   3.878  18.521  0.00  0.00    +0.000 S 
ATOM     12  O   UNL     1       4.385   3.313  19.673  0.00  0.00    +0.000 OA
ATOM     13  O   UNL     1       2.770   3.093  17.749  0.00  0.00    +0.000 OA
BRANCH  11  14
ATOM     14  N   UNL     1       4.875   4.531  17.462  0.00  0.00    +0.000 NA
ATOM     15  C   UNL     1       6.248   4.622  18.021  0.00  0.00    +0.000 C 
ATOM     16  C   UNL     1       7.194   5.373  17.090  0.00  0.00    +0.000 C 
ATOM     17  C   UNL     1       7.152   4.805  15.679  0.00  0.00    +0.000 C 
ATOM     18  C   UNL     1       5.731   4.846  15.139  0.00  0.00    +0.000 C 
ATOM     19  C   UNL     1       4.762   4.100  16.046  0.00  0.00    +0.000 C 
ENDBRANCH  11  14
ENDBRANCH   8  11
ENDBRANCH   2   5
BRANCH   3  20
ATOM     20  C   UNL     1      -0.528  10.688  20.720  0.00  0.00    +0.000 C 
BRANCH  20  21
ATOM     21  C   UNL     1      -0.391  11.917  19.801  0.00  0.00    +0.000 C 
ATOM     22  C   UNL     1      -1.361  13.036  20.177  0.00  0.00    +0.000 C 
ATOM     23  O   UNL     1      -2.727  12.628  20.041  0.00  0.00    +0.000 OA
ATOM     24  C   UNL     1      -2.938  11.922  18.884  0.00  0.00    +0.000 A 
ATOM     25  C   UNL     1      -4.262  11.681  18.529  0.00  0.00    +0.000 A 
ATOM     26  C   UNL     1      -4.550  10.946  17.376  0.00  0.00    +0.000 A 
ATOM     27  C   UNL     1      -3.513  10.447  16.586  0.00  0.00    +0.000 A 
ATOM     28  C   UNL     1      -2.186  10.682  16.945  0.00  0.00    +0.000 A 
ATOM     29  C   UNL     1      -1.902  11.408  18.100  0.00  0.00    +0.000 A 
ATOM     30  O   UNL     1      -0.576  11.543  18.422  0.00  0.00    +0.000 OA
ENDBRANCH  20  21
ENDBRANCH   3  20
TORSDOF 5
ENDMDL
MODEL 5
REMARK VINA RESULT:      -8.3      2.990      4.164
REMARK  Name = 
REMARK  5 active torsions:
REMARK  status: ('A' for Active; 'I' for Inactive)
REMARK    1  A    between atoms: C_2  and  C_15
REMARK    2  A    between atoms: N_3  and  C_4
REMARK    3  A    between atoms: C_4  and  C_5
REMARK    4  A    between atoms: C_18  and  S_19
REMARK    5  A    between atoms: S_19  and  N_22
REMARK                            x       y       z     vdW  Elec       q    Type
REMARK                         _______ _______ _______ _____ _____    ______ ____
ROOT
ATOM      1  O   UNL     1      -0.827  10.022  19.419  0.00  0.00    +0.000 OA
ATOM      2  C   UNL     1       0.311  10.226  19.022  0.00  0.00    +0.000 C 
ATOM      3  N   UNL     1       0.780  11.478  18.660  0.00  0.00    +0.000 N 
ATOM      4  H   UNL     1       1.601  11.566  18.083  0.00  0.00    +0.000 HD
ENDROOT
BRANCH   2   5
ATOM      5  C   UNL     1       1.292   9.111  18.939  0.00  0.00    +0.000 A 
ATOM      6  C   UNL     1       2.012   8.929  17.759  0.00  0.00    +0.000 A 
ATOM      7  C   UNL     1       2.893   7.863  17.613  0.00  0.00    +0.000 A 
ATOM      8  C   UNL     1       3.084   6.963  18.677  0.00  0.00    +0.000 A 
ATOM      9  C   UNL     1       2.386   7.149  19.876  0.00  0.00    +0.000 A 
ATOM     10  C   UNL     1       1.478   8.213  20.002  0.00  0.00    +0.000 A 
BRANCH   8  11
ATOM     11  S   UNL     1       4.051   5.472  18.425  0.00  0.00    +0.000 S 
ATOM     12  O   UNL     1       4.260   5.349  16.990  0.00  0.00    +0.000 OA
ATOM     13  O   UNL     1       5.165   5.540  19.336  0.00  0.00    +0.000 OA
BRANCH  11  14
ATOM     14  N   UNL     1       3.013   4.206  18.926  0.00  0.00    +0.000 NA
ATOM     15  C   UNL     1       2.934   3.997  20.395  0.00  0.00    +0.000 C 
ATOM     16  C   UNL     1       2.135   2.748  20.750  0.00  0.00    +0.000 C 
ATOM     17  C   UNL     1       0.776   2.743  20.065  0.00  0.00    +0.000 C 
ATOM     18  C   UNL     1       0.949   2.852  18.558  0.00  0.00    +0.000 C 
ATOM     19  C   UNL     1       1.740   4.095  18.171  0.00  0.00    +0.000 C 
ENDBRANCH  11  14
ENDBRANCH   8  11
ENDBRANCH   2   5
BRANCH   3  20
ATOM     20  C   UNL     1      -0.094  12.633  18.637  0.00  0.00    +0.000 C 
BRANCH  20  21
ATOM     21  C   UNL     1       0.358  13.719  19.631  0.00  0.00    +0.000 C 
ATOM     22  C   UNL     1       1.311  13.174  20.694  0.00  0.00    +0.000 C 
ATOM     23  O   UNL     1       0.690  12.171  21.506  0.00  0.00    +0.000 OA
ATOM     24  C   UNL     1      -0.584  12.523  21.869  0.00  0.00    +0.000 A 
ATOM     25  C   UNL     1      -1.197  11.743  22.847  0.00  0.00    +0.000 A 
ATOM     26  C   UNL     1      -2.504  12.029  23.246  0.00  0.00    +0.000 A 
ATOM     27  C   UNL     1      -3.200  13.089  22.662  0.00  0.00    +0.000 A 
ATOM     28  C   UNL     1      -2.590  13.866  21.678  0.00  0.00    +0.000 A 
ATOM     29  C   UNL     1      -1.289  13.573  21.274  0.00  0.00    +0.000 A 
ATOM     30  O   UNL     1      -0.781  14.340  20.258  0.00  0.00    +0.000 OA
ENDBRANCH  20  21
ENDBRANCH   3  20
TORSDOF 5
ENDMDL
MODEL 6
REMARK VINA RESULT:      -8.1      3.063      4.163
REMARK  Name = 
REMARK  5 active torsions:
REMARK  status: ('A' for Active; 'I' for Inactive)
REMARK    1  A    between atoms: C_2  and  C_15
REMARK    2  A    between atoms: N_3  and  C_4
REMARK    3  A    between atoms: C_4  and  C_5
REMARK    4  A    between atoms: C_18  and  S_19
REMARK    5  A    between atoms: S_19  and  N_22
REMARK                            x       y       z     vdW  Elec       q    Type
REMARK                         _______ _______ _______ _____ _____    ______ ____
ROOT
ATOM      1  O   UNL     1      -0.786  10.444  18.636  0.00  0.00    +0.000 OA
ATOM      2  C   UNL     1       0.429  10.577  18.668  0.00  0.00    +0.000 C 
ATOM      3  N   UNL     1       1.062  11.808  18.698  0.00  0.00    +0.000 N 
ATOM      4  H   UNL     1       2.032  11.889  18.439  0.00  0.00    +0.000 HD
ENDROOT
BRANCH   2   5
ATOM      5  C   UNL     1       1.316   9.385  18.712  0.00  0.00    +0.000 A 
ATOM      6  C   UNL     1       2.059   9.050  17.580  0.00  0.00    +0.000 A 
ATOM      7  C   UNL     1       2.852   7.909  17.553  0.00  0.00    +0.000 A 
ATOM      8  C   UNL     1       2.933   7.086  18.692  0.00  0.00    +0.000 A 
ATOM      9  C   UNL     1       2.213   7.425  19.844  0.00  0.00    +0.000 A 
ATOM     10  C   UNL     1       1.392   8.564  19.849  0.00  0.00    +0.000 A 
BRANCH   8  11
ATOM     11  S   UNL     1       3.782   5.507  18.598  0.00  0.00    +0.000 S 
ATOM     12  O   UNL     1       4.037   5.257  17.187  0.00  0.00    +0.000 OA
ATOM     13  O   UNL     1       4.860   5.557  19.552  0.00  0.00    +0.000 OA
BRANCH  11  14
ATOM     14  N   UNL     1       2.621   4.372  19.142  0.00  0.00    +0.000 NA
ATOM     15  C   UNL     1       1.814   3.731  18.073  0.00  0.00    +0.000 C 
ATOM     16  C   UNL     1       0.690   2.874  18.646  0.00  0.00    +0.000 C 
ATOM     17  C   UNL     1       1.213   1.889  19.681  0.00  0.00    +0.000 C 
ATOM     18  C   UNL     1       1.932   2.634  20.795  0.00  0.00    +0.000 C 
ATOM     19  C   UNL     1       3.066   3.496  20.255  0.00  0.00    +0.000 C 
ENDBRANCH  11  14
ENDBRANCH   8  11
ENDBRANCH   2   5
BRANCH   3  20
ATOM     20  C   UNL     1       0.312  13.045  18.595  0.00  0.00    +0.000 C 
BRANCH  20  21
ATOM     21  C   UNL     1       0.690  14.042  19.706  0.00  0.00    +0.000 C 
ATOM     22  C   UNL     1       1.610  13.421  20.757  0.00  0.00    +0.000 C 
ATOM     23  O   UNL     1       0.981  12.333  21.443  0.00  0.00    +0.000 OA
ATOM     24  C   UNL     1      -0.317  12.619  21.777  0.00  0.00    +0.000 A 
ATOM     25  C   UNL     1      -0.951  11.736  22.648  0.00  0.00    +0.000 A 
ATOM     26  C   UNL     1      -2.282  11.953  23.011  0.00  0.00    +0.000 A 
ATOM     27  C   UNL     1      -2.980  13.047  22.496  0.00  0.00    +0.000 A 
ATOM     28  C   UNL     1      -2.349  13.927  21.618  0.00  0.00    +0.000 A 
ATOM     29  C   UNL     1      -1.023  13.704  21.250  0.00  0.00    +0.000 A 
ATOM     30  O   UNL     1      -0.492  14.575  20.334  0.00  0.00    +0.000 OA
ENDBRANCH  20  21
ENDBRANCH   3  20
TORSDOF 5
ENDMDL
MODEL 7
REMARK VINA RESULT:      -8.1      3.154      4.218
REMARK  Name = 
REMARK  5 active torsions:
REMARK  status: ('A' for Active; 'I' for Inactive)
REMARK    1  A    between atoms: C_2  and  C_15
REMARK    2  A    between atoms: N_3  and  C_4
REMARK    3  A    between atoms: C_4  and  C_5
REMARK    4  A    between atoms: C_18  and  S_19
REMARK    5  A    between atoms: S_19  and  N_22
REMARK                            x       y       z     vdW  Elec       q    Type
REMARK                         _______ _______ _______ _____ _____    ______ ____
ROOT
ATOM      1  O   UNL     1      -0.455  11.324  20.222  0.00  0.00    +0.000 OA
ATOM      2  C   UNL     1       0.455  11.151  19.424  0.00  0.00    +0.000 C 
ATOM      3  N   UNL     1       0.931  12.142  18.583  0.00  0.00    +0.000 N 
ATOM      4  H   UNL     1       1.465  11.901  17.764  0.00  0.00    +0.000 HD
ENDROOT
BRANCH   2   5
ATOM      5  C   UNL     1       1.142   9.835  19.339  0.00  0.00    +0.000 A 
ATOM      6  C   UNL     1       1.762   9.469  18.144  0.00  0.00    +0.000 A 
ATOM      7  C   UNL     1       2.361   8.223  17.998  0.00  0.00    +0.000 A 
ATOM      8  C   UNL     1       2.368   7.320  19.076  0.00  0.00    +0.000 A 
ATOM      9  C   UNL     1       1.772   7.684  20.289  0.00  0.00    +0.000 A 
ATOM     10  C   UNL     1       1.145   8.934  20.417  0.00  0.00    +0.000 A 
BRANCH   8  11
ATOM     11  S   UNL     1       2.949   5.639  18.832  0.00  0.00    +0.000 S 
ATOM     12  O   UNL     1       2.947   5.005  20.142  0.00  0.00    +0.000 OA
ATOM     13  O   UNL     1       2.188   5.091  17.738  0.00  0.00    +0.000 OA
BRANCH  11  14
ATOM     14  N   UNL     1       4.574   5.824  18.328  0.00  0.00    +0.000 NA
ATOM     15  C   UNL     1       5.592   5.264  19.254  0.00  0.00    +0.000 C 
ATOM     16  C   UNL     1       7.011   5.624  18.826  0.00  0.00    +0.000 C 
ATOM     17  C   UNL     1       7.260   5.269  17.368  0.00  0.00    +0.000 C 
ATOM     18  C   UNL     1       6.244   5.967  16.478  0.00  0.00    +0.000 C 
ATOM     19  C   UNL     1       4.815   5.622  16.877  0.00  0.00    +0.000 C 
ENDBRANCH  11  14
ENDBRANCH   8  11
ENDBRANCH   2   5
BRANCH   3  20
ATOM     20  C   UNL     1       0.305  13.447  18.525  0.00  0.00    +0.000 C 
BRANCH  20  21
ATOM     21  C   UNL     1       0.778  14.365  19.668  0.00  0.00    +0.000 C 
ATOM     22  C   UNL     1      -0.387  15.009  20.417  0.00  0.00    +0.000 C 
ATOM     23  O   UNL     1      -1.166  15.858  19.567  0.00  0.00    +0.000 OA
ATOM     24  C   UNL     1      -0.378  16.638  18.760  0.00  0.00    +0.000 A 
ATOM     25  C   UNL     1      -1.012  17.665  18.065  0.00  0.00    +0.000 A 
ATOM     26  C   UNL     1      -0.274  18.482  17.206  0.00  0.00    +0.000 A 
ATOM     27  C   UNL     1       1.094  18.265  17.035  0.00  0.00    +0.000 A 
ATOM     28  C   UNL     1       1.728  17.233  17.725  0.00  0.00    +0.000 A 
ATOM     29  C   UNL     1       0.989  16.414  18.575  0.00  0.00    +0.000 A 
ATOM     30  O   UNL     1       1.669  15.381  19.168  0.00  0.00    +0.000 OA
ENDBRANCH  20  21
ENDBRANCH   3  20
TORSDOF 5
ENDMDL
MODEL 8
REMARK VINA RESULT:      -8.1      3.181     10.062
REMARK  Name = 
REMARK  5 active torsions:
REMARK  status: ('A' for Active; 'I' for Inactive)
REMARK    1  A    between atoms: C_2  and  C_15
REMARK    2  A    between atoms: N_3  and  C_4
REMARK    3  A    between atoms: C_4  and  C_5
REMARK    4  A    between atoms: C_18  and  S_19
REMARK    5  A    between atoms: S_19  and  N_22
REMARK                            x       y       z     vdW  Elec       q    Type
REMARK                         _______ _______ _______ _____ _____    ______ ____
ROOT
ATOM      1  O   UNL     1       1.878   9.527  17.501  0.00  0.00    +0.000 OA
ATOM      2  C   UNL     1       1.662   9.016  18.591  0.00  0.00    +0.000 C 
ATOM      3  N   UNL     1       2.184   7.794  18.978  0.00  0.00    +0.000 N 
ATOM      4  H   UNL     1       1.770   7.282  19.740  0.00  0.00    +0.000 HD
ENDROOT
BRANCH   2   5
ATOM      5  C   UNL     1       0.830   9.721  19.601  0.00  0.00    +0.000 A 
ATOM      6  C   UNL     1      -0.024  10.742  19.184  0.00  0.00    +0.000 A 
ATOM      7  C   UNL     1      -0.773  11.471  20.100  0.00  0.00    +0.000 A 
ATOM      8  C   UNL     1      -0.693  11.164  21.471  0.00  0.00    +0.000 A 
ATOM      9  C   UNL     1       0.140  10.125  21.901  0.00  0.00    +0.000 A 
ATOM     10  C   UNL     1       0.914   9.414  20.969  0.00  0.00    +0.000 A 
BRANCH   8  11
ATOM     11  S   UNL     1      -1.489  12.231  22.675  0.00  0.00    +0.000 S 
ATOM     12  O   UNL     1      -2.325  11.373  23.502  0.00  0.00    +0.000 OA
ATOM     13  O   UNL     1      -0.454  13.046  23.258  0.00  0.00    +0.000 OA
BRANCH  11  14
ATOM     14  N   UNL     1      -2.512  13.234  21.738  0.00  0.00    +0.000 NA
ATOM     15  C   UNL     1      -3.955  12.881  21.778  0.00  0.00    +0.000 C 
ATOM     16  C   UNL     1      -4.770  13.702  20.785  0.00  0.00    +0.000 C 
ATOM     17  C   UNL     1      -4.508  15.192  20.947  0.00  0.00    +0.000 C 
ATOM     18  C   UNL     1      -3.024  15.483  20.785  0.00  0.00    +0.000 C 
ATOM     19  C   UNL     1      -2.182  14.681  21.768  0.00  0.00    +0.000 C 
ENDBRANCH  11  14
ENDBRANCH   8  11
ENDBRANCH   2   5
BRANCH   3  20
ATOM     20  C   UNL     1       2.958   6.980  18.062  0.00  0.00    +0.000 C 
BRANCH  20  21
ATOM     21  C   UNL     1       2.885   5.483  18.418  0.00  0.00    +0.000 C 
ATOM     22  C   UNL     1       3.714   5.137  19.654  0.00  0.00    +0.000 C 
ATOM     23  O   UNL     1       5.108   5.397  19.453  0.00  0.00    +0.000 OA
ATOM     24  C   UNL     1       5.535   4.972  18.221  0.00  0.00    +0.000 A 
ATOM     25  C   UNL     1       6.911   4.954  18.006  0.00  0.00    +0.000 A 
ATOM     26  C   UNL     1       7.415   4.556  16.765  0.00  0.00    +0.000 A 
ATOM     27  C   UNL     1       6.544   4.185  15.740  0.00  0.00    +0.000 A 
ATOM     28  C   UNL     1       5.165   4.209  15.953  0.00  0.00    +0.000 A 
ATOM     29  C   UNL     1       4.664   4.614  17.188  0.00  0.00    +0.000 A 
ATOM     30  O   UNL     1       3.299   4.674  17.300  0.00  0.00    +0.000 OA
ENDBRANCH  20  21
ENDBRANCH   3  20
TORSDOF 5
ENDMDL
MODEL 9
REMARK VINA RESULT:      -8.0      2.499      8.954
REMARK  Name = 
REMARK  5 active torsions:
REMARK  status: ('A' for Active; 'I' for Inactive)
REMARK    1  A    between atoms: C_2  and  C_15
REMARK    2  A    between atoms: N_3  and  C_4
REMARK    3  A    between atoms: C_4  and  C_5
REMARK    4  A    between atoms: C_18  and  S_19
REMARK    5  A    between atoms: S_19  and  N_22
REMARK                            x       y       z     vdW  Elec       q    Type
REMARK                         _______ _______ _______ _____ _____    ______ ____
ROOT
ATOM      1  O   UNL     1       2.639   4.870  19.511  0.00  0.00    +0.000 OA
ATOM      2  C   UNL     1       3.215   5.942  19.398  0.00  0.00    +0.000 C 
ATOM      3  N   UNL     1       4.589   6.063  19.279  0.00  0.00    +0.000 N 
ATOM      4  H   UNL     1       5.041   6.941  19.472  0.00  0.00    +0.000 HD
ENDROOT
BRANCH   2   5
ATOM      5  C   UNL     1       2.440   7.210  19.346  0.00  0.00    +0.000 A 
ATOM      6  C   UNL     1       2.490   7.989  18.190  0.00  0.00    +0.000 A 
ATOM      7  C   UNL     1       1.834   9.213  18.119  0.00  0.00    +0.000 A 
ATOM      8  C   UNL     1       1.085   9.669  19.219  0.00  0.00    +0.000 A 
ATOM      9  C   UNL     1       1.004   8.886  20.376  0.00  0.00    +0.000 A 
ATOM     10  C   UNL     1       1.695   7.664  20.446  0.00  0.00    +0.000 A 
BRANCH   8  11
ATOM     11  S   UNL     1       0.412  11.334  19.215  0.00  0.00    +0.000 S 
ATOM     12  O   UNL     1       0.133  11.671  20.603  0.00  0.00    +0.000 OA
ATOM     13  O   UNL     1       1.301  12.139  18.417  0.00  0.00    +0.000 OA
BRANCH  11  14
ATOM     14  N   UNL     1      -1.080  11.183  18.389  0.00  0.00    +0.000 NA
ATOM     15  C   UNL     1      -1.258   9.918  17.631  0.00  0.00    +0.000 C 
ATOM     16  C   UNL     1      -2.526   9.936  16.783  0.00  0.00    +0.000 C 
ATOM     17  C   UNL     1      -3.743  10.321  17.611  0.00  0.00    +0.000 C 
ATOM     18  C   UNL     1      -3.523  11.675  18.267  0.00  0.00    +0.000 C 
ATOM     19  C   UNL     1      -2.266  11.688  19.125  0.00  0.00    +0.000 C 
ENDBRANCH  11  14
ENDBRANCH   8  11
ENDBRANCH   2   5
BRANCH   3  20
ATOM     20  C   UNL     1       5.459   4.908  19.378  0.00  0.00    +0.000 C 
BRANCH  20  21
ATOM     21  C   UNL     1       6.874   5.206  18.849  0.00  0.00    +0.000 C 
ATOM     22  C   UNL     1       7.015   6.638  18.335  0.00  0.00    +0.000 C 
ATOM     23  O   UNL     1       6.148   6.895  17.224  0.00  0.00    +0.000 OA
ATOM     24  C   UNL     1       6.147   5.860  16.325  0.00  0.00    +0.000 A 
ATOM     25  C   UNL     1       5.532   6.094  15.098  0.00  0.00    +0.000 A 
ATOM     26  C   UNL     1       5.472   5.075  14.144  0.00  0.00    +0.000 A 
ATOM     27  C   UNL     1       6.019   3.822  14.422  0.00  0.00    +0.000 A 
ATOM     28  C   UNL     1       6.629   3.584  15.654  0.00  0.00    +0.000 A 
ATOM     29  C   UNL     1       6.680   4.599  16.606  0.00  0.00    +0.000 A 
ATOM     30  O   UNL     1       7.238   4.270  17.815  0.00  0.00    +0.000 OA
ENDBRANCH  20  21
ENDBRANCH   3  20
TORSDOF 5
ENDMDL
