MODEL 1
REMARK VINA RESULT:      -9.6      0.000      0.000
REMARK  Name = 
REMARK  3 active torsions:
REMARK  status: ('A' for Active; 'I' for Inactive)
REMARK    1  A    between atoms: C_2  and  C_3
REMARK    2  A    between atoms: N_17  and  C_18
REMARK    3  A    between atoms: C_22  and  C_23
REMARK                            x       y       z     vdW  Elec       q    Type
REMARK                         _______ _______ _______ _____ _____    ______ ____
ROOT
ATOM      1  O   UNL     1       5.140   3.677  18.745  0.00  0.00    +0.000 OA
ATOM      2  C   UNL     1       5.003   4.653  18.010  0.00  0.00    +0.000 C 
ATOM      3  N   UNL     1       4.130   5.692  18.359  0.00  0.00    +0.000 N 
ATOM      4  C   UNL     1       3.645   5.757  19.751  0.00  0.00    +0.000 C 
ATOM      5  C   UNL     1       2.154   6.128  19.835  0.00  0.00    +0.000 C 
ATOM      6  N   UNL     1       1.859   7.338  19.048  0.00  0.00    +0.000 N 
ATOM      7  C   UNL     1       2.290   7.272  17.649  0.00  0.00    +0.000 C 
ATOM      8  C   UNL     1       3.767   6.877  17.557  0.00  0.00    +0.000 C 
ENDROOT
BRANCH   2   9
ATOM      9  C   UNL     1       5.802   4.734  16.746  0.00  0.00    +0.000 A 
ATOM     10  C   UNL     1       5.247   4.311  15.608  0.00  0.00    +0.000 A 
ATOM     11  C   UNL     1       5.987   4.256  14.367  0.00  0.00    +0.000 A 
ATOM     12  C   UNL     1       5.560   3.474  13.293  0.00  0.00    +0.000 A 
ATOM     13  C   UNL     1       6.245   3.539  12.077  0.00  0.00    +0.000 A 
ATOM     14  C   UNL     1       7.341   4.389  11.948  0.00  0.00    +0.000 A 
ATOM     15  C   UNL     1       7.803   5.127  13.046  0.00  0.00    +0.000 A 
ATOM     16  C   UNL     1       7.131   5.022  14.258  0.00  0.00    +0.000 A 
ATOM     17  O   UNL     1       7.645   5.668  15.398  0.00  0.00    +0.000 OA
ATOM     18  C   UNL     1       7.113   5.448  16.684  0.00  0.00    +0.000 A 
ATOM     19  O   UNL     1       7.717   5.840  17.672  0.00  0.00    +0.000 OA
ENDBRANCH   2   9
BRANCH   6  20
ATOM     20  C   UNL     1       1.470   8.540  19.600  0.00  0.00    +0.000 A 
ATOM     21  C   UNL     1       1.613   9.761  18.931  0.00  0.00    +0.000 A 
ATOM     22  C   UNL     1       1.220  10.970  19.517  0.00  0.00    +0.000 A 
ATOM     23  C   UNL     1       0.671  10.985  20.796  0.00  0.00    +0.000 A 
ATOM     24  C   UNL     1       0.510   9.790  21.500  0.00  0.00    +0.000 A 
ATOM     25  C   UNL     1       0.915   8.587  20.891  0.00  0.00    +0.000 A 
BRANCH  24  26
ATOM     26  C   UNL     1      -0.081   9.755  22.884  0.00  0.00    +0.000 C 
ATOM     27  F   UNL     1      -0.653  10.931  23.264  0.00  0.00    +0.000 F 
ATOM     28  F   UNL     1      -1.057   8.811  23.007  0.00  0.00    +0.000 F 
ATOM     29  F   UNL     1       0.841   9.462  23.841  0.00  0.00    +0.000 F 
ENDBRANCH  24  26
ENDBRANCH   6  20
TORSDOF 3
ENDMDL
MODEL 2
REMARK VINA RESULT:      -9.5      1.671      2.173
REMARK  Name = 
REMARK  3 active torsions:
REMARK  status: ('A' for Active; 'I' for Inactive)
REMARK    1  A    between atoms: C_2  and  C_3
REMARK    2  A    between atoms: N_17  and  C_18
REMARK    3  A    between atoms: C_22  and  C_23
REMARK                            x       y       z     vdW  Elec       q    Type
REMARK                         _______ _______ _______ _____ _____    ______ ____
ROOT
ATOM      1  O   UNL     1       5.198   3.378  18.744  0.00  0.00    +0.000 OA
ATOM      2  C   UNL     1       5.053   4.402  18.080  0.00  0.00    +0.000 C 
ATOM      3  N   UNL     1       4.190   5.417  18.512  0.00  0.00    +0.000 N 
ATOM      4  C   UNL     1       3.727   5.390  19.912  0.00  0.00    +0.000 C 
ATOM      5  C   UNL     1       2.239   5.758  20.045  0.00  0.00    +0.000 C 
ATOM      6  N   UNL     1       1.936   7.019  19.347  0.00  0.00    +0.000 N 
ATOM      7  C   UNL     1       2.345   7.048  17.939  0.00  0.00    +0.000 C 
ATOM      8  C   UNL     1       3.820   6.656  17.798  0.00  0.00    +0.000 C 
ENDROOT
BRANCH   2   9
ATOM      9  C   UNL     1       5.833   4.567  16.812  0.00  0.00    +0.000 A 
ATOM     10  C   UNL     1       5.276   4.183  15.661  0.00  0.00    +0.000 A 
ATOM     11  C   UNL     1       6.000   4.209  14.410  0.00  0.00    +0.000 A 
ATOM     12  C   UNL     1       5.581   3.467  13.305  0.00  0.00    +0.000 A 
ATOM     13  C   UNL     1       6.248   3.610  12.086  0.00  0.00    +0.000 A 
ATOM     14  C   UNL     1       7.318   4.497  11.985  0.00  0.00    +0.000 A 
ATOM     15  C   UNL     1       7.774   5.194  13.112  0.00  0.00    +0.000 A 
ATOM     16  C   UNL     1       7.121   5.012  14.325  0.00  0.00    +0.000 A 
ATOM     17  O   UNL     1       7.632   5.616  15.489  0.00  0.00    +0.000 OA
ATOM     18  C   UNL     1       7.123   5.319  16.769  0.00  0.00    +0.000 A 
ATOM     19  O   UNL     1       7.729   5.681  17.768  0.00  0.00    +0.000 OA
ENDBRANCH   2   9
BRANCH   6  20
ATOM     20  C   UNL     1       1.560   8.182  19.985  0.00  0.00    +0.000 A 
ATOM     21  C   UNL     1       1.462   8.284  21.377  0.00  0.00    +0.000 A 
ATOM     22  C   UNL     1       1.068   9.474  22.000  0.00  0.00    +0.000 A 
ATOM     23  C   UNL     1       0.758  10.597  21.239  0.00  0.00    +0.000 A 
ATOM     24  C   UNL     1       0.842  10.540  19.846  0.00  0.00    +0.000 A 
ATOM     25  C   UNL     1       1.239   9.332  19.242  0.00  0.00    +0.000 A 
BRANCH  24  26
ATOM     26  C   UNL     1       0.520  11.729  18.981  0.00  0.00    +0.000 C 
ATOM     27  F   UNL     1       1.588  12.200  18.280  0.00  0.00    +0.000 F 
ATOM     28  F   UNL     1      -0.439  11.450  18.054  0.00  0.00    +0.000 F 
ATOM     29  F   UNL     1       0.048  12.787  19.696  0.00  0.00    +0.000 F 
ENDBRANCH  24  26
ENDBRANCH   6  20
TORSDOF 3
ENDMDL
MODEL 3
REMARK VINA RESULT:      -8.4      3.315      4.795
REMARK  Name = 
REMARK  3 active torsions:
REMARK  status: ('A' for Active; 'I' for Inactive)
REMARK    1  A    between atoms: C_2  and  C_3
REMARK    2  A    between atoms: N_17  and  C_18
REMARK    3  A    between atoms: C_22  and  C_23
REMARK                            x       y       z     vdW  Elec       q    Type
REMARK                         _______ _______ _______ _____ _____    ______ ____
ROOT
ATOM      1  O   UNL     1       1.969   5.999  20.662  0.00  0.00    +0.000 OA
ATOM      2  C   UNL     1       2.246   6.582  19.615  0.00  0.00    +0.000 C 
ATOM      3  N   UNL     1       1.846   7.909  19.411  0.00  0.00    +0.000 N 
ATOM      4  C   UNL     1       1.394   8.689  20.579  0.00  0.00    +0.000 C 
ATOM      5  C   UNL     1       0.169   9.564  20.260  0.00  0.00    +0.000 C 
ATOM      6  N   UNL     1       0.395  10.381  19.055  0.00  0.00    +0.000 N 
ATOM      7  C   UNL     1       0.798   9.617  17.871  0.00  0.00    +0.000 C 
ATOM      8  C   UNL     1       2.001   8.723  18.189  0.00  0.00    +0.000 C 
ENDROOT
BRANCH   2   9
ATOM      9  C   UNL     1       3.042   5.866  18.568  0.00  0.00    +0.000 A 
ATOM     10  C   UNL     1       4.338   6.157  18.437  0.00  0.00    +0.000 A 
ATOM     11  C   UNL     1       5.150   5.590  17.383  0.00  0.00    +0.000 A 
ATOM     12  C   UNL     1       6.363   6.165  17.003  0.00  0.00    +0.000 A 
ATOM     13  C   UNL     1       7.166   5.520  16.059  0.00  0.00    +0.000 A 
ATOM     14  C   UNL     1       6.749   4.308  15.513  0.00  0.00    +0.000 A 
ATOM     15  C   UNL     1       5.503   3.765  15.852  0.00  0.00    +0.000 A 
ATOM     16  C   UNL     1       4.702   4.439  16.766  0.00  0.00    +0.000 A 
ATOM     17  O   UNL     1       3.403   3.968  17.035  0.00  0.00    +0.000 OA
ATOM     18  C   UNL     1       2.486   4.708  17.806  0.00  0.00    +0.000 A 
ATOM     19  O   UNL     1       1.306   4.385  17.831  0.00  0.00    +0.000 OA
ENDBRANCH   2   9
BRANCH   6  20
ATOM     20  C   UNL     1       0.499  11.755  19.065  0.00  0.00    +0.000 A 
ATOM     21  C   UNL     1      -0.575  12.593  19.388  0.00  0.00    +0.000 A 
ATOM     22  C   UNL     1      -0.446  13.987  19.380  0.00  0.00    +0.000 A 
ATOM     23  C   UNL     1       0.768  14.579  19.043  0.00  0.00    +0.000 A 
ATOM     24  C   UNL     1       1.865  13.781  18.714  0.00  0.00    +0.000 A 
ATOM     25  C   UNL     1       1.711  12.382  18.727  0.00  0.00    +0.000 A 
BRANCH  24  26
ATOM     26  C   UNL     1       3.199  14.375  18.347  0.00  0.00    +0.000 C 
ATOM     27  F   UNL     1       3.797  15.049  19.367  0.00  0.00    +0.000 F 
ATOM     28  F   UNL     1       4.096  13.428  17.952  0.00  0.00    +0.000 F 
ATOM     29  F   UNL     1       3.114  15.258  17.315  0.00  0.00    +0.000 F 
ENDBRANCH  24  26
ENDBRANCH   6  20
TORSDOF 3
ENDMDL
MODEL 4
REMARK VINA RESULT:      -8.2      2.408      4.013
REMARK  Name = 
REMARK  3 active torsions:
REMARK  status: ('A' for Active; 'I' for Inactive)
REMARK    1  A    between atoms: C_2  and  C_3
REMARK    2  A    between atoms: N_17  and  C_18
REMARK    3  A    between atoms: C_22  and  C_23
REMARK                            x       y       z     vdW  Elec       q    Type
REMARK                         _______ _______ _______ _____ _____    ______ ____
ROOT
ATOM      1  O   UNL     1       1.872   5.458  20.735  0.00  0.00    +0.000 OA
ATOM      2  C   UNL     1       2.217   6.197  19.814  0.00  0.00    +0.000 C 
ATOM      3  N   UNL     1       1.876   7.556  19.823  0.00  0.00    +0.000 N 
ATOM      4  C   UNL     1       1.401   8.147  21.088  0.00  0.00    +0.000 C 
ATOM      5  C   UNL     1       0.225   9.116  20.876  0.00  0.00    +0.000 C 
ATOM      6  N   UNL     1       0.534  10.113  19.836  0.00  0.00    +0.000 N 
ATOM      7  C   UNL     1       0.961   9.542  18.555  0.00  0.00    +0.000 C 
ATOM      8  C   UNL     1       2.115   8.555  18.762  0.00  0.00    +0.000 C 
ENDROOT
BRANCH   2   9
ATOM      9  C   UNL     1       3.032   5.632  18.691  0.00  0.00    +0.000 A 
ATOM     10  C   UNL     1       4.336   5.913  18.641  0.00  0.00    +0.000 A 
ATOM     11  C   UNL     1       5.169   5.497  17.535  0.00  0.00    +0.000 A 
ATOM     12  C   UNL     1       6.402   6.098  17.279  0.00  0.00    +0.000 A 
ATOM     13  C   UNL     1       7.222   5.588  16.269  0.00  0.00    +0.000 A 
ATOM     14  C   UNL     1       6.802   4.482  15.534  0.00  0.00    +0.000 A 
ATOM     15  C   UNL     1       5.538   3.919  15.752  0.00  0.00    +0.000 A 
ATOM     16  C   UNL     1       4.721   4.462  16.737  0.00  0.00    +0.000 A 
ATOM     17  O   UNL     1       3.407   3.982  16.896  0.00  0.00    +0.000 OA
ATOM     18  C   UNL     1       2.480   4.615  17.746  0.00  0.00    +0.000 A 
ATOM     19  O   UNL     1       1.295   4.316  17.691  0.00  0.00    +0.000 OA
ENDBRANCH   2   9
BRANCH   6  20
ATOM     20  C   UNL     1       0.688  11.461  20.082  0.00  0.00    +0.000 A 
ATOM     21  C   UNL     1       1.560  12.270  19.343  0.00  0.00    +0.000 A 
ATOM     22  C   UNL     1       1.706  13.634  19.620  0.00  0.00    +0.000 A 
ATOM     23  C   UNL     1       0.981  14.225  20.650  0.00  0.00    +0.000 A 
ATOM     24  C   UNL     1       0.100  13.455  21.413  0.00  0.00    +0.000 A 
ATOM     25  C   UNL     1      -0.029  12.084  21.118  0.00  0.00    +0.000 A 
BRANCH  24  26
ATOM     26  C   UNL     1      -0.708  14.049  22.535  0.00  0.00    +0.000 C 
ATOM     27  F   UNL     1      -0.978  13.169  23.539  0.00  0.00    +0.000 F 
ATOM     28  F   UNL     1      -0.078  15.104  23.126  0.00  0.00    +0.000 F 
ATOM     29  F   UNL     1      -1.915  14.522  22.119  0.00  0.00    +0.000 F 
ENDBRANCH  24  26
ENDBRANCH   6  20
TORSDOF 3
ENDMDL
MODEL 5
REMARK VINA RESULT:      -8.1      2.882      4.433
REMARK  Name = 
REMARK  3 active torsions:
REMARK  status: ('A' for Active; 'I' for Inactive)
REMARK    1  A    between atoms: C_2  and  C_3
REMARK    2  A    between atoms: N_17  and  C_18
REMARK    3  A    between atoms: C_22  and  C_23
REMARK                            x       y       z     vdW  Elec       q    Type
REMARK                         _______ _______ _______ _____ _____    ______ ____
ROOT
ATOM      1  O   UNL     1       2.014   5.942  20.696  0.00  0.00    +0.000 OA
ATOM      2  C   UNL     1       2.276   6.540  19.654  0.00  0.00    +0.000 C 
ATOM      3  N   UNL     1       1.872   7.869  19.474  0.00  0.00    +0.000 N 
ATOM      4  C   UNL     1       1.434   8.632  20.658  0.00  0.00    +0.000 C 
ATOM      5  C   UNL     1       0.204   9.509  20.367  0.00  0.00    +0.000 C 
ATOM      6  N   UNL     1       0.413  10.343  19.171  0.00  0.00    +0.000 N 
ATOM      7  C   UNL     1       0.801   9.596  17.970  0.00  0.00    +0.000 C 
ATOM      8  C   UNL     1       2.010   8.700  18.260  0.00  0.00    +0.000 C 
ENDROOT
BRANCH   2   9
ATOM      9  C   UNL     1       3.060   5.839  18.587  0.00  0.00    +0.000 A 
ATOM     10  C   UNL     1       4.356   6.126  18.450  0.00  0.00    +0.000 A 
ATOM     11  C   UNL     1       5.156   5.575  17.379  0.00  0.00    +0.000 A 
ATOM     12  C   UNL     1       6.368   6.150  16.999  0.00  0.00    +0.000 A 
ATOM     13  C   UNL     1       7.159   5.519  16.036  0.00  0.00    +0.000 A 
ATOM     14  C   UNL     1       6.731   4.319  15.471  0.00  0.00    +0.000 A 
ATOM     15  C   UNL     1       5.485   3.776  15.810  0.00  0.00    +0.000 A 
ATOM     16  C   UNL     1       4.695   4.437  16.744  0.00  0.00    +0.000 A 
ATOM     17  O   UNL     1       3.397   3.968  17.015  0.00  0.00    +0.000 OA
ATOM     18  C   UNL     1       2.490   4.698  17.808  0.00  0.00    +0.000 A 
ATOM     19  O   UNL     1       1.309   4.382  17.838  0.00  0.00    +0.000 OA
ENDBRANCH   2   9
BRANCH   6  20
ATOM     20  C   UNL     1       0.515  11.717  19.197  0.00  0.00    +0.000 A 
ATOM     21  C   UNL     1      -0.420  12.558  18.583  0.00  0.00    +0.000 A 
ATOM     22  C   UNL     1      -0.288  13.951  18.615  0.00  0.00    +0.000 A 
ATOM     23  C   UNL     1       0.792  14.540  19.266  0.00  0.00    +0.000 A 
ATOM     24  C   UNL     1       1.750  13.739  19.892  0.00  0.00    +0.000 A 
ATOM     25  C   UNL     1       1.597  12.341  19.845  0.00  0.00    +0.000 A 
BRANCH  24  26
ATOM     26  C   UNL     1       2.933  14.329  20.611  0.00  0.00    +0.000 C 
ATOM     27  F   UNL     1       3.618  13.428  21.367  0.00  0.00    +0.000 F 
ATOM     28  F   UNL     1       3.847  14.864  19.752  0.00  0.00    +0.000 F 
ATOM     29  F   UNL     1       2.585  15.338  21.456  0.00  0.00    +0.000 F 
ENDBRANCH  24  26
ENDBRANCH   6  20
TORSDOF 3
ENDMDL
MODEL 6
REMARK VINA RESULT:      -8.0      2.776      4.238
REMARK  Name = 
REMARK  3 active torsions:
REMARK  status: ('A' for Active; 'I' for Inactive)
REMARK    1  A    between atoms: C_2  and  C_3
REMARK    2  A    between atoms: N_17  and  C_18
REMARK    3  A    between atoms: C_22  and  C_23
REMARK                            x       y       z     vdW  Elec       q    Type
REMARK                         _______ _______ _______ _____ _____    ______ ____
ROOT
ATOM      1  O   UNL     1       2.002   5.850  20.631  0.00  0.00    +0.000 OA
ATOM      2  C   UNL     1       2.291   6.452  19.598  0.00  0.00    +0.000 C 
ATOM      3  N   UNL     1       1.933   7.796  19.432  0.00  0.00    +0.000 N 
ATOM      4  C   UNL     1       1.512   8.558  20.622  0.00  0.00    +0.000 C 
ATOM      5  C   UNL     1       0.314   9.479  20.335  0.00  0.00    +0.000 C 
ATOM      6  N   UNL     1       0.558  10.320  19.150  0.00  0.00    +0.000 N 
ATOM      7  C   UNL     1       0.930   9.576  17.943  0.00  0.00    +0.000 C 
ATOM      8  C   UNL     1       2.106   8.636  18.229  0.00  0.00    +0.000 C 
ENDROOT
BRANCH   2   9
ATOM      9  C   UNL     1       3.058   5.739  18.527  0.00  0.00    +0.000 A 
ATOM     10  C   UNL     1       4.352   6.024  18.366  0.00  0.00    +0.000 A 
ATOM     11  C   UNL     1       5.135   5.461  17.289  0.00  0.00    +0.000 A 
ATOM     12  C   UNL     1       6.341   6.032  16.882  0.00  0.00    +0.000 A 
ATOM     13  C   UNL     1       7.117   5.390  15.914  0.00  0.00    +0.000 A 
ATOM     14  C   UNL     1       6.681   4.182  15.371  0.00  0.00    +0.000 A 
ATOM     15  C   UNL     1       5.441   3.643  15.738  0.00  0.00    +0.000 A 
ATOM     16  C   UNL     1       4.666   4.315  16.676  0.00  0.00    +0.000 A 
ATOM     17  O   UNL     1       3.372   3.848  16.974  0.00  0.00    +0.000 OA
ATOM     18  C   UNL     1       2.477   4.587  17.772  0.00  0.00    +0.000 A 
ATOM     19  O   UNL     1       1.297   4.270  17.825  0.00  0.00    +0.000 OA
ENDBRANCH   2   9
BRANCH   6  20
ATOM     20  C   UNL     1       0.706  11.690  19.194  0.00  0.00    +0.000 A 
ATOM     21  C   UNL     1       1.847  12.344  18.714  0.00  0.00    +0.000 A 
ATOM     22  C   UNL     1       1.977  13.736  18.780  0.00  0.00    +0.000 A 
ATOM     23  C   UNL     1       0.963  14.512  19.334  0.00  0.00    +0.000 A 
ATOM     24  C   UNL     1      -0.193  13.901  19.825  0.00  0.00    +0.000 A 
ATOM     25  C   UNL     1      -0.301  12.499  19.749  0.00  0.00    +0.000 A 
BRANCH  24  26
ATOM     26  C   UNL     1      -1.318  14.697  20.429  0.00  0.00    +0.000 C 
ATOM     27  F   UNL     1      -1.533  15.893  19.815  0.00  0.00    +0.000 F 
ATOM     28  F   UNL     1      -2.508  14.034  20.378  0.00  0.00    +0.000 F 
ATOM     29  F   UNL     1      -1.110  14.985  21.744  0.00  0.00    +0.000 F 
ENDBRANCH  24  26
ENDBRANCH   6  20
TORSDOF 3
ENDMDL
MODEL 7
REMARK VINA RESULT:      -7.9      0.917      1.070
REMARK  Name = 
REMARK  3 active torsions:
REMARK  status: ('A' for Active; 'I' for Inactive)
REMARK    1  A    between atoms: C_2  and  C_3
REMARK    2  A    between atoms: N_17  and  C_18
REMARK    3  A    between atoms: C_22  and  C_23
REMARK                            x       y       z     vdW  Elec       q    Type
REMARK                         _______ _______ _______ _____ _____    ______ ____
ROOT
ATOM      1  O   UNL     1       4.417   4.287  18.912  0.00  0.00    +0.000 OA
ATOM      2  C   UNL     1       4.462   5.227  18.121  0.00  0.00    +0.000 C 
ATOM      3  N   UNL     1       3.709   6.387  18.347  0.00  0.00    +0.000 N 
ATOM      4  C   UNL     1       3.137   6.596  19.691  0.00  0.00    +0.000 C 
ATOM      5  C   UNL     1       1.705   7.156  19.636  0.00  0.00    +0.000 C 
ATOM      6  N   UNL     1       1.629   8.345  18.769  0.00  0.00    +0.000 N 
ATOM      7  C   UNL     1       2.149   8.143  17.414  0.00  0.00    +0.000 C 
ATOM      8  C   UNL     1       3.565   7.559  17.461  0.00  0.00    +0.000 C 
ENDROOT
BRANCH   2   9
ATOM      9  C   UNL     1       5.356   5.132  16.923  0.00  0.00    +0.000 A 
ATOM     10  C   UNL     1       4.852   4.655  15.783  0.00  0.00    +0.000 A 
ATOM     11  C   UNL     1       5.673   4.430  14.614  0.00  0.00    +0.000 A 
ATOM     12  C   UNL     1       5.260   3.592  13.578  0.00  0.00    +0.000 A 
ATOM     13  C   UNL     1       6.035   3.494  12.420  0.00  0.00    +0.000 A 
ATOM     14  C   UNL     1       7.207   4.239  12.310  0.00  0.00    +0.000 A 
ATOM     15  C   UNL     1       7.649   5.033  13.376  0.00  0.00    +0.000 A 
ATOM     16  C   UNL     1       6.884   5.090  14.535  0.00  0.00    +0.000 A 
ATOM     17  O   UNL     1       7.367   5.792  15.655  0.00  0.00    +0.000 OA
ATOM     18  C   UNL     1       6.725   5.730  16.908  0.00  0.00    +0.000 A 
ATOM     19  O   UNL     1       7.287   6.160  17.906  0.00  0.00    +0.000 OA
ENDBRANCH   2   9
BRANCH   6  20
ATOM     20  C   UNL     1       1.360   9.617  19.228  0.00  0.00    +0.000 A 
ATOM     21  C   UNL     1       1.805  10.769  18.568  0.00  0.00    +0.000 A 
ATOM     22  C   UNL     1       1.528  12.050  19.060  0.00  0.00    +0.000 A 
ATOM     23  C   UNL     1       0.797  12.209  20.233  0.00  0.00    +0.000 A 
ATOM     24  C   UNL     1       0.334  11.088  20.924  0.00  0.00    +0.000 A 
ATOM     25  C   UNL     1       0.626   9.810  20.411  0.00  0.00    +0.000 A 
BRANCH  24  26
ATOM     26  C   UNL     1      -0.464  11.210  22.195  0.00  0.00    +0.000 C 
ATOM     27  F   UNL     1      -0.299  12.401  22.832  0.00  0.00    +0.000 F 
ATOM     28  F   UNL     1      -1.804  11.086  21.979  0.00  0.00    +0.000 F 
ATOM     29  F   UNL     1      -0.146  10.251  23.108  0.00  0.00    +0.000 F 
ENDBRANCH  24  26
ENDBRANCH   6  20
TORSDOF 3
ENDMDL
MODEL 8
REMARK VINA RESULT:      -7.9      3.208      4.667
REMARK  Name = 
REMARK  3 active torsions:
REMARK  status: ('A' for Active; 'I' for Inactive)
REMARK    1  A    between atoms: C_2  and  C_3
REMARK    2  A    between atoms: N_17  and  C_18
REMARK    3  A    between atoms: C_22  and  C_23
REMARK                            x       y       z     vdW  Elec       q    Type
REMARK                         _______ _______ _______ _____ _____    ______ ____
ROOT
ATOM      1  O   UNL     1       1.727   5.354  20.951  0.00  0.00    +0.000 OA
ATOM      2  C   UNL     1       2.109   6.139  20.084  0.00  0.00    +0.000 C 
ATOM      3  N   UNL     1       1.753   7.493  20.141  0.00  0.00    +0.000 N 
ATOM      4  C   UNL     1       1.211   8.019  21.408  0.00  0.00    +0.000 C 
ATOM      5  C   UNL     1       0.036   8.987  21.184  0.00  0.00    +0.000 C 
ATOM      6  N   UNL     1       0.385  10.035  20.210  0.00  0.00    +0.000 N 
ATOM      7  C   UNL     1       0.880   9.530  18.926  0.00  0.00    +0.000 C 
ATOM      8  C   UNL     1       2.033   8.544  19.142  0.00  0.00    +0.000 C 
ENDROOT
BRANCH   2   9
ATOM      9  C   UNL     1       2.983   5.636  18.978  0.00  0.00    +0.000 A 
ATOM     10  C   UNL     1       4.302   5.817  19.069  0.00  0.00    +0.000 A 
ATOM     11  C   UNL     1       5.204   5.457  17.997  0.00  0.00    +0.000 A 
ATOM     12  C   UNL     1       6.494   5.983  17.917  0.00  0.00    +0.000 A 
ATOM     13  C   UNL     1       7.366   5.522  16.929  0.00  0.00    +0.000 A 
ATOM     14  C   UNL     1       6.941   4.537  16.039  0.00  0.00    +0.000 A 
ATOM     15  C   UNL     1       5.627   4.055  16.085  0.00  0.00    +0.000 A 
ATOM     16  C   UNL     1       4.761   4.552  17.052  0.00  0.00    +0.000 A 
ATOM     17  O   UNL     1       3.409   4.163  17.044  0.00  0.00    +0.000 OA
ATOM     18  C   UNL     1       2.452   4.772  17.880  0.00  0.00    +0.000 A 
ATOM     19  O   UNL     1       1.260   4.575  17.691  0.00  0.00    +0.000 OA
ENDBRANCH   2   9
BRANCH   6  20
ATOM     20  C   UNL     1       0.513  11.371  20.526  0.00  0.00    +0.000 A 
ATOM     21  C   UNL     1      -0.189  11.970  21.579  0.00  0.00    +0.000 A 
ATOM     22  C   UNL     1      -0.050  13.331  21.874  0.00  0.00    +0.000 A 
ATOM     23  C   UNL     1       0.800  14.131  21.116  0.00  0.00    +0.000 A 
ATOM     24  C   UNL     1       1.520  13.575  20.056  0.00  0.00    +0.000 A 
ATOM     25  C   UNL     1       1.362  12.204  19.777  0.00  0.00    +0.000 A 
BRANCH  24  26
ATOM     26  C   UNL     1       2.454  14.399  19.211  0.00  0.00    +0.000 C 
ATOM     27  F   UNL     1       2.559  15.695  19.615  0.00  0.00    +0.000 F 
ATOM     28  F   UNL     1       3.725  13.905  19.211  0.00  0.00    +0.000 F 
ATOM     29  F   UNL     1       2.075  14.446  17.904  0.00  0.00    +0.000 F 
ENDBRANCH  24  26
ENDBRANCH   6  20
TORSDOF 3
ENDMDL
MODEL 9
REMARK VINA RESULT:      -7.8      3.969      5.936
REMARK  Name = 
REMARK  3 active torsions:
REMARK  status: ('A' for Active; 'I' for Inactive)
REMARK    1  A    between atoms: C_2  and  C_3
REMARK    2  A    between atoms: N_17  and  C_18
REMARK    3  A    between atoms: C_22  and  C_23
REMARK                            x       y       z     vdW  Elec       q    Type
REMARK                         _______ _______ _______ _____ _____    ______ ____
ROOT
ATOM      1  O   UNL     1       2.423   8.744  17.117  0.00  0.00    +0.000 OA
ATOM      2  C   UNL     1       2.177   8.334  18.249  0.00  0.00    +0.000 C 
ATOM      3  N   UNL     1       1.390   9.091  19.127  0.00  0.00    +0.000 N 
ATOM      4  C   UNL     1       0.597  10.204  18.569  0.00  0.00    +0.000 C 
ATOM      5  C   UNL     1       0.622  11.450  19.471  0.00  0.00    +0.000 C 
ATOM      6  N   UNL     1       0.270  11.111  20.861  0.00  0.00    +0.000 N 
ATOM      7  C   UNL     1       1.080  10.040  21.449  0.00  0.00    +0.000 C 
ATOM      8  C   UNL     1       1.081   8.805  20.542  0.00  0.00    +0.000 C 
ENDROOT
BRANCH   2   9
ATOM      9  C   UNL     1       2.706   6.999  18.674  0.00  0.00    +0.000 A 
ATOM     10  C   UNL     1       1.946   6.225  19.452  0.00  0.00    +0.000 A 
ATOM     11  C   UNL     1       2.424   4.972  19.992  0.00  0.00    +0.000 A 
ATOM     12  C   UNL     1       1.810   4.364  21.087  0.00  0.00    +0.000 A 
ATOM     13  C   UNL     1       2.237   3.100  21.503  0.00  0.00    +0.000 A 
ATOM     14  C   UNL     1       3.265   2.459  20.816  0.00  0.00    +0.000 A 
ATOM     15  C   UNL     1       3.919   3.099  19.755  0.00  0.00    +0.000 A 
ATOM     16  C   UNL     1       3.505   4.371  19.377  0.00  0.00    +0.000 A 
ATOM     17  O   UNL     1       4.221   5.073  18.389  0.00  0.00    +0.000 OA
ATOM     18  C   UNL     1       3.961   6.427  18.100  0.00  0.00    +0.000 A 
ATOM     19  O   UNL     1       4.741   7.066  17.408  0.00  0.00    +0.000 OA
ENDBRANCH   2   9
BRANCH   6  20
ATOM     20  C   UNL     1      -0.880  11.538  21.491  0.00  0.00    +0.000 A 
ATOM     21  C   UNL     1      -1.051  11.475  22.879  0.00  0.00    +0.000 A 
ATOM     22  C   UNL     1      -2.232  11.906  23.493  0.00  0.00    +0.000 A 
ATOM     23  C   UNL     1      -3.279  12.411  22.728  0.00  0.00    +0.000 A 
ATOM     24  C   UNL     1      -3.152  12.492  21.340  0.00  0.00    +0.000 A 
ATOM     25  C   UNL     1      -1.955  12.051  20.744  0.00  0.00    +0.000 A 
BRANCH  24  26
ATOM     26  C   UNL     1      -4.255  13.033  20.470  0.00  0.00    +0.000 C 
ATOM     27  F   UNL     1      -4.270  14.392  20.390  0.00  0.00    +0.000 F 
ATOM     28  F   UNL     1      -4.169  12.586  19.186  0.00  0.00    +0.000 F 
ATOM     29  F   UNL     1      -5.493  12.671  20.907  0.00  0.00    +0.000 F 
ENDBRANCH  24  26
ENDBRANCH   6  20
TORSDOF 3
ENDMDL
