MODEL 1
REMARK VINA RESULT:      -9.8      0.000      0.000
REMARK  Name = 
REMARK  4 active torsions:
REMARK  status: ('A' for Active; 'I' for Inactive)
REMARK    1  A    between atoms: C_2  and  C_3
REMARK    2  A    between atoms: C_3  and  C_4
REMARK    3  A    between atoms: C_4  and  C_5
REMARK    4  A    between atoms: C_5  and  C_6
REMARK                            x       y       z     vdW  Elec       q    Type
REMARK                         _______ _______ _______ _____ _____    ______ ____
ROOT
ATOM      1  O   UNL     1       2.952   8.711  17.127  0.00  0.00    +0.000 OA
ATOM      2  C   UNL     1       2.573   8.022  18.080  0.00  0.00    +0.000 C 
ATOM      3  N   UNL     1       3.151   6.796  18.339  0.00  0.00    +0.000 N 
ATOM      4  C   UNL     1       4.339   6.406  17.574  0.00  0.00    +0.000 C 
ATOM      5  C   UNL     1       4.822   5.026  18.093  0.00  0.00    +0.000 C 
ATOM      6  C   UNL     1       6.226   5.111  18.719  0.00  0.00    +0.000 C 
ATOM      7  C   UNL     1       7.292   5.354  17.652  0.00  0.00    +0.000 C 
ATOM      8  O   UNL     1       7.232   4.346  16.643  0.00  0.00    +0.000 OA
ATOM      9  C   UNL     1       5.977   4.321  15.965  0.00  0.00    +0.000 C 
ATOM     10  C   UNL     1       4.848   4.003  16.942  0.00  0.00    +0.000 C 
ATOM     11  C   UNL     1       3.750   4.722  19.122  0.00  0.00    +0.000 A 
ATOM     12  C   UNL     1       3.629   3.575  19.903  0.00  0.00    +0.000 A 
ATOM     13  C   UNL     1       2.546   3.462  20.778  0.00  0.00    +0.000 A 
ATOM     14  C   UNL     1       1.599   4.482  20.858  0.00  0.00    +0.000 A 
ATOM     15  C   UNL     1       1.729   5.633  20.078  0.00  0.00    +0.000 A 
ATOM     16  C   UNL     1       2.813   5.757  19.222  0.00  0.00    +0.000 A 
ENDROOT
BRANCH   2  17
ATOM     17  C   UNL     1       1.499   8.530  19.015  0.00  0.00    +0.000 C 
BRANCH  17  18
ATOM     18  C   UNL     1       1.048   9.947  18.678  0.00  0.00    +0.000 C 
BRANCH  18  19
ATOM     19  C   UNL     1      -0.186  10.322  19.496  0.00  0.00    +0.000 C 
BRANCH  19  20
ATOM     20  C   UNL     1      -1.385  10.544  18.610  0.00  0.00    +0.000 A 
ATOM     21  C   UNL     1      -1.485   9.852  17.373  0.00  0.00    +0.000 A 
ATOM     22  C   UNL     1      -2.589  10.019  16.531  0.00  0.00    +0.000 A 
ATOM     23  C   UNL     1      -3.568  10.877  16.963  0.00  0.00    +0.000 A 
ATOM     24  N   UNL     1      -4.763  11.244  16.356  0.00  0.00    +0.000 N 
ATOM     25  C   UNL     1      -5.434  12.148  17.188  0.00  0.00    +0.000 A 
ATOM     26  O   UNL     1      -6.508  12.675  16.975  0.00  0.00    +0.000 OA
ATOM     27  N   UNL     1      -4.624  12.329  18.320  0.00  0.00    +0.000 N 
ATOM     28  C   UNL     1      -3.482  11.551  18.181  0.00  0.00    +0.000 A 
ATOM     29  C   UNL     1      -2.411  11.408  19.027  0.00  0.00    +0.000 A 
ATOM     30  H   UNL     1      -5.119  10.929  15.468  0.00  0.00    +0.000 HD
ATOM     31  H   UNL     1      -4.863  12.931  19.090  0.00  0.00    +0.000 HD
ENDBRANCH  19  20
ENDBRANCH  18  19
ENDBRANCH  17  18
ENDBRANCH   2  17
TORSDOF 4
ENDMDL
MODEL 2
REMARK VINA RESULT:      -9.7      1.238      1.718
REMARK  Name = 
REMARK  4 active torsions:
REMARK  status: ('A' for Active; 'I' for Inactive)
REMARK    1  A    between atoms: C_2  and  C_3
REMARK    2  A    between atoms: C_3  and  C_4
REMARK    3  A    between atoms: C_4  and  C_5
REMARK    4  A    between atoms: C_5  and  C_6
REMARK                            x       y       z     vdW  Elec       q    Type
REMARK                         _______ _______ _______ _____ _____    ______ ____
ROOT
ATOM      1  O   UNL     1       2.837   8.564  17.623  0.00  0.00    +0.000 OA
ATOM      2  C   UNL     1       2.536   7.803  18.547  0.00  0.00    +0.000 C 
ATOM      3  N   UNL     1       3.100   6.547  18.640  0.00  0.00    +0.000 N 
ATOM      4  C   UNL     1       4.193   6.201  17.727  0.00  0.00    +0.000 C 
ATOM      5  C   UNL     1       4.684   4.770  18.075  0.00  0.00    +0.000 C 
ATOM      6  C   UNL     1       6.146   4.771  18.558  0.00  0.00    +0.000 C 
ATOM      7  C   UNL     1       7.105   5.084  17.412  0.00  0.00    +0.000 C 
ATOM      8  O   UNL     1       6.914   4.170  16.333  0.00  0.00    +0.000 OA
ATOM      9  C   UNL     1       5.598   4.231  15.787  0.00  0.00    +0.000 C 
ATOM     10  C   UNL     1       4.564   3.851  16.845  0.00  0.00    +0.000 C 
ATOM     11  C   UNL     1       3.712   4.400  19.179  0.00  0.00    +0.000 A 
ATOM     12  C   UNL     1       3.636   3.192  19.868  0.00  0.00    +0.000 A 
ATOM     13  C   UNL     1       2.644   3.025  20.837  0.00  0.00    +0.000 A 
ATOM     14  C   UNL     1       1.740   4.054  21.100  0.00  0.00    +0.000 A 
ATOM     15  C   UNL     1       1.825   5.266  20.411  0.00  0.00    +0.000 A 
ATOM     16  C   UNL     1       2.821   5.441  19.461  0.00  0.00    +0.000 A 
ENDROOT
BRANCH   2  17
ATOM     17  C   UNL     1       1.576   8.249  19.627  0.00  0.00    +0.000 C 
BRANCH  17  18
ATOM     18  C   UNL     1       1.189   9.719  19.499  0.00  0.00    +0.000 C 
BRANCH  18  19
ATOM     19  C   UNL     1      -0.204   9.954  20.078  0.00  0.00    +0.000 C 
BRANCH  19  20
ATOM     20  C   UNL     1      -1.179  10.373  19.007  0.00  0.00    +0.000 A 
ATOM     21  C   UNL     1      -2.047  11.475  19.235  0.00  0.00    +0.000 A 
ATOM     22  C   UNL     1      -2.953  11.904  18.260  0.00  0.00    +0.000 A 
ATOM     23  C   UNL     1      -2.956  11.211  17.076  0.00  0.00    +0.000 A 
ATOM     24  N   UNL     1      -3.733  11.395  15.938  0.00  0.00    +0.000 N 
ATOM     25  C   UNL     1      -3.368  10.438  14.983  0.00  0.00    +0.000 A 
ATOM     26  O   UNL     1      -3.839  10.304  13.870  0.00  0.00    +0.000 OA
ATOM     27  N   UNL     1      -2.352   9.662  15.560  0.00  0.00    +0.000 N 
ATOM     28  C   UNL     1      -2.101  10.135  16.841  0.00  0.00    +0.000 A 
ATOM     29  C   UNL     1      -1.201   9.692  17.779  0.00  0.00    +0.000 A 
ATOM     30  H   UNL     1      -4.445  12.091  15.790  0.00  0.00    +0.000 HD
ATOM     31  H   UNL     1      -1.899   8.895  15.092  0.00  0.00    +0.000 HD
ENDBRANCH  19  20
ENDBRANCH  18  19
ENDBRANCH  17  18
ENDBRANCH   2  17
TORSDOF 4
ENDMDL
MODEL 3
REMARK VINA RESULT:      -9.6      1.813      3.273
REMARK  Name = 
REMARK  4 active torsions:
REMARK  status: ('A' for Active; 'I' for Inactive)
REMARK    1  A    between atoms: C_2  and  C_3
REMARK    2  A    between atoms: C_3  and  C_4
REMARK    3  A    between atoms: C_4  and  C_5
REMARK    4  A    between atoms: C_5  and  C_6
REMARK                            x       y       z     vdW  Elec       q    Type
REMARK                         _______ _______ _______ _____ _____    ______ ____
ROOT
ATOM      1  O   UNL     1       1.233   7.862  20.586  0.00  0.00    +0.000 OA
ATOM      2  C   UNL     1       1.911   7.872  19.553  0.00  0.00    +0.000 C 
ATOM      3  N   UNL     1       2.433   6.701  19.040  0.00  0.00    +0.000 N 
ATOM      4  C   UNL     1       2.021   5.429  19.640  0.00  0.00    +0.000 C 
ATOM      5  C   UNL     1       2.698   4.277  18.850  0.00  0.00    +0.000 C 
ATOM      6  C   UNL     1       1.660   3.376  18.156  0.00  0.00    +0.000 C 
ATOM      7  C   UNL     1       0.881   2.546  19.174  0.00  0.00    +0.000 C 
ATOM      8  O   UNL     1       1.771   1.783  19.988  0.00  0.00    +0.000 OA
ATOM      9  C   UNL     1       2.670   2.600  20.734  0.00  0.00    +0.000 C 
ATOM     10  C   UNL     1       3.556   3.415  19.795  0.00  0.00    +0.000 C 
ATOM     11  C   UNL     1       3.531   5.066  17.859  0.00  0.00    +0.000 A 
ATOM     12  C   UNL     1       4.401   4.563  16.896  0.00  0.00    +0.000 A 
ATOM     13  C   UNL     1       5.112   5.455  16.090  0.00  0.00    +0.000 A 
ATOM     14  C   UNL     1       4.955   6.831  16.259  0.00  0.00    +0.000 A 
ATOM     15  C   UNL     1       4.076   7.331  17.222  0.00  0.00    +0.000 A 
ATOM     16  C   UNL     1       3.354   6.446  18.011  0.00  0.00    +0.000 A 
ENDROOT
BRANCH   2  17
ATOM     17  C   UNL     1       2.144   9.162  18.800  0.00  0.00    +0.000 C 
BRANCH  17  18
ATOM     18  C   UNL     1       0.941   9.577  17.959  0.00  0.00    +0.000 C 
BRANCH  18  19
ATOM     19  C   UNL     1       0.059  10.551  18.737  0.00  0.00    +0.000 C 
BRANCH  19  20
ATOM     20  C   UNL     1      -1.307  10.672  18.113  0.00  0.00    +0.000 A 
ATOM     21  C   UNL     1      -1.649   9.856  17.002  0.00  0.00    +0.000 A 
ATOM     22  C   UNL     1      -2.913   9.926  16.405  0.00  0.00    +0.000 A 
ATOM     23  C   UNL     1      -3.802  10.818  16.951  0.00  0.00    +0.000 A 
ATOM     24  N   UNL     1      -5.109  11.111  16.583  0.00  0.00    +0.000 N 
ATOM     25  C   UNL     1      -5.613  12.092  17.446  0.00  0.00    +0.000 A 
ATOM     26  O   UNL     1      -6.722  12.586  17.418  0.00  0.00    +0.000 OA
ATOM     27  N   UNL     1      -4.585  12.394  18.353  0.00  0.00    +0.000 N 
ATOM     28  C   UNL     1      -3.477  11.614  18.049  0.00  0.00    +0.000 A 
ATOM     29  C   UNL     1      -2.246  11.567  18.654  0.00  0.00    +0.000 A 
ATOM     30  H   UNL     1      -5.637  10.704  15.829  0.00  0.00    +0.000 HD
ATOM     31  H   UNL     1      -4.672  13.071  19.093  0.00  0.00    +0.000 HD
ENDBRANCH  19  20
ENDBRANCH  18  19
ENDBRANCH  17  18
ENDBRANCH   2  17
TORSDOF 4
ENDMDL
MODEL 4
REMARK VINA RESULT:      -9.5      6.461      9.149
REMARK  Name = 
REMARK  4 active torsions:
REMARK  status: ('A' for Active; 'I' for Inactive)
REMARK    1  A    between atoms: C_2  and  C_3
REMARK    2  A    between atoms: C_3  and  C_4
REMARK    3  A    between atoms: C_4  and  C_5
REMARK    4  A    between atoms: C_5  and  C_6
REMARK                            x       y       z     vdW  Elec       q    Type
REMARK                         _______ _______ _______ _____ _____    ______ ____
ROOT
ATOM      1  O   UNL     1       7.016   5.516  20.134  0.00  0.00    +0.000 OA
ATOM      2  C   UNL     1       7.091   5.603  18.904  0.00  0.00    +0.000 C 
ATOM      3  N   UNL     1       6.157   4.990  18.094  0.00  0.00    +0.000 N 
ATOM      4  C   UNL     1       4.978   4.385  18.718  0.00  0.00    +0.000 C 
ATOM      5  C   UNL     1       4.067   3.822  17.595  0.00  0.00    +0.000 C 
ATOM      6  C   UNL     1       2.702   4.534  17.558  0.00  0.00    +0.000 C 
ATOM      7  C   UNL     1       1.851   4.159  18.770  0.00  0.00    +0.000 C 
ATOM      8  O   UNL     1       1.698   2.743  18.858  0.00  0.00    +0.000 OA
ATOM      9  C   UNL     1       2.942   2.064  19.011  0.00  0.00    +0.000 C 
ATOM     10  C   UNL     1       3.839   2.313  17.801  0.00  0.00    +0.000 C 
ATOM     11  C   UNL     1       4.909   4.126  16.371  0.00  0.00    +0.000 A 
ATOM     12  C   UNL     1       4.619   3.810  15.046  0.00  0.00    +0.000 A 
ATOM     13  C   UNL     1       5.541   4.145  14.052  0.00  0.00    +0.000 A 
ATOM     14  C   UNL     1       6.737   4.779  14.388  0.00  0.00    +0.000 A 
ATOM     15  C   UNL     1       7.019   5.100  15.718  0.00  0.00    +0.000 A 
ATOM     16  C   UNL     1       6.097   4.785  16.705  0.00  0.00    +0.000 A 
ENDROOT
BRANCH   2  17
ATOM     17  C   UNL     1       8.184   6.427  18.259  0.00  0.00    +0.000 C 
BRANCH  17  18
ATOM     18  C   UNL     1       8.351   7.795  18.911  0.00  0.00    +0.000 C 
BRANCH  18  19
ATOM     19  C   UNL     1       8.144   8.904  17.881  0.00  0.00    +0.000 C 
BRANCH  19  20
ATOM     20  C   UNL     1       8.723  10.211  18.359  0.00  0.00    +0.000 A 
ATOM     21  C   UNL     1       9.485  10.248  19.558  0.00  0.00    +0.000 A 
ATOM     22  C   UNL     1      10.053  11.437  20.025  0.00  0.00    +0.000 A 
ATOM     23  C   UNL     1       9.840  12.560  19.266  0.00  0.00    +0.000 A 
ATOM     24  N   UNL     1      10.267  13.867  19.469  0.00  0.00    +0.000 N 
ATOM     25  C   UNL     1       9.801  14.663  18.416  0.00  0.00    +0.000 A 
ATOM     26  O   UNL     1       9.985  15.855  18.268  0.00  0.00    +0.000 OA
ATOM     27  N   UNL     1       9.078  13.817  17.562  0.00  0.00    +0.000 N 
ATOM     28  C   UNL     1       9.102  12.530  18.084  0.00  0.00    +0.000 A 
ATOM     29  C   UNL     1       8.533  11.377  17.601  0.00  0.00    +0.000 A 
ATOM     30  H   UNL     1      10.822  14.217  20.233  0.00  0.00    +0.000 HD
ATOM     31  H   UNL     1       8.629  14.125  16.716  0.00  0.00    +0.000 HD
ENDBRANCH  19  20
ENDBRANCH  18  19
ENDBRANCH  17  18
ENDBRANCH   2  17
TORSDOF 4
ENDMDL
MODEL 5
REMARK VINA RESULT:      -9.4      1.762      3.463
REMARK  Name = 
REMARK  4 active torsions:
REMARK  status: ('A' for Active; 'I' for Inactive)
REMARK    1  A    between atoms: C_2  and  C_3
REMARK    2  A    between atoms: C_3  and  C_4
REMARK    3  A    between atoms: C_4  and  C_5
REMARK    4  A    between atoms: C_5  and  C_6
REMARK                            x       y       z     vdW  Elec       q    Type
REMARK                         _______ _______ _______ _____ _____    ______ ____
ROOT
ATOM      1  O   UNL     1       1.645   7.817  20.073  0.00  0.00    +0.000 OA
ATOM      2  C   UNL     1       2.306   7.718  19.035  0.00  0.00    +0.000 C 
ATOM      3  N   UNL     1       2.776   6.491  18.610  0.00  0.00    +0.000 N 
ATOM      4  C   UNL     1       2.326   5.288  19.315  0.00  0.00    +0.000 C 
ATOM      5  C   UNL     1       2.946   4.051  18.612  0.00  0.00    +0.000 C 
ATOM      6  C   UNL     1       1.865   3.139  18.005  0.00  0.00    +0.000 C 
ATOM      7  C   UNL     1       1.071   2.423  19.095  0.00  0.00    +0.000 C 
ATOM      8  O   UNL     1       1.944   1.694  19.956  0.00  0.00    +0.000 OA
ATOM      9  C   UNL     1       2.885   2.532  20.624  0.00  0.00    +0.000 C 
ATOM     10  C   UNL     1       3.786   3.234  19.612  0.00  0.00    +0.000 C 
ATOM     11  C   UNL     1       3.793   4.726  17.550  0.00  0.00    +0.000 A 
ATOM     12  C   UNL     1       4.628   4.114  16.619  0.00  0.00    +0.000 A 
ATOM     13  C   UNL     1       5.359   4.912  15.736  0.00  0.00    +0.000 A 
ATOM     14  C   UNL     1       5.257   6.301  15.797  0.00  0.00    +0.000 A 
ATOM     15  C   UNL     1       4.413   6.910  16.727  0.00  0.00    +0.000 A 
ATOM     16  C   UNL     1       3.671   6.120  17.593  0.00  0.00    +0.000 A 
ENDROOT
BRANCH   2  17
ATOM     17  C   UNL     1       2.576   8.934  18.177  0.00  0.00    +0.000 C 
BRANCH  17  18
ATOM     18  C   UNL     1       1.432   9.943  18.212  0.00  0.00    +0.000 C 
BRANCH  18  19
ATOM     19  C   UNL     1       0.181   9.350  17.567  0.00  0.00    +0.000 C 
BRANCH  19  20
ATOM     20  C   UNL     1      -1.040  10.175  17.881  0.00  0.00    +0.000 A 
ATOM     21  C   UNL     1      -1.047  11.018  19.025  0.00  0.00    +0.000 A 
ATOM     22  C   UNL     1      -2.155  11.812  19.340  0.00  0.00    +0.000 A 
ATOM     23  C   UNL     1      -3.227  11.737  18.488  0.00  0.00    +0.000 A 
ATOM     24  N   UNL     1      -4.451  12.393  18.537  0.00  0.00    +0.000 N 
ATOM     25  C   UNL     1      -5.223  11.994  17.438  0.00  0.00    +0.000 A 
ATOM     26  O   UNL     1      -6.346  12.366  17.164  0.00  0.00    +0.000 OA
ATOM     27  N   UNL     1      -4.445  11.078  16.714  0.00  0.00    +0.000 N 
ATOM     28  C   UNL     1      -3.224  10.921  17.357  0.00  0.00    +0.000 A 
ATOM     29  C   UNL     1      -2.152  10.132  17.023  0.00  0.00    +0.000 A 
ATOM     30  H   UNL     1      -4.764  13.053  19.230  0.00  0.00    +0.000 HD
ATOM     31  H   UNL     1      -4.752  10.627  15.868  0.00  0.00    +0.000 HD
ENDBRANCH  19  20
ENDBRANCH  18  19
ENDBRANCH  17  18
ENDBRANCH   2  17
TORSDOF 4
ENDMDL
MODEL 6
REMARK VINA RESULT:      -9.4      0.444      1.195
REMARK  Name = 
REMARK  4 active torsions:
REMARK  status: ('A' for Active; 'I' for Inactive)
REMARK    1  A    between atoms: C_2  and  C_3
REMARK    2  A    between atoms: C_3  and  C_4
REMARK    3  A    between atoms: C_4  and  C_5
REMARK    4  A    between atoms: C_5  and  C_6
REMARK                            x       y       z     vdW  Elec       q    Type
REMARK                         _______ _______ _______ _____ _____    ______ ____
ROOT
ATOM      1  O   UNL     1       2.950   8.705  17.366  0.00  0.00    +0.000 OA
ATOM      2  C   UNL     1       2.584   7.972  18.291  0.00  0.00    +0.000 C 
ATOM      3  N   UNL     1       3.156   6.730  18.476  0.00  0.00    +0.000 N 
ATOM      4  C   UNL     1       4.325   6.370  17.669  0.00  0.00    +0.000 C 
ATOM      5  C   UNL     1       4.805   4.961  18.109  0.00  0.00    +0.000 C 
ATOM      6  C   UNL     1       6.223   5.004  18.709  0.00  0.00    +0.000 C 
ATOM      7  C   UNL     1       7.269   5.292  17.634  0.00  0.00    +0.000 C 
ATOM      8  O   UNL     1       7.180   4.337  16.577  0.00  0.00    +0.000 OA
ATOM      9  C   UNL     1       5.912   4.356  15.925  0.00  0.00    +0.000 C 
ATOM     10  C   UNL     1       4.800   3.997  16.907  0.00  0.00    +0.000 C 
ATOM     11  C   UNL     1       3.752   4.614  19.142  0.00  0.00    +0.000 A 
ATOM     12  C   UNL     1       3.636   3.431  19.867  0.00  0.00    +0.000 A 
ATOM     13  C   UNL     1       2.570   3.282  20.757  0.00  0.00    +0.000 A 
ATOM     14  C   UNL     1       1.633   4.305  20.907  0.00  0.00    +0.000 A 
ATOM     15  C   UNL     1       1.758   5.492  20.183  0.00  0.00    +0.000 A 
ATOM     16  C   UNL     1       2.826   5.650  19.312  0.00  0.00    +0.000 A 
ENDROOT
BRANCH   2  17
ATOM     17  C   UNL     1       1.532   8.440  19.272  0.00  0.00    +0.000 C 
BRANCH  17  18
ATOM     18  C   UNL     1       0.885   9.757  18.856  0.00  0.00    +0.000 C 
BRANCH  18  19
ATOM     19  C   UNL     1      -0.174   9.514  17.783  0.00  0.00    +0.000 C 
BRANCH  19  20
ATOM     20  C   UNL     1      -1.410  10.337  18.037  0.00  0.00    +0.000 A 
ATOM     21  C   UNL     1      -1.448  11.231  19.141  0.00  0.00    +0.000 A 
ATOM     22  C   UNL     1      -2.570  12.025  19.400  0.00  0.00    +0.000 A 
ATOM     23  C   UNL     1      -3.626  11.898  18.533  0.00  0.00    +0.000 A 
ATOM     24  N   UNL     1      -4.859  12.539  18.531  0.00  0.00    +0.000 N 
ATOM     25  C   UNL     1      -5.605  12.080  17.438  0.00  0.00    +0.000 A 
ATOM     26  O   UNL     1      -6.728  12.425  17.128  0.00  0.00    +0.000 OA
ATOM     27  N   UNL     1      -4.804  11.142  16.771  0.00  0.00    +0.000 N 
ATOM     28  C   UNL     1      -3.593  11.030  17.442  0.00  0.00    +0.000 A 
ATOM     29  C   UNL     1      -2.506  10.240  17.163  0.00  0.00    +0.000 A 
ATOM     30  H   UNL     1      -5.191  13.226  19.187  0.00  0.00    +0.000 HD
ATOM     31  H   UNL     1      -5.091  10.649  15.941  0.00  0.00    +0.000 HD
ENDBRANCH  19  20
ENDBRANCH  18  19
ENDBRANCH  17  18
ENDBRANCH   2  17
TORSDOF 4
ENDMDL
MODEL 7
REMARK VINA RESULT:      -9.2      2.406      2.883
REMARK  Name = 
REMARK  4 active torsions:
REMARK  status: ('A' for Active; 'I' for Inactive)
REMARK    1  A    between atoms: C_2  and  C_3
REMARK    2  A    between atoms: C_3  and  C_4
REMARK    3  A    between atoms: C_4  and  C_5
REMARK    4  A    between atoms: C_5  and  C_6
REMARK                            x       y       z     vdW  Elec       q    Type
REMARK                         _______ _______ _______ _____ _____    ______ ____
ROOT
ATOM      1  O   UNL     1       2.160   8.486  18.869  0.00  0.00    +0.000 OA
ATOM      2  C   UNL     1       2.200   7.458  19.552  0.00  0.00    +0.000 C 
ATOM      3  N   UNL     1       3.036   6.414  19.209  0.00  0.00    +0.000 N 
ATOM      4  C   UNL     1       4.002   6.618  18.126  0.00  0.00    +0.000 C 
ATOM      5  C   UNL     1       4.850   5.327  17.981  0.00  0.00    +0.000 C 
ATOM      6  C   UNL     1       6.337   5.584  18.288  0.00  0.00    +0.000 C 
ATOM      7  C   UNL     1       6.989   6.426  17.193  0.00  0.00    +0.000 C 
ATOM      8  O   UNL     1       6.820   5.809  15.917  0.00  0.00    +0.000 OA
ATOM      9  C   UNL     1       5.449   5.664  15.554  0.00  0.00    +0.000 C 
ATOM     10  C   UNL     1       4.725   4.764  16.552  0.00  0.00    +0.000 C 
ATOM     11  C   UNL     1       4.192   4.439  19.019  0.00  0.00    +0.000 A 
ATOM     12  C   UNL     1       4.506   3.117  19.323  0.00  0.00    +0.000 A 
ATOM     13  C   UNL     1       3.760   2.449  20.296  0.00  0.00    +0.000 A 
ATOM     14  C   UNL     1       2.710   3.100  20.945  0.00  0.00    +0.000 A 
ATOM     15  C   UNL     1       2.404   4.428  20.642  0.00  0.00    +0.000 A 
ATOM     16  C   UNL     1       3.156   5.100  19.689  0.00  0.00    +0.000 A 
ENDROOT
BRANCH   2  17
ATOM     17  C   UNL     1       1.368   7.339  20.809  0.00  0.00    +0.000 C 
BRANCH  17  18
ATOM     18  C   UNL     1       1.219   8.667  21.543  0.00  0.00    +0.000 C 
BRANCH  18  19
ATOM     19  C   UNL     1      -0.229   9.148  21.482  0.00  0.00    +0.000 C 
BRANCH  19  20
ATOM     20  C   UNL     1      -0.384  10.299  20.521  0.00  0.00    +0.000 A 
ATOM     21  C   UNL     1      -0.971  10.079  19.245  0.00  0.00    +0.000 A 
ATOM     22  C   UNL     1      -1.148  11.124  18.332  0.00  0.00    +0.000 A 
ATOM     23  C   UNL     1      -0.730  12.368  18.733  0.00  0.00    +0.000 A 
ATOM     24  N   UNL     1      -0.769  13.581  18.058  0.00  0.00    +0.000 N 
ATOM     25  C   UNL     1      -0.229  14.575  18.882  0.00  0.00    +0.000 A 
ATOM     26  O   UNL     1      -0.105  15.755  18.616  0.00  0.00    +0.000 OA
ATOM     27  N   UNL     1       0.144  13.945  20.079  0.00  0.00    +0.000 N 
ATOM     28  C   UNL     1      -0.162  12.594  19.987  0.00  0.00    +0.000 A 
ATOM     29  C   UNL     1       0.023  11.588  20.903  0.00  0.00    +0.000 A 
ATOM     30  H   UNL     1      -1.123  13.753  17.131  0.00  0.00    +0.000 HD
ATOM     31  H   UNL     1       0.562  14.425  20.859  0.00  0.00    +0.000 HD
ENDBRANCH  19  20
ENDBRANCH  18  19
ENDBRANCH  17  18
ENDBRANCH   2  17
TORSDOF 4
ENDMDL
MODEL 8
REMARK VINA RESULT:      -9.1      1.289      1.799
REMARK  Name = 
REMARK  4 active torsions:
REMARK  status: ('A' for Active; 'I' for Inactive)
REMARK    1  A    between atoms: C_2  and  C_3
REMARK    2  A    between atoms: C_3  and  C_4
REMARK    3  A    between atoms: C_4  and  C_5
REMARK    4  A    between atoms: C_5  and  C_6
REMARK                            x       y       z     vdW  Elec       q    Type
REMARK                         _______ _______ _______ _____ _____    ______ ____
ROOT
ATOM      1  O   UNL     1       3.667   8.678  17.400  0.00  0.00    +0.000 OA
ATOM      2  C   UNL     1       3.008   7.710  17.793  0.00  0.00    +0.000 C 
ATOM      3  N   UNL     1       3.491   6.424  17.654  0.00  0.00    +0.000 N 
ATOM      4  C   UNL     1       4.871   6.240  17.196  0.00  0.00    +0.000 C 
ATOM      5  C   UNL     1       5.180   4.719  17.181  0.00  0.00    +0.000 C 
ATOM      6  C   UNL     1       6.299   4.356  18.175  0.00  0.00    +0.000 C 
ATOM      7  C   UNL     1       7.652   4.883  17.699  0.00  0.00    +0.000 C 
ATOM      8  O   UNL     1       7.945   4.404  16.387  0.00  0.00    +0.000 OA
ATOM      9  C   UNL     1       6.984   4.824  15.421  0.00  0.00    +0.000 C 
ATOM     10  C   UNL     1       5.602   4.275  15.768  0.00  0.00    +0.000 C 
ATOM     11  C   UNL     1       3.836   4.154  17.596  0.00  0.00    +0.000 A 
ATOM     12  C   UNL     1       3.485   2.813  17.722  0.00  0.00    +0.000 A 
ATOM     13  C   UNL     1       2.177   2.485  18.086  0.00  0.00    +0.000 A 
ATOM     14  C   UNL     1       1.238   3.491  18.310  0.00  0.00    +0.000 A 
ATOM     15  C   UNL     1       1.596   4.835  18.189  0.00  0.00    +0.000 A 
ATOM     16  C   UNL     1       2.900   5.164  17.846  0.00  0.00    +0.000 A 
ENDROOT
BRANCH   2  17
ATOM     17  C   UNL     1       1.677   7.915  18.480  0.00  0.00    +0.000 C 
BRANCH  17  18
ATOM     18  C   UNL     1       0.881   9.073  17.887  0.00  0.00    +0.000 C 
BRANCH  18  19
ATOM     19  C   UNL     1       0.812  10.233  18.878  0.00  0.00    +0.000 C 
BRANCH  19  20
ATOM     20  C   UNL     1      -0.568  10.837  18.919  0.00  0.00    +0.000 A 
ATOM     21  C   UNL     1      -0.938  11.676  20.005  0.00  0.00    +0.000 A 
ATOM     22  C   UNL     1      -2.204  12.269  20.071  0.00  0.00    +0.000 A 
ATOM     23  C   UNL     1      -3.062  12.002  19.035  0.00  0.00    +0.000 A 
ATOM     24  N   UNL     1      -4.365  12.436  18.824  0.00  0.00    +0.000 N 
ATOM     25  C   UNL     1      -4.831  11.899  17.617  0.00  0.00    +0.000 A 
ATOM     26  O   UNL     1      -5.926  12.069  17.119  0.00  0.00    +0.000 OA
ATOM     27  N   UNL     1      -3.784  11.125  17.092  0.00  0.00    +0.000 N 
ATOM     28  C   UNL     1      -2.703  11.189  17.961  0.00  0.00    +0.000 A 
ATOM     29  C   UNL     1      -1.469  10.594  17.869  0.00  0.00    +0.000 A 
ATOM     30  H   UNL     1      -4.913  13.038  19.417  0.00  0.00    +0.000 HD
ATOM     31  H   UNL     1      -3.842  10.621  16.223  0.00  0.00    +0.000 HD
ENDBRANCH  19  20
ENDBRANCH  18  19
ENDBRANCH  17  18
ENDBRANCH   2  17
TORSDOF 4
ENDMDL
MODEL 9
REMARK VINA RESULT:      -9.1      2.084      3.587
REMARK  Name = 
REMARK  4 active torsions:
REMARK  status: ('A' for Active; 'I' for Inactive)
REMARK    1  A    between atoms: C_2  and  C_3
REMARK    2  A    between atoms: C_3  and  C_4
REMARK    3  A    between atoms: C_4  and  C_5
REMARK    4  A    between atoms: C_5  and  C_6
REMARK                            x       y       z     vdW  Elec       q    Type
REMARK                         _______ _______ _______ _____ _____    ______ ____
ROOT
ATOM      1  O   UNL     1       1.660   7.907  20.122  0.00  0.00    +0.000 OA
ATOM      2  C   UNL     1       2.313   7.785  19.080  0.00  0.00    +0.000 C 
ATOM      3  N   UNL     1       2.755   6.546  18.664  0.00  0.00    +0.000 N 
ATOM      4  C   UNL     1       2.286   5.358  19.384  0.00  0.00    +0.000 C 
ATOM      5  C   UNL     1       2.877   4.103  18.688  0.00  0.00    +0.000 C 
ATOM      6  C   UNL     1       1.773   3.206  18.097  0.00  0.00    +0.000 C 
ATOM      7  C   UNL     1       0.972   2.517  19.200  0.00  0.00    +0.000 C 
ATOM      8  O   UNL     1       1.837   1.778  20.062  0.00  0.00    +0.000 OA
ATOM      9  C   UNL     1       2.798   2.604  20.715  0.00  0.00    +0.000 C 
ATOM     10  C   UNL     1       3.707   3.279  19.690  0.00  0.00    +0.000 C 
ATOM     11  C   UNL     1       3.730   4.750  17.615  0.00  0.00    +0.000 A 
ATOM     12  C   UNL     1       4.546   4.113  16.684  0.00  0.00    +0.000 A 
ATOM     13  C   UNL     1       5.287   4.888  15.789  0.00  0.00    +0.000 A 
ATOM     14  C   UNL     1       5.213   6.280  15.836  0.00  0.00    +0.000 A 
ATOM     15  C   UNL     1       4.387   6.914  16.767  0.00  0.00    +0.000 A 
ATOM     16  C   UNL     1       3.635   6.147  17.645  0.00  0.00    +0.000 A 
ENDROOT
BRANCH   2  17
ATOM     17  C   UNL     1       2.601   8.988  18.209  0.00  0.00    +0.000 C 
BRANCH  17  18
ATOM     18  C   UNL     1       1.452   9.991  18.194  0.00  0.00    +0.000 C 
BRANCH  18  19
ATOM     19  C   UNL     1       0.201   9.358  17.590  0.00  0.00    +0.000 C 
BRANCH  19  20
ATOM     20  C   UNL     1      -1.030  10.169  17.904  0.00  0.00    +0.000 A 
ATOM     21  C   UNL     1      -2.145  10.129  17.024  0.00  0.00    +0.000 A 
ATOM     22  C   UNL     1      -3.311  10.854  17.289  0.00  0.00    +0.000 A 
ATOM     23  C   UNL     1      -3.324  11.599  18.441  0.00  0.00    +0.000 A 
ATOM     24  N   UNL     1      -4.321  12.413  18.965  0.00  0.00    +0.000 N 
ATOM     25  C   UNL     1      -3.868  12.963  20.170  0.00  0.00    +0.000 A 
ATOM     26  O   UNL     1      -4.478  13.721  20.899  0.00  0.00    +0.000 OA
ATOM     27  N   UNL     1      -2.570  12.470  20.375  0.00  0.00    +0.000 N 
ATOM     28  C   UNL     1      -2.238  11.635  19.315  0.00  0.00    +0.000 A 
ATOM     29  C   UNL     1      -1.081  10.934  19.081  0.00  0.00    +0.000 A 
ATOM     30  H   UNL     1      -5.229  12.596  18.572  0.00  0.00    +0.000 HD
ATOM     31  H   UNL     1      -2.001  12.702  21.171  0.00  0.00    +0.000 HD
ENDBRANCH  19  20
ENDBRANCH  18  19
ENDBRANCH  17  18
ENDBRANCH   2  17
TORSDOF 4
ENDMDL
