MODEL 1
REMARK VINA RESULT:      -7.9      0.000      0.000
REMARK  Name = 
REMARK  5 active torsions:
REMARK  status: ('A' for Active; 'I' for Inactive)
REMARK    1  A    between atoms: C_2  and  C_18
REMARK    2  A    between atoms: N_3  and  C_4
REMARK    3  A    between atoms: C_7  and  O_8
REMARK    4  A    between atoms: O_8  and  C_9
REMARK    5  A    between atoms: N_20  and  C_21
REMARK                            x       y       z     vdW  Elec       q    Type
REMARK                         _______ _______ _______ _____ _____    ______ ____
ROOT
ATOM      1  O   UNL     1       2.119   9.996  17.451  0.00  0.00    +0.000 OA
ATOM      2  C   UNL     1       1.947   9.097  18.264  0.00  0.00    +0.000 C 
ATOM      3  N   UNL     1       1.198   9.104  19.423  0.00  0.00    +0.000 N 
ATOM      4  H   UNL     1       1.303   8.279  20.011  0.00  0.00    +0.000 HD
ENDROOT
BRANCH   3   5
ATOM      5  C   UNL     1       0.453  10.191  19.914  0.00  0.00    +0.000 A 
ATOM      6  C   UNL     1      -0.795  10.559  19.412  0.00  0.00    +0.000 A 
ATOM      7  C   UNL     1      -1.450  11.677  19.925  0.00  0.00    +0.000 A 
ATOM      8  C   UNL     1      -0.836  12.387  20.942  0.00  0.00    +0.000 A 
ATOM      9  N   UNL     1       0.371  12.059  21.456  0.00  0.00    +0.000 NA
ATOM     10  C   UNL     1       0.973  10.959  20.951  0.00  0.00    +0.000 A 
BRANCH   8  11
ATOM     11  O   UNL     1      -1.522  13.491  21.437  0.00  0.00    +0.000 OA
BRANCH  11  12
ATOM     12  C   UNL     1      -2.652  13.241  22.182  0.00  0.00    +0.000 A 
ATOM     13  C   UNL     1      -3.870  13.700  21.674  0.00  0.00    +0.000 A 
ATOM     14  C   UNL     1      -5.043  13.492  22.402  0.00  0.00    +0.000 A 
ATOM     15  C   UNL     1      -4.989  12.823  23.621  0.00  0.00    +0.000 A 
ATOM     16  F   UNL     1      -6.112  12.654  24.334  0.00  0.00    +0.000 F 
ATOM     17  C   UNL     1      -3.790  12.326  24.113  0.00  0.00    +0.000 A 
ATOM     18  C   UNL     1      -2.623  12.512  23.380  0.00  0.00    +0.000 A 
ENDBRANCH  11  12
ENDBRANCH   8  11
ENDBRANCH   3   5
BRANCH   2  19
ATOM     19  C   UNL     1       2.692   7.766  18.060  0.00  0.00    +0.000 C 
ATOM     20  O   UNL     1       3.701   7.747  17.366  0.00  0.00    +0.000 OA
ATOM     21  N   UNL     1       2.107   6.685  18.694  0.00  0.00    +0.000 N 
ATOM     22  H   UNL     1       1.191   6.843  19.111  0.00  0.00    +0.000 HD
BRANCH  21  23
ATOM     23  C   UNL     1       2.672   5.362  18.577  0.00  0.00    +0.000 C 
ATOM     24  C   UNL     1       1.752   4.412  17.771  0.00  0.00    +0.000 C 
ATOM     25  C   UNL     1       2.491   3.106  17.406  0.00  0.00    +0.000 C 
ATOM     26  C   UNL     1       3.307   2.657  18.563  0.00  0.00    +0.000 A 
ATOM     27  N   UNL     1       4.022   1.501  18.649  0.00  0.00    +0.000 N 
ATOM     28  N   UNL     1       4.711   1.402  19.801  0.00  0.00    +0.000 NA
ATOM     29  C   UNL     1       4.440   2.542  20.446  0.00  0.00    +0.000 A 
ATOM     30  C   UNL     1       3.573   3.369  19.714  0.00  0.00    +0.000 A 
ATOM     31  C   UNL     1       3.030   4.733  19.951  0.00  0.00    +0.000 C 
ATOM     32  H   UNL     1       4.108   0.755  17.967  0.00  0.00    +0.000 HD
ENDBRANCH  21  23
ENDBRANCH   2  19
TORSDOF 5
ENDMDL
MODEL 2
REMARK VINA RESULT:      -7.8      1.139      1.524
REMARK  Name = 
REMARK  5 active torsions:
REMARK  status: ('A' for Active; 'I' for Inactive)
REMARK    1  A    between atoms: C_2  and  C_18
REMARK    2  A    between atoms: N_3  and  C_4
REMARK    3  A    between atoms: C_7  and  O_8
REMARK    4  A    between atoms: O_8  and  C_9
REMARK    5  A    between atoms: N_20  and  C_21
REMARK                            x       y       z     vdW  Elec       q    Type
REMARK                         _______ _______ _______ _____ _____    ______ ____
ROOT
ATOM      1  O   UNL     1       1.427   9.801  18.529  0.00  0.00    +0.000 OA
ATOM      2  C   UNL     1       1.577   8.852  19.286  0.00  0.00    +0.000 C 
ATOM      3  N   UNL     1       1.185   8.718  20.602  0.00  0.00    +0.000 N 
ATOM      4  H   UNL     1       1.530   7.883  21.073  0.00  0.00    +0.000 HD
ENDROOT
BRANCH   3   5
ATOM      5  C   UNL     1       0.504   9.687  21.359  0.00  0.00    +0.000 A 
ATOM      6  C   UNL     1      -0.373   9.378  22.398  0.00  0.00    +0.000 A 
ATOM      7  C   UNL     1      -1.043  10.398  23.072  0.00  0.00    +0.000 A 
ATOM      8  C   UNL     1      -0.799  11.705  22.690  0.00  0.00    +0.000 A 
ATOM      9  N   UNL     1       0.047  12.044  21.690  0.00  0.00    +0.000 NA
ATOM     10  C   UNL     1       0.696  11.035  21.069  0.00  0.00    +0.000 A 
BRANCH   8  11
ATOM     11  O   UNL     1      -1.476  12.698  23.390  0.00  0.00    +0.000 OA
BRANCH  11  12
ATOM     12  C   UNL     1      -2.833  12.793  23.182  0.00  0.00    +0.000 A 
ATOM     13  C   UNL     1      -3.660  12.747  24.307  0.00  0.00    +0.000 A 
ATOM     14  C   UNL     1      -5.046  12.816  24.149  0.00  0.00    +0.000 A 
ATOM     15  C   UNL     1      -5.588  12.939  22.873  0.00  0.00    +0.000 A 
ATOM     16  F   UNL     1      -6.920  12.971  22.721  0.00  0.00    +0.000 F 
ATOM     17  C   UNL     1      -4.774  13.029  21.753  0.00  0.00    +0.000 A 
ATOM     18  C   UNL     1      -3.393  12.982  21.909  0.00  0.00    +0.000 A 
ENDBRANCH  11  12
ENDBRANCH   8  11
ENDBRANCH   3   5
BRANCH   2  19
ATOM     19  C   UNL     1       2.362   7.627  18.784  0.00  0.00    +0.000 C 
ATOM     20  O   UNL     1       3.217   7.778  17.921  0.00  0.00    +0.000 OA
ATOM     21  N   UNL     1       1.989   6.432  19.375  0.00  0.00    +0.000 N 
ATOM     22  H   UNL     1       1.162   6.458  19.969  0.00  0.00    +0.000 HD
BRANCH  21  23
ATOM     23  C   UNL     1       2.614   5.189  18.992  0.00  0.00    +0.000 C 
ATOM     24  C   UNL     1       1.789   4.436  17.919  0.00  0.00    +0.000 C 
ATOM     25  C   UNL     1       2.603   3.272  17.313  0.00  0.00    +0.000 C 
ATOM     26  C   UNL     1       3.358   2.581  18.390  0.00  0.00    +0.000 A 
ATOM     27  N   UNL     1       4.111   1.454  18.254  0.00  0.00    +0.000 N 
ATOM     28  N   UNL     1       4.726   1.101  19.398  0.00  0.00    +0.000 NA
ATOM     29  C   UNL     1       4.367   2.049  20.271  0.00  0.00    +0.000 A 
ATOM     30  C   UNL     1       3.518   3.005  19.692  0.00  0.00    +0.000 A 
ATOM     31  C   UNL     1       2.905   4.260  20.202  0.00  0.00    +0.000 C 
ATOM     32  H   UNL     1       4.273   0.894  17.423  0.00  0.00    +0.000 HD
ENDBRANCH  21  23
ENDBRANCH   2  19
TORSDOF 5
ENDMDL
MODEL 3
REMARK VINA RESULT:      -7.7      3.670     10.791
REMARK  Name = 
REMARK  5 active torsions:
REMARK  status: ('A' for Active; 'I' for Inactive)
REMARK    1  A    between atoms: C_2  and  C_18
REMARK    2  A    between atoms: N_3  and  C_4
REMARK    3  A    between atoms: C_7  and  O_8
REMARK    4  A    between atoms: O_8  and  C_9
REMARK    5  A    between atoms: N_20  and  C_21
REMARK                            x       y       z     vdW  Elec       q    Type
REMARK                         _______ _______ _______ _____ _____    ______ ____
ROOT
ATOM      1  O   UNL     1       1.188  11.726  21.545  0.00  0.00    +0.000 OA
ATOM      2  C   UNL     1       0.161  11.559  20.900  0.00  0.00    +0.000 C 
ATOM      3  N   UNL     1      -0.106  10.630  19.915  0.00  0.00    +0.000 N 
ATOM      4  H   UNL     1      -0.991  10.760  19.426  0.00  0.00    +0.000 HD
ENDROOT
BRANCH   3   5
ATOM      5  C   UNL     1       0.787   9.651  19.445  0.00  0.00    +0.000 A 
ATOM      6  C   UNL     1       1.248   9.596  18.130  0.00  0.00    +0.000 A 
ATOM      7  C   UNL     1       2.100   8.566  17.733  0.00  0.00    +0.000 A 
ATOM      8  C   UNL     1       2.475   7.626  18.676  0.00  0.00    +0.000 A 
ATOM      9  N   UNL     1       2.051   7.648  19.961  0.00  0.00    +0.000 NA
ATOM     10  C   UNL     1       1.242   8.670  20.320  0.00  0.00    +0.000 A 
BRANCH   8  11
ATOM     11  O   UNL     1       3.333   6.618  18.249  0.00  0.00    +0.000 OA
BRANCH  11  12
ATOM     12  C   UNL     1       2.972   5.324  18.547  0.00  0.00    +0.000 A 
ATOM     13  C   UNL     1       1.846   4.806  17.903  0.00  0.00    +0.000 A 
ATOM     14  C   UNL     1       1.425   3.506  18.188  0.00  0.00    +0.000 A 
ATOM     15  C   UNL     1       2.136   2.736  19.105  0.00  0.00    +0.000 A 
ATOM     16  F   UNL     1       1.710   1.500  19.402  0.00  0.00    +0.000 F 
ATOM     17  C   UNL     1       3.280   3.226  19.717  0.00  0.00    +0.000 A 
ATOM     18  C   UNL     1       3.715   4.513  19.419  0.00  0.00    +0.000 A 
ENDBRANCH  11  12
ENDBRANCH   8  11
ENDBRANCH   3   5
BRANCH   2  19
ATOM     19  C   UNL     1      -1.014  12.527  21.122  0.00  0.00    +0.000 C 
ATOM     20  O   UNL     1      -1.317  13.313  20.234  0.00  0.00    +0.000 OA
ATOM     21  N   UNL     1      -1.617  12.412  22.363  0.00  0.00    +0.000 N 
ATOM     22  H   UNL     1      -1.152  11.810  23.040  0.00  0.00    +0.000 HD
BRANCH  21  23
ATOM     23  C   UNL     1      -2.718  13.269  22.734  0.00  0.00    +0.000 C 
ATOM     24  C   UNL     1      -2.281  14.365  23.738  0.00  0.00    +0.000 C 
ATOM     25  C   UNL     1      -3.380  15.438  23.896  0.00  0.00    +0.000 C 
ATOM     26  C   UNL     1      -4.712  14.781  23.940  0.00  0.00    +0.000 A 
ATOM     27  N   UNL     1      -5.908  15.393  24.163  0.00  0.00    +0.000 N 
ATOM     28  N   UNL     1      -6.949  14.543  24.080  0.00  0.00    +0.000 NA
ATOM     29  C   UNL     1      -6.389  13.367  23.772  0.00  0.00    +0.000 A 
ATOM     30  C   UNL     1      -4.993  13.460  23.663  0.00  0.00    +0.000 A 
ATOM     31  C   UNL     1      -3.937  12.483  23.287  0.00  0.00    +0.000 C 
ATOM     32  H   UNL     1      -6.096  16.372  24.351  0.00  0.00    +0.000 HD
ENDBRANCH  21  23
ENDBRANCH   2  19
TORSDOF 5
ENDMDL
MODEL 4
REMARK VINA RESULT:      -7.7      3.560     10.488
REMARK  Name = 
REMARK  5 active torsions:
REMARK  status: ('A' for Active; 'I' for Inactive)
REMARK    1  A    between atoms: C_2  and  C_18
REMARK    2  A    between atoms: N_3  and  C_4
REMARK    3  A    between atoms: C_7  and  O_8
REMARK    4  A    between atoms: O_8  and  C_9
REMARK    5  A    between atoms: N_20  and  C_21
REMARK                            x       y       z     vdW  Elec       q    Type
REMARK                         _______ _______ _______ _____ _____    ______ ____
ROOT
ATOM      1  O   UNL     1       1.091  12.571  19.269  0.00  0.00    +0.000 OA
ATOM      2  C   UNL     1       0.248  11.972  19.924  0.00  0.00    +0.000 C 
ATOM      3  N   UNL     1       0.095  10.614  20.110  0.00  0.00    +0.000 N 
ATOM      4  H   UNL     1      -0.757  10.337  20.595  0.00  0.00    +0.000 HD
ENDROOT
BRANCH   3   5
ATOM      5  C   UNL     1       0.916   9.611  19.563  0.00  0.00    +0.000 A 
ATOM      6  C   UNL     1       1.280   9.563  18.218  0.00  0.00    +0.000 A 
ATOM      7  C   UNL     1       2.063   8.511  17.746  0.00  0.00    +0.000 A 
ATOM      8  C   UNL     1       2.469   7.541  18.646  0.00  0.00    +0.000 A 
ATOM      9  N   UNL     1       2.139   7.557  19.958  0.00  0.00    +0.000 NA
ATOM     10  C   UNL     1       1.396   8.600  20.389  0.00  0.00    +0.000 A 
BRANCH   8  11
ATOM     11  O   UNL     1       3.257   6.511  18.143  0.00  0.00    +0.000 OA
BRANCH  11  12
ATOM     12  C   UNL     1       2.895   5.227  18.482  0.00  0.00    +0.000 A 
ATOM     13  C   UNL     1       1.757   4.698  17.869  0.00  0.00    +0.000 A 
ATOM     14  C   UNL     1       1.334   3.407  18.196  0.00  0.00    +0.000 A 
ATOM     15  C   UNL     1       2.055   2.660  19.123  0.00  0.00    +0.000 A 
ATOM     16  F   UNL     1       1.629   1.434  19.459  0.00  0.00    +0.000 F 
ATOM     17  C   UNL     1       3.211   3.161  19.704  0.00  0.00    +0.000 A 
ATOM     18  C   UNL     1       3.647   4.437  19.365  0.00  0.00    +0.000 A 
ENDBRANCH  11  12
ENDBRANCH   8  11
ENDBRANCH   3   5
BRANCH   2  19
ATOM     19  C   UNL     1      -0.865  12.784  20.610  0.00  0.00    +0.000 C 
ATOM     20  O   UNL     1      -0.930  13.991  20.416  0.00  0.00    +0.000 OA
ATOM     21  N   UNL     1      -1.698  12.033  21.420  0.00  0.00    +0.000 N 
ATOM     22  H   UNL     1      -1.421  11.067  21.586  0.00  0.00    +0.000 HD
BRANCH  21  23
ATOM     23  C   UNL     1      -2.776  12.653  22.153  0.00  0.00    +0.000 C 
ATOM     24  C   UNL     1      -2.981  11.997  23.541  0.00  0.00    +0.000 C 
ATOM     25  C   UNL     1      -3.923  12.847  24.420  0.00  0.00    +0.000 C 
ATOM     26  C   UNL     1      -5.045  13.360  23.592  0.00  0.00    +0.000 A 
ATOM     27  N   UNL     1      -6.120  14.069  24.036  0.00  0.00    +0.000 N 
ATOM     28  N   UNL     1      -6.938  14.450  23.037  0.00  0.00    +0.000 NA
ATOM     29  C   UNL     1      -6.345  13.988  21.931  0.00  0.00    +0.000 A 
ATOM     30  C   UNL     1      -5.152  13.306  22.218  0.00  0.00    +0.000 A 
ATOM     31  C   UNL     1      -4.112  12.675  21.362  0.00  0.00    +0.000 C 
ATOM     32  H   UNL     1      -6.349  14.348  24.984  0.00  0.00    +0.000 HD
ENDBRANCH  21  23
ENDBRANCH   2  19
TORSDOF 5
ENDMDL
MODEL 5
REMARK VINA RESULT:      -7.7      2.319      2.615
REMARK  Name = 
REMARK  5 active torsions:
REMARK  status: ('A' for Active; 'I' for Inactive)
REMARK    1  A    between atoms: C_2  and  C_18
REMARK    2  A    between atoms: N_3  and  C_4
REMARK    3  A    between atoms: C_7  and  O_8
REMARK    4  A    between atoms: O_8  and  C_9
REMARK    5  A    between atoms: N_20  and  C_21
REMARK                            x       y       z     vdW  Elec       q    Type
REMARK                         _______ _______ _______ _____ _____    ______ ____
ROOT
ATOM      1  O   UNL     1       1.066   7.436  21.302  0.00  0.00    +0.000 OA
ATOM      2  C   UNL     1       1.458   8.219  20.446  0.00  0.00    +0.000 C 
ATOM      3  N   UNL     1       1.209   9.570  20.324  0.00  0.00    +0.000 N 
ATOM      4  H   UNL     1       1.538   9.994  19.458  0.00  0.00    +0.000 HD
ENDROOT
BRANCH   3   5
ATOM      5  C   UNL     1       0.425  10.344  21.199  0.00  0.00    +0.000 A 
ATOM      6  C   UNL     1      -0.329   9.804  22.240  0.00  0.00    +0.000 A 
ATOM      7  C   UNL     1      -1.113  10.636  23.036  0.00  0.00    +0.000 A 
ATOM      8  C   UNL     1      -1.106  11.994  22.771  0.00  0.00    +0.000 A 
ATOM      9  N   UNL     1      -0.385  12.555  21.772  0.00  0.00    +0.000 NA
ATOM     10  C   UNL     1       0.381  11.724  21.030  0.00  0.00    +0.000 A 
BRANCH   8  11
ATOM     11  O   UNL     1      -1.892  12.797  23.590  0.00  0.00    +0.000 OA
BRANCH  11  12
ATOM     12  C   UNL     1      -3.248  12.793  23.352  0.00  0.00    +0.000 A 
ATOM     13  C   UNL     1      -4.093  12.621  24.451  0.00  0.00    +0.000 A 
ATOM     14  C   UNL     1      -5.476  12.587  24.261  0.00  0.00    +0.000 A 
ATOM     15  C   UNL     1      -5.999  12.731  22.979  0.00  0.00    +0.000 A 
ATOM     16  F   UNL     1      -7.325  12.664  22.794  0.00  0.00    +0.000 F 
ATOM     17  C   UNL     1      -5.170  12.945  21.887  0.00  0.00    +0.000 A 
ATOM     18  C   UNL     1      -3.794  13.002  22.076  0.00  0.00    +0.000 A 
ENDBRANCH  11  12
ENDBRANCH   8  11
ENDBRANCH   3   5
BRANCH   2  19
ATOM     19  C   UNL     1       2.299   7.673  19.278  0.00  0.00    +0.000 C 
ATOM     20  O   UNL     1       2.453   8.364  18.280  0.00  0.00    +0.000 OA
ATOM     21  N   UNL     1       2.795   6.397  19.484  0.00  0.00    +0.000 N 
ATOM     22  H   UNL     1       2.455   5.904  20.307  0.00  0.00    +0.000 HD
BRANCH  21  23
ATOM     23  C   UNL     1       3.581   5.735  18.471  0.00  0.00    +0.000 C 
ATOM     24  C   UNL     1       3.085   4.292  18.209  0.00  0.00    +0.000 C 
ATOM     25  C   UNL     1       3.734   3.707  16.935  0.00  0.00    +0.000 C 
ATOM     26  C   UNL     1       5.168   4.094  16.887  0.00  0.00    +0.000 A 
ATOM     27  N   UNL     1       6.084   3.689  15.964  0.00  0.00    +0.000 N 
ATOM     28  N   UNL     1       7.290   4.259  16.146  0.00  0.00    +0.000 NA
ATOM     29  C   UNL     1       7.117   5.065  17.200  0.00  0.00    +0.000 A 
ATOM     30  C   UNL     1       5.806   5.008  17.698  0.00  0.00    +0.000 A 
ATOM     31  C   UNL     1       5.101   5.737  18.786  0.00  0.00    +0.000 C 
ATOM     32  H   UNL     1       5.960   3.057  15.180  0.00  0.00    +0.000 HD
ENDBRANCH  21  23
ENDBRANCH   2  19
TORSDOF 5
ENDMDL
MODEL 6
REMARK VINA RESULT:      -7.7      2.171      2.527
REMARK  Name = 
REMARK  5 active torsions:
REMARK  status: ('A' for Active; 'I' for Inactive)
REMARK    1  A    between atoms: C_2  and  C_18
REMARK    2  A    between atoms: N_3  and  C_4
REMARK    3  A    between atoms: C_7  and  O_8
REMARK    4  A    between atoms: O_8  and  C_9
REMARK    5  A    between atoms: N_20  and  C_21
REMARK                            x       y       z     vdW  Elec       q    Type
REMARK                         _______ _______ _______ _____ _____    ______ ____
ROOT
ATOM      1  O   UNL     1       1.172   8.743  20.082  0.00  0.00    +0.000 OA
ATOM      2  C   UNL     1       1.309   9.113  18.924  0.00  0.00    +0.000 C 
ATOM      3  N   UNL     1       0.673  10.141  18.258  0.00  0.00    +0.000 N 
ATOM      4  H   UNL     1       0.854  10.184  17.256  0.00  0.00    +0.000 HD
ENDROOT
BRANCH   3   5
ATOM      5  C   UNL     1      -0.293  11.002  18.807  0.00  0.00    +0.000 A 
ATOM      6  C   UNL     1      -1.659  10.893  18.550  0.00  0.00    +0.000 A 
ATOM      7  C   UNL     1      -2.548  11.814  19.101  0.00  0.00    +0.000 A 
ATOM      8  C   UNL     1      -2.037  12.815  19.909  0.00  0.00    +0.000 A 
ATOM      9  N   UNL     1      -0.720  12.951  20.184  0.00  0.00    +0.000 NA
ATOM     10  C   UNL     1       0.115  12.031  19.651  0.00  0.00    +0.000 A 
BRANCH   8  11
ATOM     11  O   UNL     1      -2.952  13.711  20.449  0.00  0.00    +0.000 OA
BRANCH  11  12
ATOM     12  C   UNL     1      -3.522  13.370  21.655  0.00  0.00    +0.000 A 
ATOM     13  C   UNL     1      -2.713  12.713  22.584  0.00  0.00    +0.000 A 
ATOM     14  C   UNL     1      -3.249  12.325  23.814  0.00  0.00    +0.000 A 
ATOM     15  C   UNL     1      -4.582  12.604  24.104  0.00  0.00    +0.000 A 
ATOM     16  F   UNL     1      -5.104  12.200  25.271  0.00  0.00    +0.000 F 
ATOM     17  C   UNL     1      -5.382  13.294  23.204  0.00  0.00    +0.000 A 
ATOM     18  C   UNL     1      -4.845  13.701  21.988  0.00  0.00    +0.000 A 
ENDBRANCH  11  12
ENDBRANCH   8  11
ENDBRANCH   3   5
BRANCH   2  19
ATOM     19  C   UNL     1       2.259   8.323  18.006  0.00  0.00    +0.000 C 
ATOM     20  O   UNL     1       2.632   8.830  16.956  0.00  0.00    +0.000 OA
ATOM     21  N   UNL     1       2.589   7.065  18.478  0.00  0.00    +0.000 N 
ATOM     22  H   UNL     1       2.079   6.739  19.297  0.00  0.00    +0.000 HD
BRANCH  21  23
ATOM     23  C   UNL     1       3.451   6.191  17.719  0.00  0.00    +0.000 C 
ATOM     24  C   UNL     1       3.174   4.699  18.028  0.00  0.00    +0.000 C 
ATOM     25  C   UNL     1       3.885   3.782  17.009  0.00  0.00    +0.000 C 
ATOM     26  C   UNL     1       5.243   4.314  16.727  0.00  0.00    +0.000 A 
ATOM     27  N   UNL     1       6.196   3.727  15.951  0.00  0.00    +0.000 N 
ATOM     28  N   UNL     1       7.306   4.481  15.834  0.00  0.00    +0.000 NA
ATOM     29  C   UNL     1       7.029   5.585  16.536  0.00  0.00    +0.000 A 
ATOM     30  C   UNL     1       5.749   5.538  17.110  0.00  0.00    +0.000 A 
ATOM     31  C   UNL     1       4.958   6.512  17.909  0.00  0.00    +0.000 C 
ATOM     32  H   UNL     1       6.157   2.841  15.458  0.00  0.00    +0.000 HD
ENDBRANCH  21  23
ENDBRANCH   2  19
TORSDOF 5
ENDMDL
MODEL 7
REMARK VINA RESULT:      -7.7      1.968      2.230
REMARK  Name = 
REMARK  5 active torsions:
REMARK  status: ('A' for Active; 'I' for Inactive)
REMARK    1  A    between atoms: C_2  and  C_18
REMARK    2  A    between atoms: N_3  and  C_4
REMARK    3  A    between atoms: C_7  and  O_8
REMARK    4  A    between atoms: O_8  and  C_9
REMARK    5  A    between atoms: N_20  and  C_21
REMARK                            x       y       z     vdW  Elec       q    Type
REMARK                         _______ _______ _______ _____ _____    ______ ____
ROOT
ATOM      1  O   UNL     1       0.077   9.857  18.129  0.00  0.00    +0.000 OA
ATOM      2  C   UNL     1       1.000   9.358  18.760  0.00  0.00    +0.000 C 
ATOM      3  N   UNL     1       1.310   9.488  20.098  0.00  0.00    +0.000 N 
ATOM      4  H   UNL     1       2.202   9.082  20.377  0.00  0.00    +0.000 HD
ENDROOT
BRANCH   3   5
ATOM      5  C   UNL     1       0.591  10.247  21.038  0.00  0.00    +0.000 A 
ATOM      6  C   UNL     1      -0.253   9.689  21.996  0.00  0.00    +0.000 A 
ATOM      7  C   UNL     1      -0.964  10.515  22.865  0.00  0.00    +0.000 A 
ATOM      8  C   UNL     1      -0.794  11.884  22.754  0.00  0.00    +0.000 A 
ATOM      9  N   UNL     1       0.018  12.462  21.840  0.00  0.00    +0.000 NA
ATOM     10  C   UNL     1       0.709  11.634  21.024  0.00  0.00    +0.000 A 
BRANCH   8  11
ATOM     11  O   UNL     1      -1.511  12.678  23.643  0.00  0.00    +0.000 OA
BRANCH  11  12
ATOM     12  C   UNL     1      -2.868  12.779  23.435  0.00  0.00    +0.000 A 
ATOM     13  C   UNL     1      -3.295  13.160  22.161  0.00  0.00    +0.000 A 
ATOM     14  C   UNL     1      -4.661  13.300  21.904  0.00  0.00    +0.000 A 
ATOM     15  C   UNL     1      -5.582  13.051  22.917  0.00  0.00    +0.000 A 
ATOM     16  F   UNL     1      -6.890  13.218  22.678  0.00  0.00    +0.000 F 
ATOM     17  C   UNL     1      -5.169  12.630  24.174  0.00  0.00    +0.000 A 
ATOM     18  C   UNL     1      -3.811  12.469  24.426  0.00  0.00    +0.000 A 
ENDBRANCH  11  12
ENDBRANCH   8  11
ENDBRANCH   3   5
BRANCH   2  19
ATOM     19  C   UNL     1       2.035   8.509  18.001  0.00  0.00    +0.000 C 
ATOM     20  O   UNL     1       2.653   9.010  17.071  0.00  0.00    +0.000 OA
ATOM     21  N   UNL     1       2.148   7.208  18.460  0.00  0.00    +0.000 N 
ATOM     22  H   UNL     1       1.459   6.907  19.147  0.00  0.00    +0.000 HD
BRANCH  21  23
ATOM     23  C   UNL     1       3.058   6.278  17.836  0.00  0.00    +0.000 C 
ATOM     24  C   UNL     1       2.631   4.808  18.074  0.00  0.00    +0.000 C 
ATOM     25  C   UNL     1       3.431   3.847  17.167  0.00  0.00    +0.000 C 
ATOM     26  C   UNL     1       4.850   4.281  17.115  0.00  0.00    +0.000 A 
ATOM     27  N   UNL     1       5.873   3.631  16.494  0.00  0.00    +0.000 N 
ATOM     28  N   UNL     1       7.037   4.304  16.567  0.00  0.00    +0.000 NA
ATOM     29  C   UNL     1       6.728   5.422  17.233  0.00  0.00    +0.000 A 
ATOM     30  C   UNL     1       5.372   5.465  17.593  0.00  0.00    +0.000 A 
ATOM     31  C   UNL     1       4.533   6.490  18.270  0.00  0.00    +0.000 C 
ATOM     32  H   UNL     1       5.852   2.752  15.986  0.00  0.00    +0.000 HD
ENDBRANCH  21  23
ENDBRANCH   2  19
TORSDOF 5
ENDMDL
MODEL 8
REMARK VINA RESULT:      -7.7      3.641     10.664
REMARK  Name = 
REMARK  5 active torsions:
REMARK  status: ('A' for Active; 'I' for Inactive)
REMARK    1  A    between atoms: C_2  and  C_18
REMARK    2  A    between atoms: N_3  and  C_4
REMARK    3  A    between atoms: C_7  and  O_8
REMARK    4  A    between atoms: O_8  and  C_9
REMARK    5  A    between atoms: N_20  and  C_21
REMARK                            x       y       z     vdW  Elec       q    Type
REMARK                         _______ _______ _______ _____ _____    ______ ____
ROOT
ATOM      1  O   UNL     1       1.461  11.983  21.327  0.00  0.00    +0.000 OA
ATOM      2  C   UNL     1       0.344  11.676  20.933  0.00  0.00    +0.000 C 
ATOM      3  N   UNL     1      -0.037  10.614  20.138  0.00  0.00    +0.000 N 
ATOM      4  H   UNL     1      -1.009  10.629  19.832  0.00  0.00    +0.000 HD
ENDROOT
BRANCH   3   5
ATOM      5  C   UNL     1       0.821   9.633  19.610  0.00  0.00    +0.000 A 
ATOM      6  C   UNL     1       1.215   9.594  18.273  0.00  0.00    +0.000 A 
ATOM      7  C   UNL     1       2.036   8.563  17.818  0.00  0.00    +0.000 A 
ATOM      8  C   UNL     1       2.449   7.605  18.728  0.00  0.00    +0.000 A 
ATOM      9  N   UNL     1       2.090   7.612  20.032  0.00  0.00    +0.000 NA
ATOM     10  C   UNL     1       1.310   8.635  20.447  0.00  0.00    +0.000 A 
BRANCH   8  11
ATOM     11  O   UNL     1       3.274   6.596  18.243  0.00  0.00    +0.000 OA
BRANCH  11  12
ATOM     12  C   UNL     1       2.894   5.299  18.506  0.00  0.00    +0.000 A 
ATOM     13  C   UNL     1       3.637   4.592  19.453  0.00  0.00    +0.000 A 
ATOM     14  C   UNL     1       3.308   3.265  19.739  0.00  0.00    +0.000 A 
ATOM     15  C   UNL     1       2.237   2.665  19.083  0.00  0.00    +0.000 A 
ATOM     16  F   UNL     1       1.943   1.381  19.335  0.00  0.00    +0.000 F 
ATOM     17  C   UNL     1       1.466   3.373  18.172  0.00  0.00    +0.000 A 
ATOM     18  C   UNL     1       1.778   4.700  17.901  0.00  0.00    +0.000 A 
ENDBRANCH  11  12
ENDBRANCH   8  11
ENDBRANCH   3   5
BRANCH   2  19
ATOM     19  C   UNL     1      -0.839  12.597  21.281  0.00  0.00    +0.000 C 
ATOM     20  O   UNL     1      -0.785  13.781  20.972  0.00  0.00    +0.000 OA
ATOM     21  N   UNL     1      -1.872  11.966  21.950  0.00  0.00    +0.000 N 
ATOM     22  H   UNL     1      -1.698  11.011  22.258  0.00  0.00    +0.000 HD
BRANCH  21  23
ATOM     23  C   UNL     1      -3.042  12.700  22.369  0.00  0.00    +0.000 C 
ATOM     24  C   UNL     1      -3.526  12.260  23.773  0.00  0.00    +0.000 C 
ATOM     25  C   UNL     1      -4.581  13.242  24.326  0.00  0.00    +0.000 C 
ATOM     26  C   UNL     1      -5.509  13.639  23.236  0.00  0.00    +0.000 A 
ATOM     27  N   UNL     1      -6.620  14.417  23.362  0.00  0.00    +0.000 N 
ATOM     28  N   UNL     1      -7.223  14.655  22.182  0.00  0.00    +0.000 NA
ATOM     29  C   UNL     1      -6.453  14.026  21.286  0.00  0.00    +0.000 A 
ATOM     30  C   UNL     1      -5.362  13.381  21.889  0.00  0.00    +0.000 A 
ATOM     31  C   UNL     1      -4.206  12.619  21.345  0.00  0.00    +0.000 C 
ATOM     32  H   UNL     1      -7.010  14.837  24.199  0.00  0.00    +0.000 HD
ENDBRANCH  21  23
ENDBRANCH   2  19
TORSDOF 5
ENDMDL
MODEL 9
REMARK VINA RESULT:      -7.6      8.234      9.823
REMARK  Name = 
REMARK  5 active torsions:
REMARK  status: ('A' for Active; 'I' for Inactive)
REMARK    1  A    between atoms: C_2  and  C_18
REMARK    2  A    between atoms: N_3  and  C_4
REMARK    3  A    between atoms: C_7  and  O_8
REMARK    4  A    between atoms: O_8  and  C_9
REMARK    5  A    between atoms: N_20  and  C_21
REMARK                            x       y       z     vdW  Elec       q    Type
REMARK                         _______ _______ _______ _____ _____    ______ ____
ROOT
ATOM      1  O   UNL     1       7.930   9.414  17.113  0.00  0.00    +0.000 OA
ATOM      2  C   UNL     1       8.206   8.791  18.129  0.00  0.00    +0.000 C 
ATOM      3  N   UNL     1       8.969   9.183  19.210  0.00  0.00    +0.000 N 
ATOM      4  H   UNL     1       9.168   8.449  19.888  0.00  0.00    +0.000 HD
ENDROOT
BRANCH   3   5
ATOM      5  C   UNL     1       9.601  10.430  19.361  0.00  0.00    +0.000 A 
ATOM      6  C   UNL     1      10.237  11.102  18.318  0.00  0.00    +0.000 A 
ATOM      7  C   UNL     1      10.877  12.316  18.560  0.00  0.00    +0.000 A 
ATOM      8  C   UNL     1      10.848  12.828  19.846  0.00  0.00    +0.000 A 
ATOM      9  N   UNL     1      10.239  12.206  20.881  0.00  0.00    +0.000 NA
ATOM     10  C   UNL     1       9.610  11.041  20.611  0.00  0.00    +0.000 A 
BRANCH   8  11
ATOM     11  O   UNL     1      11.489  14.045  20.050  0.00  0.00    +0.000 OA
BRANCH  11  12
ATOM     12  C   UNL     1      10.937  15.150  19.442  0.00  0.00    +0.000 A 
ATOM     13  C   UNL     1       9.709  15.604  19.929  0.00  0.00    +0.000 A 
ATOM     14  C   UNL     1       9.095  16.707  19.332  0.00  0.00    +0.000 A 
ATOM     15  C   UNL     1       9.718  17.348  18.265  0.00  0.00    +0.000 A 
ATOM     16  F   UNL     1       9.111  18.387  17.672  0.00  0.00    +0.000 F 
ATOM     17  C   UNL     1      10.958  16.932  17.803  0.00  0.00    +0.000 A 
ATOM     18  C   UNL     1      11.582  15.847  18.409  0.00  0.00    +0.000 A 
ENDBRANCH  11  12
ENDBRANCH   8  11
ENDBRANCH   3   5
BRANCH   2  19
ATOM     19  C   UNL     1       7.719   7.336  18.256  0.00  0.00    +0.000 C 
ATOM     20  O   UNL     1       8.360   6.550  18.942  0.00  0.00    +0.000 OA
ATOM     21  N   UNL     1       6.571   7.057  17.537  0.00  0.00    +0.000 N 
ATOM     22  H   UNL     1       6.243   7.784  16.903  0.00  0.00    +0.000 HD
BRANCH  21  23
ATOM     23  C   UNL     1       6.002   5.730  17.532  0.00  0.00    +0.000 C 
ATOM     24  C   UNL     1       5.165   5.467  16.256  0.00  0.00    +0.000 C 
ATOM     25  C   UNL     1       4.815   3.969  16.125  0.00  0.00    +0.000 C 
ATOM     26  C   UNL     1       4.452   3.426  17.460  0.00  0.00    +0.000 A 
ATOM     27  N   UNL     1       3.998   2.170  17.726  0.00  0.00    +0.000 N 
ATOM     28  N   UNL     1       3.814   1.953  19.042  0.00  0.00    +0.000 NA
ATOM     29  C   UNL     1       4.189   3.099  19.619  0.00  0.00    +0.000 A 
ATOM     30  C   UNL     1       4.605   4.053  18.678  0.00  0.00    +0.000 A 
ATOM     31  C   UNL     1       5.163   5.427  18.802  0.00  0.00    +0.000 C 
ATOM     32  H   UNL     1       3.814   1.410  17.078  0.00  0.00    +0.000 HD
ENDBRANCH  21  23
ENDBRANCH   2  19
TORSDOF 5
ENDMDL
