MODEL 1
REMARK VINA RESULT:      -9.0      0.000      0.000
REMARK  Name = 
REMARK  4 active torsions:
REMARK  status: ('A' for Active; 'I' for Inactive)
REMARK    1  A    between atoms: C_2  and  C_11
REMARK    2  A    between atoms: N_3  and  C_4
REMARK    3  A    between atoms: N_14  and  C_15
REMARK    4  A    between atoms: C_17  and  C_18
REMARK                            x       y       z     vdW  Elec       q    Type
REMARK                         _______ _______ _______ _____ _____    ______ ____
ROOT
ATOM      1  C   UNL     1       0.013  10.145  19.595  0.00  0.00    +0.000 C 
ATOM      2  C   UNL     1       0.176   9.125  20.728  0.00  0.00    +0.000 C 
ATOM      3  C   UNL     1       1.591   8.550  20.785  0.00  0.00    +0.000 C 
ATOM      4  N   UNL     1       1.973   8.006  19.484  0.00  0.00    +0.000 N 
ATOM      5  C   UNL     1       1.823   8.877  18.323  0.00  0.00    +0.000 C 
ATOM      6  C   UNL     1       0.434   9.507  18.268  0.00  0.00    +0.000 C 
ENDROOT
BRANCH   4   7
ATOM      7  C   UNL     1       2.459   6.709  19.408  0.00  0.00    +0.000 A 
ATOM      8  N   UNL     1       1.969   5.854  20.329  0.00  0.00    +0.000 NA
ATOM      9  C   UNL     1       2.298   4.549  20.248  0.00  0.00    +0.000 A 
ATOM     10  N   UNL     1       3.078   4.028  19.283  0.00  0.00    +0.000 NA
ATOM     11  C   UNL     1       3.595   4.872  18.391  0.00  0.00    +0.000 A 
ATOM     12  C   UNL     1       4.399   4.334  17.391  0.00  0.00    +0.000 A 
ATOM     13  C   UNL     1       5.007   5.127  16.414  0.00  0.00    +0.000 A 
ATOM     14  C   UNL     1       4.857   6.498  16.466  0.00  0.00    +0.000 A 
ATOM     15  C   UNL     1       4.075   7.057  17.475  0.00  0.00    +0.000 A 
ATOM     16  C   UNL     1       3.367   6.259  18.416  0.00  0.00    +0.000 A 
BRANCH   9  17
ATOM     17  C   UNL     1       1.745   3.597  21.296  0.00  0.00    +0.000 C 
ATOM     18  F   UNL     1       0.805   2.729  20.814  0.00  0.00    +0.000 F 
ATOM     19  F   UNL     1       2.700   2.816  21.887  0.00  0.00    +0.000 F 
ENDBRANCH   9  17
ENDBRANCH   4   7
BRANCH   1  21
ATOM     20  O   UNL     1       1.176  11.755  20.965  0.00  0.00    +0.000 OA
ATOM     21  C   UNL     1       0.772  11.452  19.848  0.00  0.00    +0.000 C 
ATOM     22  N   UNL     1       0.941  12.210  18.700  0.00  0.00    +0.000 N 
ATOM     23  H   UNL     1       0.474  11.891  17.861  0.00  0.00    +0.000 HD
BRANCH  22  24
ATOM     24  C   UNL     1       1.590  13.458  18.608  0.00  0.00    +0.000 A 
ATOM     25  C   UNL     1       0.957  14.679  18.861  0.00  0.00    +0.000 A 
ATOM     26  C   UNL     1       1.649  15.882  18.696  0.00  0.00    +0.000 A 
ATOM     27  C   UNL     1       2.971  15.861  18.279  0.00  0.00    +0.000 A 
ATOM     28  F   UNL     1       3.625  17.015  18.091  0.00  0.00    +0.000 F 
ATOM     29  C   UNL     1       3.627  14.657  18.053  0.00  0.00    +0.000 A 
ATOM     30  C   UNL     1       2.940  13.454  18.232  0.00  0.00    +0.000 A 
ENDBRANCH  22  24
ENDBRANCH   1  21
TORSDOF 4
ENDMDL
MODEL 2
REMARK VINA RESULT:      -8.8      3.827      5.108
REMARK  Name = 
REMARK  4 active torsions:
REMARK  status: ('A' for Active; 'I' for Inactive)
REMARK    1  A    between atoms: C_2  and  C_11
REMARK    2  A    between atoms: N_3  and  C_4
REMARK    3  A    between atoms: N_14  and  C_15
REMARK    4  A    between atoms: C_17  and  C_18
REMARK                            x       y       z     vdW  Elec       q    Type
REMARK                         _______ _______ _______ _____ _____    ______ ____
ROOT
ATOM      1  C   UNL     1       1.428   9.967  19.520  0.00  0.00    +0.000 C 
ATOM      2  C   UNL     1       2.156   9.853  18.176  0.00  0.00    +0.000 C 
ATOM      3  C   UNL     1       1.968   8.478  17.535  0.00  0.00    +0.000 C 
ATOM      4  N   UNL     1       2.353   7.424  18.470  0.00  0.00    +0.000 N 
ATOM      5  C   UNL     1       1.751   7.454  19.799  0.00  0.00    +0.000 C 
ATOM      6  C   UNL     1       1.877   8.831  20.443  0.00  0.00    +0.000 C 
ENDROOT
BRANCH   4   7
ATOM      7  C   UNL     1       3.254   6.452  18.061  0.00  0.00    +0.000 A 
ATOM      8  N   UNL     1       4.496   6.897  17.780  0.00  0.00    +0.000 NA
ATOM      9  C   UNL     1       5.462   6.001  17.493  0.00  0.00    +0.000 A 
ATOM     10  N   UNL     1       5.275   4.669  17.489  0.00  0.00    +0.000 NA
ATOM     11  C   UNL     1       4.042   4.223  17.731  0.00  0.00    +0.000 A 
ATOM     12  C   UNL     1       3.848   2.845  17.730  0.00  0.00    +0.000 A 
ATOM     13  C   UNL     1       2.595   2.267  17.954  0.00  0.00    +0.000 A 
ATOM     14  C   UNL     1       1.496   3.082  18.128  0.00  0.00    +0.000 A 
ATOM     15  C   UNL     1       1.667   4.465  18.107  0.00  0.00    +0.000 A 
ATOM     16  C   UNL     1       2.949   5.069  17.982  0.00  0.00    +0.000 A 
BRANCH   9  17
ATOM     17  C   UNL     1       6.855   6.516  17.170  0.00  0.00    +0.000 C 
ATOM     18  F   UNL     1       6.999   7.865  17.341  0.00  0.00    +0.000 F 
ATOM     19  F   UNL     1       7.841   5.942  17.923  0.00  0.00    +0.000 F 
ENDBRANCH   9  17
ENDBRANCH   4   7
BRANCH   1  21
ATOM     20  O   UNL     1      -0.832   9.508  20.232  0.00  0.00    +0.000 OA
ATOM     21  C   UNL     1      -0.098   9.996  19.379  0.00  0.00    +0.000 C 
ATOM     22  N   UNL     1      -0.522  10.622  18.217  0.00  0.00    +0.000 N 
ATOM     23  H   UNL     1       0.189  10.895  17.551  0.00  0.00    +0.000 HD
BRANCH  22  24
ATOM     24  C   UNL     1      -1.857  10.802  17.802  0.00  0.00    +0.000 A 
ATOM     25  C   UNL     1      -2.376  10.272  16.616  0.00  0.00    +0.000 A 
ATOM     26  C   UNL     1      -3.696  10.538  16.241  0.00  0.00    +0.000 A 
ATOM     27  C   UNL     1      -4.492  11.333  17.051  0.00  0.00    +0.000 A 
ATOM     28  F   UNL     1      -5.747  11.613  16.675  0.00  0.00    +0.000 F 
ATOM     29  C   UNL     1      -4.005  11.843  18.248  0.00  0.00    +0.000 A 
ATOM     30  C   UNL     1      -2.691  11.565  18.631  0.00  0.00    +0.000 A 
ENDBRANCH  22  24
ENDBRANCH   1  21
TORSDOF 4
ENDMDL
MODEL 3
REMARK VINA RESULT:      -8.6      3.944      5.076
REMARK  Name = 
REMARK  4 active torsions:
REMARK  status: ('A' for Active; 'I' for Inactive)
REMARK    1  A    between atoms: C_2  and  C_11
REMARK    2  A    between atoms: N_3  and  C_4
REMARK    3  A    between atoms: N_14  and  C_15
REMARK    4  A    between atoms: C_17  and  C_18
REMARK                            x       y       z     vdW  Elec       q    Type
REMARK                         _______ _______ _______ _____ _____    ______ ____
ROOT
ATOM      1  C   UNL     1       1.464   9.946  19.572  0.00  0.00    +0.000 C 
ATOM      2  C   UNL     1       2.154   9.820  18.208  0.00  0.00    +0.000 C 
ATOM      3  C   UNL     1       1.931   8.447  17.575  0.00  0.00    +0.000 C 
ATOM      4  N   UNL     1       2.326   7.389  18.502  0.00  0.00    +0.000 N 
ATOM      5  C   UNL     1       1.761   7.429  19.846  0.00  0.00    +0.000 C 
ATOM      6  C   UNL     1       1.924   8.806  20.484  0.00  0.00    +0.000 C 
ENDROOT
BRANCH   4   7
ATOM      7  C   UNL     1       3.204   6.404  18.070  0.00  0.00    +0.000 A 
ATOM      8  N   UNL     1       4.442   6.833  17.752  0.00  0.00    +0.000 NA
ATOM      9  C   UNL     1       5.388   5.924  17.440  0.00  0.00    +0.000 A 
ATOM     10  N   UNL     1       5.184   4.594  17.446  0.00  0.00    +0.000 NA
ATOM     11  C   UNL     1       3.953   4.164  17.726  0.00  0.00    +0.000 A 
ATOM     12  C   UNL     1       3.742   2.789  17.735  0.00  0.00    +0.000 A 
ATOM     13  C   UNL     1       2.489   2.228  17.997  0.00  0.00    +0.000 A 
ATOM     14  C   UNL     1       1.405   3.058  18.200  0.00  0.00    +0.000 A 
ATOM     15  C   UNL     1       1.593   4.438  18.169  0.00  0.00    +0.000 A 
ATOM     16  C   UNL     1       2.878   5.026  18.005  0.00  0.00    +0.000 A 
BRANCH   9  17
ATOM     17  C   UNL     1       6.777   6.420  17.075  0.00  0.00    +0.000 C 
ATOM     18  F   UNL     1       7.633   6.498  18.139  0.00  0.00    +0.000 F 
ATOM     19  F   UNL     1       7.412   5.643  16.147  0.00  0.00    +0.000 F 
ENDBRANCH   9  17
ENDBRANCH   4   7
BRANCH   1  21
ATOM     20  O   UNL     1      -0.781   9.436  20.295  0.00  0.00    +0.000 OA
ATOM     21  C   UNL     1      -0.064   9.995  19.472  0.00  0.00    +0.000 C 
ATOM     22  N   UNL     1      -0.512  10.726  18.383  0.00  0.00    +0.000 N 
ATOM     23  H   UNL     1       0.184  11.055  17.727  0.00  0.00    +0.000 HD
BRANCH  22  24
ATOM     24  C   UNL     1      -1.856  10.950  18.019  0.00  0.00    +0.000 A 
ATOM     25  C   UNL     1      -2.741  11.728  18.773  0.00  0.00    +0.000 A 
ATOM     26  C   UNL     1      -4.076  11.859  18.380  0.00  0.00    +0.000 A 
ATOM     27  C   UNL     1      -4.521  11.215  17.236  0.00  0.00    +0.000 A 
ATOM     28  F   UNL     1      -5.808  11.316  16.878  0.00  0.00    +0.000 F 
ATOM     29  C   UNL     1      -3.650  10.463  16.458  0.00  0.00    +0.000 A 
ATOM     30  C   UNL     1      -2.312  10.343  16.841  0.00  0.00    +0.000 A 
ENDBRANCH  22  24
ENDBRANCH   1  21
TORSDOF 4
ENDMDL
MODEL 4
REMARK VINA RESULT:      -8.5      3.794      5.113
REMARK  Name = 
REMARK  4 active torsions:
REMARK  status: ('A' for Active; 'I' for Inactive)
REMARK    1  A    between atoms: C_2  and  C_11
REMARK    2  A    between atoms: N_3  and  C_4
REMARK    3  A    between atoms: N_14  and  C_15
REMARK    4  A    between atoms: C_17  and  C_18
REMARK                            x       y       z     vdW  Elec       q    Type
REMARK                         _______ _______ _______ _____ _____    ______ ____
ROOT
ATOM      1  C   UNL     1       1.318  10.171  19.159  0.00  0.00    +0.000 C 
ATOM      2  C   UNL     1       1.947   9.523  17.920  0.00  0.00    +0.000 C 
ATOM      3  C   UNL     1       1.668   8.022  17.851  0.00  0.00    +0.000 C 
ATOM      4  N   UNL     1       2.079   7.370  19.092  0.00  0.00    +0.000 N 
ATOM      5  C   UNL     1       1.571   7.926  20.341  0.00  0.00    +0.000 C 
ATOM      6  C   UNL     1       1.790   9.435  20.416  0.00  0.00    +0.000 C 
ENDROOT
BRANCH   4   7
ATOM      7  C   UNL     1       2.916   6.265  19.031  0.00  0.00    +0.000 A 
ATOM      8  N   UNL     1       4.088   6.462  18.394  0.00  0.00    +0.000 NA
ATOM      9  C   UNL     1       5.007   5.475  18.397  0.00  0.00    +0.000 A 
ATOM     10  N   UNL     1       4.841   4.295  19.021  0.00  0.00    +0.000 NA
ATOM     11  C   UNL     1       3.671   4.079  19.623  0.00  0.00    +0.000 A 
ATOM     12  C   UNL     1       3.500   2.860  20.272  0.00  0.00    +0.000 A 
ATOM     13  C   UNL     1       2.310   2.520  20.920  0.00  0.00    +0.000 A 
ATOM     14  C   UNL     1       1.241   3.392  20.874  0.00  0.00    +0.000 A 
ATOM     15  C   UNL     1       1.387   4.608  20.208  0.00  0.00    +0.000 A 
ATOM     16  C   UNL     1       2.622   5.014  19.631  0.00  0.00    +0.000 A 
BRANCH   9  17
ATOM     17  C   UNL     1       6.320   5.707  17.668  0.00  0.00    +0.000 C 
ATOM     18  F   UNL     1       6.170   6.087  16.363  0.00  0.00    +0.000 F 
ATOM     19  F   UNL     1       7.106   6.667  18.244  0.00  0.00    +0.000 F 
ENDBRANCH   9  17
ENDBRANCH   4   7
BRANCH   1  21
ATOM     20  O   UNL     1      -0.912   9.800  20.004  0.00  0.00    +0.000 OA
ATOM     21  C   UNL     1      -0.212  10.234  19.095  0.00  0.00    +0.000 C 
ATOM     22  N   UNL     1      -0.680  10.824  17.932  0.00  0.00    +0.000 N 
ATOM     23  H   UNL     1       0.001  11.051  17.219  0.00  0.00    +0.000 HD
BRANCH  22  24
ATOM     24  C   UNL     1      -2.031  11.022  17.578  0.00  0.00    +0.000 A 
ATOM     25  C   UNL     1      -2.568  10.657  16.339  0.00  0.00    +0.000 A 
ATOM     26  C   UNL     1      -3.904  10.935  16.038  0.00  0.00    +0.000 A 
ATOM     27  C   UNL     1      -4.699  11.576  16.975  0.00  0.00    +0.000 A 
ATOM     28  F   UNL     1      -5.971  11.871  16.674  0.00  0.00    +0.000 F 
ATOM     29  C   UNL     1      -4.194  11.919  18.223  0.00  0.00    +0.000 A 
ATOM     30  C   UNL     1      -2.862  11.628  18.530  0.00  0.00    +0.000 A 
ENDBRANCH  22  24
ENDBRANCH   1  21
TORSDOF 4
ENDMDL
MODEL 5
REMARK VINA RESULT:      -8.4      2.230      3.171
REMARK  Name = 
REMARK  4 active torsions:
REMARK  status: ('A' for Active; 'I' for Inactive)
REMARK    1  A    between atoms: C_2  and  C_11
REMARK    2  A    between atoms: N_3  and  C_4
REMARK    3  A    between atoms: N_14  and  C_15
REMARK    4  A    between atoms: C_17  and  C_18
REMARK                            x       y       z     vdW  Elec       q    Type
REMARK                         _______ _______ _______ _____ _____    ______ ____
ROOT
ATOM      1  C   UNL     1       0.098   9.906  19.685  0.00  0.00    +0.000 C 
ATOM      2  C   UNL     1       0.563   8.778  20.614  0.00  0.00    +0.000 C 
ATOM      3  C   UNL     1       2.006   8.360  20.333  0.00  0.00    +0.000 C 
ATOM      4  N   UNL     1       2.174   8.027  18.920  0.00  0.00    +0.000 N 
ATOM      5  C   UNL     1       1.729   9.012  17.941  0.00  0.00    +0.000 C 
ATOM      6  C   UNL     1       0.307   9.487  18.227  0.00  0.00    +0.000 C 
ENDROOT
BRANCH   4   7
ATOM      7  C   UNL     1       2.745   6.810  18.575  0.00  0.00    +0.000 A 
ATOM      8  N   UNL     1       3.589   6.845  17.523  0.00  0.00    +0.000 NA
ATOM      9  C   UNL     1       4.277   5.731  17.200  0.00  0.00    +0.000 A 
ATOM     10  N   UNL     1       4.195   4.573  17.881  0.00  0.00    +0.000 NA
ATOM     11  C   UNL     1       3.337   4.520  18.900  0.00  0.00    +0.000 A 
ATOM     12  C   UNL     1       3.254   3.324  19.605  0.00  0.00    +0.000 A 
ATOM     13  C   UNL     1       2.376   3.149  20.679  0.00  0.00    +0.000 A 
ATOM     14  C   UNL     1       1.519   4.174  21.025  0.00  0.00    +0.000 A 
ATOM     15  C   UNL     1       1.571   5.371  20.313  0.00  0.00    +0.000 A 
ATOM     16  C   UNL     1       2.526   5.602  19.285  0.00  0.00    +0.000 A 
BRANCH   9  17
ATOM     17  C   UNL     1       5.218   5.781  16.008  0.00  0.00    +0.000 C 
ATOM     18  F   UNL     1       5.166   4.669  15.215  0.00  0.00    +0.000 F 
ATOM     19  F   UNL     1       4.992   6.841  15.174  0.00  0.00    +0.000 F 
ENDBRANCH   9  17
ENDBRANCH   4   7
BRANCH   1  21
ATOM     20  O   UNL     1       1.194  11.526  21.100  0.00  0.00    +0.000 OA
ATOM     21  C   UNL     1       0.778  11.248  19.980  0.00  0.00    +0.000 C 
ATOM     22  N   UNL     1       0.866  12.066  18.865  0.00  0.00    +0.000 N 
ATOM     23  H   UNL     1       0.397  11.756  18.024  0.00  0.00    +0.000 HD
BRANCH  22  24
ATOM     24  C   UNL     1       1.431  13.357  18.816  0.00  0.00    +0.000 A 
ATOM     25  C   UNL     1       0.756  14.512  19.225  0.00  0.00    +0.000 A 
ATOM     26  C   UNL     1       1.359  15.766  19.095  0.00  0.00    +0.000 A 
ATOM     27  C   UNL     1       2.634  15.862  18.558  0.00  0.00    +0.000 A 
ATOM     28  F   UNL     1       3.198  17.067  18.405  0.00  0.00    +0.000 F 
ATOM     29  C   UNL     1       3.332  14.724  18.175  0.00  0.00    +0.000 A 
ATOM     30  C   UNL     1       2.736  13.469  18.318  0.00  0.00    +0.000 A 
ENDBRANCH  22  24
ENDBRANCH   1  21
TORSDOF 4
ENDMDL
MODEL 6
REMARK VINA RESULT:      -8.3      3.227      4.118
REMARK  Name = 
REMARK  4 active torsions:
REMARK  status: ('A' for Active; 'I' for Inactive)
REMARK    1  A    between atoms: C_2  and  C_11
REMARK    2  A    between atoms: N_3  and  C_4
REMARK    3  A    between atoms: N_14  and  C_15
REMARK    4  A    between atoms: C_17  and  C_18
REMARK                            x       y       z     vdW  Elec       q    Type
REMARK                         _______ _______ _______ _____ _____    ______ ____
ROOT
ATOM      1  C   UNL     1       1.369  10.045  19.151  0.00  0.00    +0.000 C 
ATOM      2  C   UNL     1       1.960   9.362  17.913  0.00  0.00    +0.000 C 
ATOM      3  C   UNL     1       1.627   7.871  17.863  0.00  0.00    +0.000 C 
ATOM      4  N   UNL     1       2.028   7.218  19.107  0.00  0.00    +0.000 N 
ATOM      5  C   UNL     1       1.556   7.805  20.356  0.00  0.00    +0.000 C 
ATOM      6  C   UNL     1       1.829   9.306  20.411  0.00  0.00    +0.000 C 
ENDROOT
BRANCH   4   7
ATOM      7  C   UNL     1       2.825   6.083  19.049  0.00  0.00    +0.000 A 
ATOM      8  N   UNL     1       2.492   5.099  19.910  0.00  0.00    +0.000 NA
ATOM      9  C   UNL     1       3.139   3.919  19.834  0.00  0.00    +0.000 A 
ATOM     10  N   UNL     1       4.095   3.642  18.928  0.00  0.00    +0.000 NA
ATOM     11  C   UNL     1       4.453   4.620  18.097  0.00  0.00    +0.000 A 
ATOM     12  C   UNL     1       5.439   4.333  17.158  0.00  0.00    +0.000 A 
ATOM     13  C   UNL     1       5.905   5.288  16.249  0.00  0.00    +0.000 A 
ATOM     14  C   UNL     1       5.417   6.577  16.313  0.00  0.00    +0.000 A 
ATOM     15  C   UNL     1       4.447   6.889  17.264  0.00  0.00    +0.000 A 
ATOM     16  C   UNL     1       3.888   5.907  18.128  0.00  0.00    +0.000 A 
BRANCH   9  17
ATOM     17  C   UNL     1       2.761   2.821  20.815  0.00  0.00    +0.000 C 
ATOM     18  F   UNL     1       2.454   3.279  22.066  0.00  0.00    +0.000 F 
ATOM     19  F   UNL     1       1.684   2.078  20.419  0.00  0.00    +0.000 F 
ENDBRANCH   9  17
ENDBRANCH   4   7
BRANCH   1  21
ATOM     20  O   UNL     1      -0.859   9.824  20.052  0.00  0.00    +0.000 OA
ATOM     21  C   UNL     1      -0.159  10.162  19.104  0.00  0.00    +0.000 C 
ATOM     22  N   UNL     1      -0.624  10.681  17.906  0.00  0.00    +0.000 N 
ATOM     23  H   UNL     1       0.054  10.828  17.170  0.00  0.00    +0.000 HD
BRANCH  22  24
ATOM     24  C   UNL     1      -1.972  10.904  17.557  0.00  0.00    +0.000 A 
ATOM     25  C   UNL     1      -2.516  10.560  16.316  0.00  0.00    +0.000 A 
ATOM     26  C   UNL     1      -3.848  10.863  16.020  0.00  0.00    +0.000 A 
ATOM     27  C   UNL     1      -4.632  11.507  16.965  0.00  0.00    +0.000 A 
ATOM     28  F   UNL     1      -5.899  11.824  16.669  0.00  0.00    +0.000 F 
ATOM     29  C   UNL     1      -4.119  11.829  18.215  0.00  0.00    +0.000 A 
ATOM     30  C   UNL     1      -2.792  11.513  18.517  0.00  0.00    +0.000 A 
ENDBRANCH  22  24
ENDBRANCH   1  21
TORSDOF 4
ENDMDL
MODEL 7
REMARK VINA RESULT:      -8.3      4.689      8.362
REMARK  Name = 
REMARK  4 active torsions:
REMARK  status: ('A' for Active; 'I' for Inactive)
REMARK    1  A    between atoms: C_2  and  C_11
REMARK    2  A    between atoms: N_3  and  C_4
REMARK    3  A    between atoms: N_14  and  C_15
REMARK    4  A    between atoms: C_17  and  C_18
REMARK                            x       y       z     vdW  Elec       q    Type
REMARK                         _______ _______ _______ _____ _____    ______ ____
ROOT
ATOM      1  C   UNL     1       6.674   6.419  16.942  0.00  0.00    +0.000 C 
ATOM      2  C   UNL     1       6.695   5.949  18.401  0.00  0.00    +0.000 C 
ATOM      3  C   UNL     1       5.541   4.997  18.716  0.00  0.00    +0.000 C 
ATOM      4  N   UNL     1       4.265   5.602  18.341  0.00  0.00    +0.000 N 
ATOM      5  C   UNL     1       4.142   6.122  16.984  0.00  0.00    +0.000 C 
ATOM      6  C   UNL     1       5.310   7.036  16.623  0.00  0.00    +0.000 C 
ENDROOT
BRANCH   4   7
ATOM      7  C   UNL     1       3.240   5.651  19.275  0.00  0.00    +0.000 A 
ATOM      8  N   UNL     1       3.069   4.530  20.005  0.00  0.00    +0.000 NA
ATOM      9  C   UNL     1       2.175   4.538  21.014  0.00  0.00    +0.000 A 
ATOM     10  N   UNL     1       1.445   5.614  21.364  0.00  0.00    +0.000 NA
ATOM     11  C   UNL     1       1.583   6.714  20.625  0.00  0.00    +0.000 A 
ATOM     12  C   UNL     1       0.831   7.828  20.988  0.00  0.00    +0.000 A 
ATOM     13  C   UNL     1       0.883   9.029  20.275  0.00  0.00    +0.000 A 
ATOM     14  C   UNL     1       1.660   9.107  19.137  0.00  0.00    +0.000 A 
ATOM     15  C   UNL     1       2.402   7.993  18.745  0.00  0.00    +0.000 A 
ATOM     16  C   UNL     1       2.440   6.798  19.514  0.00  0.00    +0.000 A 
BRANCH   9  17
ATOM     17  C   UNL     1       1.985   3.267  21.824  0.00  0.00    +0.000 C 
ATOM     18  F   UNL     1       0.897   2.529  21.449  0.00  0.00    +0.000 F 
ATOM     19  F   UNL     1       3.051   2.412  21.762  0.00  0.00    +0.000 F 
ENDBRANCH   9  17
ENDBRANCH   4   7
BRANCH   1  21
ATOM     20  O   UNL     1       7.870   4.456  16.206  0.00  0.00    +0.000 OA
ATOM     21  C   UNL     1       7.027   5.308  15.946  0.00  0.00    +0.000 C 
ATOM     22  N   UNL     1       6.297   5.385  14.771  0.00  0.00    +0.000 N 
ATOM     23  H   UNL     1       5.703   6.194  14.645  0.00  0.00    +0.000 HD
BRANCH  22  24
ATOM     24  C   UNL     1       6.396   4.515  13.666  0.00  0.00    +0.000 A 
ATOM     25  C   UNL     1       5.437   3.544  13.357  0.00  0.00    +0.000 A 
ATOM     26  C   UNL     1       5.629   2.678  12.277  0.00  0.00    +0.000 A 
ATOM     27  C   UNL     1       6.778   2.786  11.508  0.00  0.00    +0.000 A 
ATOM     28  F   UNL     1       6.976   1.936  10.492  0.00  0.00    +0.000 F 
ATOM     29  C   UNL     1       7.727   3.763  11.779  0.00  0.00    +0.000 A 
ATOM     30  C   UNL     1       7.529   4.638  12.849  0.00  0.00    +0.000 A 
ENDBRANCH  22  24
ENDBRANCH   1  21
TORSDOF 4
ENDMDL
MODEL 8
REMARK VINA RESULT:      -8.2      2.261      3.309
REMARK  Name = 
REMARK  4 active torsions:
REMARK  status: ('A' for Active; 'I' for Inactive)
REMARK    1  A    between atoms: C_2  and  C_11
REMARK    2  A    between atoms: N_3  and  C_4
REMARK    3  A    between atoms: N_14  and  C_15
REMARK    4  A    between atoms: C_17  and  C_18
REMARK                            x       y       z     vdW  Elec       q    Type
REMARK                         _______ _______ _______ _____ _____    ______ ____
ROOT
ATOM      1  C   UNL     1       0.107   9.895  19.560  0.00  0.00    +0.000 C 
ATOM      2  C   UNL     1       0.584   8.800  20.522  0.00  0.00    +0.000 C 
ATOM      3  C   UNL     1       2.037   8.400  20.264  0.00  0.00    +0.000 C 
ATOM      4  N   UNL     1       2.222   8.032  18.862  0.00  0.00    +0.000 N 
ATOM      5  C   UNL     1       1.768   8.983  17.853  0.00  0.00    +0.000 C 
ATOM      6  C   UNL     1       0.336   9.440  18.115  0.00  0.00    +0.000 C 
ENDROOT
BRANCH   4   7
ATOM      7  C   UNL     1       2.817   6.817  18.554  0.00  0.00    +0.000 A 
ATOM      8  N   UNL     1       3.719   6.852  17.552  0.00  0.00    +0.000 NA
ATOM      9  C   UNL     1       4.429   5.741  17.273  0.00  0.00    +0.000 A 
ATOM     10  N   UNL     1       4.314   4.585  17.952  0.00  0.00    +0.000 NA
ATOM     11  C   UNL     1       3.400   4.532  18.921  0.00  0.00    +0.000 A 
ATOM     12  C   UNL     1       3.284   3.337  19.626  0.00  0.00    +0.000 A 
ATOM     13  C   UNL     1       2.347   3.163  20.649  0.00  0.00    +0.000 A 
ATOM     14  C   UNL     1       1.467   4.185  20.942  0.00  0.00    +0.000 A 
ATOM     15  C   UNL     1       1.554   5.380  20.229  0.00  0.00    +0.000 A 
ATOM     16  C   UNL     1       2.565   5.611  19.256  0.00  0.00    +0.000 A 
BRANCH   9  17
ATOM     17  C   UNL     1       5.436   5.791  16.136  0.00  0.00    +0.000 C 
ATOM     18  F   UNL     1       5.031   6.548  15.072  0.00  0.00    +0.000 F 
ATOM     19  F   UNL     1       6.655   6.291  16.502  0.00  0.00    +0.000 F 
ENDBRANCH   9  17
ENDBRANCH   4   7
BRANCH   1  21
ATOM     20  O   UNL     1       1.172  11.567  20.936  0.00  0.00    +0.000 OA
ATOM     21  C   UNL     1       0.761  11.256  19.823  0.00  0.00    +0.000 C 
ATOM     22  N   UNL     1       0.832  12.050  18.690  0.00  0.00    +0.000 N 
ATOM     23  H   UNL     1       0.369  11.712  17.856  0.00  0.00    +0.000 HD
BRANCH  22  24
ATOM     24  C   UNL     1       1.371  13.350  18.611  0.00  0.00    +0.000 A 
ATOM     25  C   UNL     1       2.704  13.616  18.279  0.00  0.00    +0.000 A 
ATOM     26  C   UNL     1       3.183  14.929  18.275  0.00  0.00    +0.000 A 
ATOM     27  C   UNL     1       2.330  15.971  18.601  0.00  0.00    +0.000 A 
ATOM     28  F   UNL     1       2.798  17.226  18.627  0.00  0.00    +0.000 F 
ATOM     29  C   UNL     1       0.996  15.731  18.903  0.00  0.00    +0.000 A 
ATOM     30  C   UNL     1       0.512  14.421  18.893  0.00  0.00    +0.000 A 
ENDBRANCH  22  24
ENDBRANCH   1  21
TORSDOF 4
ENDMDL
MODEL 9
REMARK VINA RESULT:      -8.2      3.366      4.133
REMARK  Name = 
REMARK  4 active torsions:
REMARK  status: ('A' for Active; 'I' for Inactive)
REMARK    1  A    between atoms: C_2  and  C_11
REMARK    2  A    between atoms: N_3  and  C_4
REMARK    3  A    between atoms: N_14  and  C_15
REMARK    4  A    between atoms: C_17  and  C_18
REMARK                            x       y       z     vdW  Elec       q    Type
REMARK                         _______ _______ _______ _____ _____    ______ ____
ROOT
ATOM      1  C   UNL     1       1.591   9.687  19.295  0.00  0.00    +0.000 C 
ATOM      2  C   UNL     1       2.082   9.173  17.937  0.00  0.00    +0.000 C 
ATOM      3  C   UNL     1       1.594   7.754  17.648  0.00  0.00    +0.000 C 
ATOM      4  N   UNL     1       1.950   6.859  18.747  0.00  0.00    +0.000 N 
ATOM      5  C   UNL     1       1.567   7.266  20.094  0.00  0.00    +0.000 C 
ATOM      6  C   UNL     1       1.997   8.699  20.393  0.00  0.00    +0.000 C 
ENDROOT
BRANCH   4   7
ATOM      7  C   UNL     1       2.622   5.678  18.466  0.00  0.00    +0.000 A 
ATOM      8  N   UNL     1       2.025   4.553  18.911  0.00  0.00    +0.000 NA
ATOM      9  C   UNL     1       2.550   3.358  18.575  0.00  0.00    +0.000 A 
ATOM     10  N   UNL     1       3.636   3.206  17.795  0.00  0.00    +0.000 NA
ATOM     11  C   UNL     1       4.253   4.313  17.381  0.00  0.00    +0.000 A 
ATOM     12  C   UNL     1       5.374   4.156  16.572  0.00  0.00    +0.000 A 
ATOM     13  C   UNL     1       6.109   5.246  16.095  0.00  0.00    +0.000 A 
ATOM     14  C   UNL     1       5.752   6.522  16.480  0.00  0.00    +0.000 A 
ATOM     15  C   UNL     1       4.646   6.696  17.310  0.00  0.00    +0.000 A 
ATOM     16  C   UNL     1       3.827   5.608  17.721  0.00  0.00    +0.000 A 
BRANCH   9  17
ATOM     17  C   UNL     1       1.872   2.099  19.088  0.00  0.00    +0.000 C 
ATOM     18  F   UNL     1       1.724   2.065  20.447  0.00  0.00    +0.000 F 
ATOM     19  F   UNL     1       0.619   1.901  18.576  0.00  0.00    +0.000 F 
ENDBRANCH   9  17
ENDBRANCH   4   7
BRANCH   1  21
ATOM     20  O   UNL     1      -0.587   9.756  20.333  0.00  0.00    +0.000 OA
ATOM     21  C   UNL     1       0.083   9.961  19.326  0.00  0.00    +0.000 C 
ATOM     22  N   UNL     1      -0.402  10.455  18.126  0.00  0.00    +0.000 N 
ATOM     23  H   UNL     1       0.240  10.486  17.344  0.00  0.00    +0.000 HD
BRANCH  22  24
ATOM     24  C   UNL     1      -1.739  10.798  17.840  0.00  0.00    +0.000 A 
ATOM     25  C   UNL     1      -2.519  11.619  18.661  0.00  0.00    +0.000 A 
ATOM     26  C   UNL     1      -3.856  11.872  18.343  0.00  0.00    +0.000 A 
ATOM     27  C   UNL     1      -4.409  11.304  17.206  0.00  0.00    +0.000 A 
ATOM     28  F   UNL     1      -5.700  11.520  16.918  0.00  0.00    +0.000 F 
ATOM     29  C   UNL     1      -3.643  10.511  16.361  0.00  0.00    +0.000 A 
ATOM     30  C   UNL     1      -2.302  10.270  16.670  0.00  0.00    +0.000 A 
ENDBRANCH  22  24
ENDBRANCH   1  21
TORSDOF 4
ENDMDL
