MODEL 1
REMARK VINA RESULT:      -8.8      0.000      0.000
REMARK  Name = 
REMARK  3 active torsions:
REMARK  status: ('A' for Active; 'I' for Inactive)
REMARK    1  A    between atoms: C_1  and  C_2
REMARK    2  A    between atoms: C_7  and  C_9
REMARK    3  A    between atoms: N_13  and  C_14
REMARK                            x       y       z     vdW  Elec       q    Type
REMARK                         _______ _______ _______ _____ _____    ______ ____
ROOT
ATOM      1  C   UNL     1       2.920   4.819  19.018  0.00  0.00    +0.000 C 
ATOM      2  C   UNL     1       4.152   4.572  19.866  0.00  0.00    +0.000 C 
ATOM      3  C   UNL     1       5.282   4.747  18.882  0.00  0.00    +0.000 C 
ATOM      4  O   UNL     1       6.441   4.911  19.225  0.00  0.00    +0.000 OA
ATOM      5  N   UNL     1       4.739   4.668  17.589  0.00  0.00    +0.000 N 
ATOM      6  C   UNL     1       3.326   4.369  17.637  0.00  0.00    +0.000 C 
ENDROOT
BRANCH   1  13
ATOM      7  C   UNL     1       0.026  12.015  21.028  0.00  0.00    +0.000 C 
ATOM      8  C   UNL     1       0.579  10.634  20.874  0.00  0.00    +0.000 A 
ATOM      9  C   UNL     1       0.718   9.769  21.959  0.00  0.00    +0.000 A 
ATOM     10  C   UNL     1       1.229   8.481  21.761  0.00  0.00    +0.000 A 
ATOM     11  C   UNL     1       1.585   8.084  20.473  0.00  0.00    +0.000 A 
ATOM     12  N   UNL     1       2.072   6.779  20.274  0.00  0.00    +0.000 N 
ATOM     13  C   UNL     1       2.446   6.270  19.044  0.00  0.00    +0.000 C 
ATOM     14  O   UNL     1       2.427   6.873  17.969  0.00  0.00    +0.000 OA
ATOM     15  N   UNL     1       1.463   8.917  19.428  0.00  0.00    +0.000 NA
ATOM     16  C   UNL     1       0.971  10.155  19.637  0.00  0.00    +0.000 A 
ATOM     17  H   UNL     1       2.168   6.208  21.105  0.00  0.00    +0.000 HD
ENDBRANCH   1  13
BRANCH   5  18
ATOM     18  C   UNL     1       5.465   4.712  16.374  0.00  0.00    +0.000 A 
ATOM     19  C   UNL     1       6.699   5.386  16.289  0.00  0.00    +0.000 A 
ATOM     20  C   UNL     1       7.444   5.410  15.105  0.00  0.00    +0.000 A 
ATOM     21  C   UNL     1       6.939   4.750  14.004  0.00  0.00    +0.000 A 
ATOM     22  C   UNL     1       5.702   4.110  14.056  0.00  0.00    +0.000 A 
ATOM     23  C   UNL     1       4.955   4.087  15.223  0.00  0.00    +0.000 A 
ATOM     24  C   UNL     1       5.338   3.546  12.719  0.00  0.00    +0.000 C 
ATOM     25  C   UNL     1       6.716   3.487  12.047  0.00  0.00    +0.000 C 
ATOM     26  C   UNL     1       7.540   4.641  12.638  0.00  0.00    +0.000 C 
ENDBRANCH   5  18
TORSDOF 2
ENDMDL
MODEL 2
REMARK VINA RESULT:      -8.7      1.575      8.130
REMARK  Name = 
REMARK  3 active torsions:
REMARK  status: ('A' for Active; 'I' for Inactive)
REMARK    1  A    between atoms: C_1  and  C_2
REMARK    2  A    between atoms: C_7  and  C_9
REMARK    3  A    between atoms: N_13  and  C_14
REMARK                            x       y       z     vdW  Elec       q    Type
REMARK                         _______ _______ _______ _____ _____    ______ ____
ROOT
ATOM      1  C   UNL     1       4.518   4.037  19.325  0.00  0.00    +0.000 C 
ATOM      2  C   UNL     1       3.242   3.398  19.838  0.00  0.00    +0.000 C 
ATOM      3  C   UNL     1       2.221   4.494  19.666  0.00  0.00    +0.000 C 
ATOM      4  O   UNL     1       1.018   4.290  19.696  0.00  0.00    +0.000 OA
ATOM      5  N   UNL     1       2.915   5.703  19.497  0.00  0.00    +0.000 N 
ATOM      6  C   UNL     1       4.341   5.505  19.624  0.00  0.00    +0.000 C 
ENDROOT
BRANCH   1  13
ATOM      7  C   UNL     1       7.103   4.160  11.743  0.00  0.00    +0.000 C 
ATOM      8  C   UNL     1       6.797   4.271  13.202  0.00  0.00    +0.000 A 
ATOM      9  C   UNL     1       7.477   5.158  14.035  0.00  0.00    +0.000 A 
ATOM     10  C   UNL     1       7.144   5.234  15.393  0.00  0.00    +0.000 A 
ATOM     11  C   UNL     1       6.127   4.418  15.887  0.00  0.00    +0.000 A 
ATOM     12  N   UNL     1       5.776   4.516  17.246  0.00  0.00    +0.000 N 
ATOM     13  C   UNL     1       4.779   3.769  17.845  0.00  0.00    +0.000 C 
ATOM     14  O   UNL     1       4.080   2.913  17.299  0.00  0.00    +0.000 OA
ATOM     15  N   UNL     1       5.477   3.554  15.091  0.00  0.00    +0.000 NA
ATOM     16  C   UNL     1       5.813   3.494  13.786  0.00  0.00    +0.000 A 
ATOM     17  H   UNL     1       6.321   5.165  17.801  0.00  0.00    +0.000 HD
ENDBRANCH   1  13
BRANCH   5  18
ATOM     18  C   UNL     1       2.335   6.989  19.373  0.00  0.00    +0.000 A 
ATOM     19  C   UNL     1       2.361   7.682  18.146  0.00  0.00    +0.000 A 
ATOM     20  C   UNL     1       1.765   8.939  18.000  0.00  0.00    +0.000 A 
ATOM     21  C   UNL     1       1.138   9.495  19.095  0.00  0.00    +0.000 A 
ATOM     22  C   UNL     1       1.134   8.843  20.327  0.00  0.00    +0.000 A 
ATOM     23  C   UNL     1       1.729   7.602  20.482  0.00  0.00    +0.000 A 
ATOM     24  C   UNL     1       0.471   9.684  21.371  0.00  0.00    +0.000 C 
ATOM     25  C   UNL     1      -0.346  10.642  20.494  0.00  0.00    +0.000 C 
ATOM     26  C   UNL     1       0.443  10.817  19.188  0.00  0.00    +0.000 C 
ENDBRANCH   5  18
TORSDOF 2
ENDMDL
MODEL 3
REMARK VINA RESULT:      -8.6      4.246      6.859
REMARK  Name = 
REMARK  3 active torsions:
REMARK  status: ('A' for Active; 'I' for Inactive)
REMARK    1  A    between atoms: C_1  and  C_2
REMARK    2  A    between atoms: C_7  and  C_9
REMARK    3  A    between atoms: N_13  and  C_14
REMARK                            x       y       z     vdW  Elec       q    Type
REMARK                         _______ _______ _______ _____ _____    ______ ____
ROOT
ATOM      1  C   UNL     1       7.979   5.816  18.242  0.00  0.00    +0.000 C 
ATOM      2  C   UNL     1       7.724   4.941  17.030  0.00  0.00    +0.000 C 
ATOM      3  C   UNL     1       6.236   4.702  17.090  0.00  0.00    +0.000 C 
ATOM      4  O   UNL     1       5.594   4.283  16.142  0.00  0.00    +0.000 OA
ATOM      5  N   UNL     1       5.803   5.030  18.385  0.00  0.00    +0.000 N 
ATOM      6  C   UNL     1       6.917   5.398  19.228  0.00  0.00    +0.000 C 
ENDROOT
BRANCH   1  13
ATOM      7  C   UNL     1       8.775  13.788  18.276  0.00  0.00    +0.000 C 
ATOM      8  C   UNL     1       8.791  12.301  18.424  0.00  0.00    +0.000 A 
ATOM      9  C   UNL     1       9.531  11.664  19.420  0.00  0.00    +0.000 A 
ATOM     10  C   UNL     1       9.502  10.269  19.525  0.00  0.00    +0.000 A 
ATOM     11  C   UNL     1       8.724   9.538  18.628  0.00  0.00    +0.000 A 
ATOM     12  N   UNL     1       8.676   8.138  18.754  0.00  0.00    +0.000 N 
ATOM     13  C   UNL     1       7.933   7.310  17.932  0.00  0.00    +0.000 C 
ATOM     14  O   UNL     1       7.235   7.664  16.979  0.00  0.00    +0.000 OA
ATOM     15  N   UNL     1       8.019  10.145  17.661  0.00  0.00    +0.000 NA
ATOM     16  C   UNL     1       8.060  11.491  17.574  0.00  0.00    +0.000 A 
ATOM     17  H   UNL     1       9.251   7.736  19.484  0.00  0.00    +0.000 HD
ENDBRANCH   1  13
BRANCH   5  18
ATOM     18  C   UNL     1       4.487   4.885  18.886  0.00  0.00    +0.000 A 
ATOM     19  C   UNL     1       3.445   5.727  18.449  0.00  0.00    +0.000 A 
ATOM     20  C   UNL     1       2.134   5.575  18.911  0.00  0.00    +0.000 A 
ATOM     21  C   UNL     1       1.873   4.567  19.816  0.00  0.00    +0.000 A 
ATOM     22  C   UNL     1       2.897   3.747  20.290  0.00  0.00    +0.000 A 
ATOM     23  C   UNL     1       4.200   3.896  19.843  0.00  0.00    +0.000 A 
ATOM     24  C   UNL     1       2.380   2.795  21.321  0.00  0.00    +0.000 C 
ATOM     25  C   UNL     1       0.879   2.815  21.005  0.00  0.00    +0.000 C 
ATOM     26  C   UNL     1       0.568   4.214  20.455  0.00  0.00    +0.000 C 
ENDBRANCH   5  18
TORSDOF 2
ENDMDL
MODEL 4
REMARK VINA RESULT:      -8.6      1.740      7.850
REMARK  Name = 
REMARK  3 active torsions:
REMARK  status: ('A' for Active; 'I' for Inactive)
REMARK    1  A    between atoms: C_1  and  C_2
REMARK    2  A    between atoms: C_7  and  C_9
REMARK    3  A    between atoms: N_13  and  C_14
REMARK                            x       y       z     vdW  Elec       q    Type
REMARK                         _______ _______ _______ _____ _____    ______ ____
ROOT
ATOM      1  C   UNL     1       4.272   3.535  19.439  0.00  0.00    +0.000 C 
ATOM      2  C   UNL     1       2.963   2.880  19.835  0.00  0.00    +0.000 C 
ATOM      3  C   UNL     1       1.983   4.025  19.789  0.00  0.00    +0.000 C 
ATOM      4  O   UNL     1       0.774   3.863  19.766  0.00  0.00    +0.000 OA
ATOM      5  N   UNL     1       2.721   5.220  19.796  0.00  0.00    +0.000 N 
ATOM      6  C   UNL     1       4.136   4.955  19.926  0.00  0.00    +0.000 C 
ENDROOT
BRANCH   1  13
ATOM      7  C   UNL     1       7.141   4.477  12.018  0.00  0.00    +0.000 C 
ATOM      8  C   UNL     1       6.792   4.409  13.470  0.00  0.00    +0.000 A 
ATOM      9  C   UNL     1       7.521   5.098  14.439  0.00  0.00    +0.000 A 
ATOM     10  C   UNL     1       7.145   5.013  15.785  0.00  0.00    +0.000 A 
ATOM     11  C   UNL     1       6.038   4.239  16.131  0.00  0.00    +0.000 A 
ATOM     12  N   UNL     1       5.647   4.178  17.481  0.00  0.00    +0.000 N 
ATOM     13  C   UNL     1       4.563   3.455  17.942  0.00  0.00    +0.000 C 
ATOM     14  O   UNL     1       3.807   2.759  17.261  0.00  0.00    +0.000 OA
ATOM     15  N   UNL     1       5.340   3.566  15.203  0.00  0.00    +0.000 NA
ATOM     16  C   UNL     1       5.718   3.658  13.912  0.00  0.00    +0.000 A 
ATOM     17  H   UNL     1       6.229   4.685  18.137  0.00  0.00    +0.000 HD
ENDBRANCH   1  13
BRANCH   5  18
ATOM     18  C   UNL     1       2.188   6.531  19.831  0.00  0.00    +0.000 A 
ATOM     19  C   UNL     1       1.516   7.012  20.973  0.00  0.00    +0.000 A 
ATOM     20  C   UNL     1       1.013   8.316  21.035  0.00  0.00    +0.000 A 
ATOM     21  C   UNL     1       1.191   9.137  19.941  0.00  0.00    +0.000 A 
ATOM     22  C   UNL     1       1.818   8.668  18.787  0.00  0.00    +0.000 A 
ATOM     23  C   UNL     1       2.313   7.376  18.715  0.00  0.00    +0.000 A 
ATOM     24  C   UNL     1       1.811   9.713  17.717  0.00  0.00    +0.000 C 
ATOM     25  C   UNL     1       1.578  10.979  18.552  0.00  0.00    +0.000 C 
ATOM     26  C   UNL     1       0.740  10.552  19.766  0.00  0.00    +0.000 C 
ENDBRANCH   5  18
TORSDOF 2
ENDMDL
MODEL 5
REMARK VINA RESULT:      -8.5      1.417      8.319
REMARK  Name = 
REMARK  3 active torsions:
REMARK  status: ('A' for Active; 'I' for Inactive)
REMARK    1  A    between atoms: C_1  and  C_2
REMARK    2  A    between atoms: C_7  and  C_9
REMARK    3  A    between atoms: N_13  and  C_14
REMARK                            x       y       z     vdW  Elec       q    Type
REMARK                         _______ _______ _______ _____ _____    ______ ____
ROOT
ATOM      1  C   UNL     1       4.807   4.122  18.784  0.00  0.00    +0.000 C 
ATOM      2  C   UNL     1       3.510   3.386  18.511  0.00  0.00    +0.000 C 
ATOM      3  C   UNL     1       2.498   4.501  18.428  0.00  0.00    +0.000 C 
ATOM      4  O   UNL     1       1.388   4.353  17.942  0.00  0.00    +0.000 OA
ATOM      5  N   UNL     1       3.073   5.644  19.005  0.00  0.00    +0.000 N 
ATOM      6  C   UNL     1       4.380   5.351  19.547  0.00  0.00    +0.000 C 
ENDROOT
BRANCH   1  13
ATOM      7  C   UNL     1       7.681   4.624  11.323  0.00  0.00    +0.000 C 
ATOM      8  C   UNL     1       6.966   4.431  12.621  0.00  0.00    +0.000 A 
ATOM      9  C   UNL     1       5.803   3.666  12.718  0.00  0.00    +0.000 A 
ATOM     10  C   UNL     1       5.178   3.504  13.960  0.00  0.00    +0.000 A 
ATOM     11  C   UNL     1       5.738   4.110  15.084  0.00  0.00    +0.000 A 
ATOM     12  N   UNL     1       5.122   3.922  16.335  0.00  0.00    +0.000 N 
ATOM     13  C   UNL     1       5.590   4.463  17.518  0.00  0.00    +0.000 C 
ATOM     14  O   UNL     1       6.579   5.186  17.649  0.00  0.00    +0.000 OA
ATOM     15  N   UNL     1       6.850   4.856  14.994  0.00  0.00    +0.000 NA
ATOM     16  C   UNL     1       7.438   5.003  13.788  0.00  0.00    +0.000 A 
ATOM     17  H   UNL     1       4.271   3.373  16.335  0.00  0.00    +0.000 HD
ENDBRANCH   1  13
BRANCH   5  18
ATOM     18  C   UNL     1       2.436   6.895  19.194  0.00  0.00    +0.000 A 
ATOM     19  C   UNL     1       2.332   7.824  18.140  0.00  0.00    +0.000 A 
ATOM     20  C   UNL     1       1.677   9.049  18.302  0.00  0.00    +0.000 A 
ATOM     21  C   UNL     1       1.124   9.335  19.533  0.00  0.00    +0.000 A 
ATOM     22  C   UNL     1       1.248   8.446  20.599  0.00  0.00    +0.000 A 
ATOM     23  C   UNL     1       1.902   7.234  20.449  0.00  0.00    +0.000 A 
ATOM     24  C   UNL     1       0.644   9.019  21.842  0.00  0.00    +0.000 C 
ATOM     25  C   UNL     1      -0.280  10.089  21.246  0.00  0.00    +0.000 C 
ATOM     26  C   UNL     1       0.389  10.570  19.950  0.00  0.00    +0.000 C 
ENDBRANCH   5  18
TORSDOF 2
ENDMDL
MODEL 6
REMARK VINA RESULT:      -8.5      1.289      1.694
REMARK  Name = 
REMARK  3 active torsions:
REMARK  status: ('A' for Active; 'I' for Inactive)
REMARK    1  A    between atoms: C_1  and  C_2
REMARK    2  A    between atoms: C_7  and  C_9
REMARK    3  A    between atoms: N_13  and  C_14
REMARK                            x       y       z     vdW  Elec       q    Type
REMARK                         _______ _______ _______ _____ _____    ______ ____
ROOT
ATOM      1  C   UNL     1       2.495   3.943  19.075  0.00  0.00    +0.000 C 
ATOM      2  C   UNL     1       3.657   3.416  19.894  0.00  0.00    +0.000 C 
ATOM      3  C   UNL     1       4.856   3.778  19.054  0.00  0.00    +0.000 C 
ATOM      4  O   UNL     1       5.995   3.782  19.492  0.00  0.00    +0.000 OA
ATOM      5  N   UNL     1       4.399   4.068  17.758  0.00  0.00    +0.000 N 
ATOM      6  C   UNL     1       2.975   3.846  17.649  0.00  0.00    +0.000 C 
ENDROOT
BRANCH   1  13
ATOM      7  C   UNL     1       1.139  11.834  19.355  0.00  0.00    +0.000 C 
ATOM      8  C   UNL     1       1.435  10.394  19.084  0.00  0.00    +0.000 A 
ATOM      9  C   UNL     1       1.961   9.964  17.866  0.00  0.00    +0.000 A 
ATOM     10  C   UNL     1       2.233   8.606  17.666  0.00  0.00    +0.000 A 
ATOM     11  C   UNL     1       1.976   7.705  18.698  0.00  0.00    +0.000 A 
ATOM     12  N   UNL     1       2.277   6.344  18.503  0.00  0.00    +0.000 N 
ATOM     13  C   UNL     1       2.077   5.362  19.455  0.00  0.00    +0.000 C 
ATOM     14  O   UNL     1       1.600   5.522  20.581  0.00  0.00    +0.000 OA
ATOM     15  N   UNL     1       1.460   8.112  19.868  0.00  0.00    +0.000 NA
ATOM     16  C   UNL     1       1.202   9.425  20.043  0.00  0.00    +0.000 A 
ATOM     17  H   UNL     1       2.638   6.094  17.591  0.00  0.00    +0.000 HD
ENDBRANCH   1  13
BRANCH   5  18
ATOM     18  C   UNL     1       5.206   4.386  16.639  0.00  0.00    +0.000 A 
ATOM     19  C   UNL     1       6.295   5.271  16.757  0.00  0.00    +0.000 A 
ATOM     20  C   UNL     1       7.122   5.569  15.668  0.00  0.00    +0.000 A 
ATOM     21  C   UNL     1       6.847   4.969  14.457  0.00  0.00    +0.000 A 
ATOM     22  C   UNL     1       5.752   4.119  14.310  0.00  0.00    +0.000 A 
ATOM     23  C   UNL     1       4.924   3.825  15.382  0.00  0.00    +0.000 A 
ATOM     24  C   UNL     1       5.617   3.667  12.891  0.00  0.00    +0.000 C 
ATOM     25  C   UNL     1       7.035   3.933  12.369  0.00  0.00    +0.000 C 
ATOM     26  C   UNL     1       7.573   5.134  13.160  0.00  0.00    +0.000 C 
ENDBRANCH   5  18
TORSDOF 2
ENDMDL
MODEL 7
REMARK VINA RESULT:      -8.3      1.579      8.051
REMARK  Name = 
REMARK  3 active torsions:
REMARK  status: ('A' for Active; 'I' for Inactive)
REMARK    1  A    between atoms: C_1  and  C_2
REMARK    2  A    between atoms: C_7  and  C_9
REMARK    3  A    between atoms: N_13  and  C_14
REMARK                            x       y       z     vdW  Elec       q    Type
REMARK                         _______ _______ _______ _____ _____    ______ ____
ROOT
ATOM      1  C   UNL     1       5.178   3.957  18.903  0.00  0.00    +0.000 C 
ATOM      2  C   UNL     1       3.949   3.101  18.668  0.00  0.00    +0.000 C 
ATOM      3  C   UNL     1       2.832   4.113  18.635  0.00  0.00    +0.000 C 
ATOM      4  O   UNL     1       1.724   3.863  18.188  0.00  0.00    +0.000 OA
ATOM      5  N   UNL     1       3.314   5.302  19.205  0.00  0.00    +0.000 N 
ATOM      6  C   UNL     1       4.663   5.132  19.695  0.00  0.00    +0.000 C 
ENDROOT
BRANCH   1  13
ATOM      7  C   UNL     1       7.712   4.798  11.349  0.00  0.00    +0.000 C 
ATOM      8  C   UNL     1       7.068   4.525  12.670  0.00  0.00    +0.000 A 
ATOM      9  C   UNL     1       5.989   3.651  12.800  0.00  0.00    +0.000 A 
ATOM     10  C   UNL     1       5.428   3.419  14.061  0.00  0.00    +0.000 A 
ATOM     11  C   UNL     1       5.968   4.067  15.172  0.00  0.00    +0.000 A 
ATOM     12  N   UNL     1       5.420   3.809  16.442  0.00  0.00    +0.000 N 
ATOM     13  C   UNL     1       5.877   4.382  17.614  0.00  0.00    +0.000 C 
ATOM     14  O   UNL     1       6.796   5.197  17.718  0.00  0.00    +0.000 OA
ATOM     15  N   UNL     1       6.999   4.917  15.050  0.00  0.00    +0.000 NA
ATOM     16  C   UNL     1       7.525   5.130  13.827  0.00  0.00    +0.000 A 
ATOM     17  H   UNL     1       4.626   3.181  16.466  0.00  0.00    +0.000 HD
ENDBRANCH   1  13
BRANCH   5  18
ATOM     18  C   UNL     1       2.567   6.483  19.431  0.00  0.00    +0.000 A 
ATOM     19  C   UNL     1       1.834   6.662  20.621  0.00  0.00    +0.000 A 
ATOM     20  C   UNL     1       1.118   7.837  20.874  0.00  0.00    +0.000 A 
ATOM     21  C   UNL     1       1.145   8.835  19.922  0.00  0.00    +0.000 A 
ATOM     22  C   UNL     1       1.834   8.663  18.722  0.00  0.00    +0.000 A 
ATOM     23  C   UNL     1       2.539   7.500  18.461  0.00  0.00    +0.000 A 
ATOM     24  C   UNL     1       1.641   9.844  17.826  0.00  0.00    +0.000 C 
ATOM     25  C   UNL     1       1.204  10.908  18.841  0.00  0.00    +0.000 C 
ATOM     26  C   UNL     1       0.460  10.164  19.959  0.00  0.00    +0.000 C 
ENDBRANCH   5  18
TORSDOF 2
ENDMDL
MODEL 8
REMARK VINA RESULT:      -8.3      3.534      8.335
REMARK  Name = 
REMARK  3 active torsions:
REMARK  status: ('A' for Active; 'I' for Inactive)
REMARK    1  A    between atoms: C_1  and  C_2
REMARK    2  A    between atoms: C_7  and  C_9
REMARK    3  A    between atoms: N_13  and  C_14
REMARK                            x       y       z     vdW  Elec       q    Type
REMARK                         _______ _______ _______ _____ _____    ______ ____
ROOT
ATOM      1  C   UNL     1       6.246   6.807  16.390  0.00  0.00    +0.000 C 
ATOM      2  C   UNL     1       7.062   6.647  17.658  0.00  0.00    +0.000 C 
ATOM      3  C   UNL     1       6.233   5.688  18.476  0.00  0.00    +0.000 C 
ATOM      4  O   UNL     1       6.676   5.085  19.439  0.00  0.00    +0.000 OA
ATOM      5  N   UNL     1       4.940   5.666  17.929  0.00  0.00    +0.000 N 
ATOM      6  C   UNL     1       4.821   6.611  16.841  0.00  0.00    +0.000 C 
ENDROOT
BRANCH   1  13
ATOM      7  C   UNL     1       6.421   1.363  10.515  0.00  0.00    +0.000 C 
ATOM      8  C   UNL     1       6.167   2.389  11.572  0.00  0.00    +0.000 A 
ATOM      9  C   UNL     1       4.876   2.762  11.945  0.00  0.00    +0.000 A 
ATOM     10  C   UNL     1       4.690   3.719  12.950  0.00  0.00    +0.000 A 
ATOM     11  C   UNL     1       5.809   4.280  13.565  0.00  0.00    +0.000 A 
ATOM     12  N   UNL     1       5.618   5.222  14.593  0.00  0.00    +0.000 N 
ATOM     13  C   UNL     1       6.647   5.836  15.282  0.00  0.00    +0.000 C 
ATOM     14  O   UNL     1       7.854   5.671  15.092  0.00  0.00    +0.000 OA
ATOM     15  N   UNL     1       7.053   3.933  13.201  0.00  0.00    +0.000 NA
ATOM     16  C   UNL     1       7.213   3.011  12.230  0.00  0.00    +0.000 A 
ATOM     17  H   UNL     1       4.657   5.463  14.803  0.00  0.00    +0.000 HD
ENDBRANCH   1  13
BRANCH   5  18
ATOM     18  C   UNL     1       3.830   4.950  18.437  0.00  0.00    +0.000 A 
ATOM     19  C   UNL     1       2.858   4.408  17.574  0.00  0.00    +0.000 A 
ATOM     20  C   UNL     1       1.773   3.670  18.059  0.00  0.00    +0.000 A 
ATOM     21  C   UNL     1       1.672   3.477  19.420  0.00  0.00    +0.000 A 
ATOM     22  C   UNL     1       2.603   4.036  20.295  0.00  0.00    +0.000 A 
ATOM     23  C   UNL     1       3.676   4.775  19.823  0.00  0.00    +0.000 A 
ATOM     24  C   UNL     1       2.230   3.760  21.716  0.00  0.00    +0.000 C 
ATOM     25  C   UNL     1       1.288   2.562  21.539  0.00  0.00    +0.000 C 
ATOM     26  C   UNL     1       0.610   2.738  20.172  0.00  0.00    +0.000 C 
ENDBRANCH   5  18
TORSDOF 2
ENDMDL
MODEL 9
REMARK VINA RESULT:      -8.2      3.145      7.997
REMARK  Name = 
REMARK  3 active torsions:
REMARK  status: ('A' for Active; 'I' for Inactive)
REMARK    1  A    between atoms: C_1  and  C_2
REMARK    2  A    between atoms: C_7  and  C_9
REMARK    3  A    between atoms: N_13  and  C_14
REMARK                            x       y       z     vdW  Elec       q    Type
REMARK                         _______ _______ _______ _____ _____    ______ ____
ROOT
ATOM      1  C   UNL     1       6.510   6.929  16.699  0.00  0.00    +0.000 C 
ATOM      2  C   UNL     1       7.359   6.700  17.934  0.00  0.00    +0.000 C 
ATOM      3  C   UNL     1       6.506   5.776  18.766  0.00  0.00    +0.000 C 
ATOM      4  O   UNL     1       6.946   5.132  19.704  0.00  0.00    +0.000 OA
ATOM      5  N   UNL     1       5.195   5.836  18.264  0.00  0.00    +0.000 N 
ATOM      6  C   UNL     1       5.093   6.805  17.197  0.00  0.00    +0.000 C 
ENDROOT
BRANCH   1  13
ATOM      7  C   UNL     1       6.175   1.591  10.734  0.00  0.00    +0.000 C 
ATOM      8  C   UNL     1       6.016   2.611  11.815  0.00  0.00    +0.000 A 
ATOM      9  C   UNL     1       4.762   3.051  12.237  0.00  0.00    +0.000 A 
ATOM     10  C   UNL     1       4.666   3.999  13.263  0.00  0.00    +0.000 A 
ATOM     11  C   UNL     1       5.834   4.483  13.849  0.00  0.00    +0.000 A 
ATOM     12  N   UNL     1       5.732   5.415  14.898  0.00  0.00    +0.000 N 
ATOM     13  C   UNL     1       6.818   5.956  15.563  0.00  0.00    +0.000 C 
ATOM     14  O   UNL     1       8.006   5.725  15.329  0.00  0.00    +0.000 OA
ATOM     15  N   UNL     1       7.043   4.071  13.438  0.00  0.00    +0.000 NA
ATOM     16  C   UNL     1       7.117   3.159  12.448  0.00  0.00    +0.000 A 
ATOM     17  H   UNL     1       4.795   5.708  15.145  0.00  0.00    +0.000 HD
ENDBRANCH   1  13
BRANCH   5  18
ATOM     18  C   UNL     1       4.064   5.174  18.800  0.00  0.00    +0.000 A 
ATOM     19  C   UNL     1       3.311   5.750  19.842  0.00  0.00    +0.000 A 
ATOM     20  C   UNL     1       2.173   5.124  20.359  0.00  0.00    +0.000 A 
ATOM     21  C   UNL     1       1.792   3.913  19.820  0.00  0.00    +0.000 A 
ATOM     22  C   UNL     1       2.545   3.308  18.814  0.00  0.00    +0.000 A 
ATOM     23  C   UNL     1       3.678   3.918  18.302  0.00  0.00    +0.000 A 
ATOM     24  C   UNL     1       1.980   1.969  18.460  0.00  0.00    +0.000 C 
ATOM     25  C   UNL     1       0.550   2.108  19.000  0.00  0.00    +0.000 C 
ATOM     26  C   UNL     1       0.630   3.055  20.206  0.00  0.00    +0.000 C 
ENDBRANCH   5  18
TORSDOF 2
ENDMDL
