MODEL 1
REMARK VINA RESULT:      -8.1      0.000      0.000
REMARK  Name = 
REMARK  7 active torsions:
REMARK  status: ('A' for Active; 'I' for Inactive)
REMARK    1  A    between atoms: C_1  and  C_2
REMARK    2  A    between atoms: C_5  and  C_6
REMARK    3  A    between atoms: C_9  and  C_10
REMARK    4  A    between atoms: C_15  and  O_16
REMARK    5  A    between atoms: O_16  and  C_17
REMARK    6  A    between atoms: C_17  and  C_18
REMARK    7  A    between atoms: N_20  and  C_21
REMARK                            x       y       z     vdW  Elec       q    Type
REMARK                         _______ _______ _______ _____ _____    ______ ____
ROOT
ATOM      1  C   UNL     1       1.902   4.723  20.392  0.00  0.00    +0.000 A 
ATOM      2  C   UNL     1       2.265   4.118  21.614  0.00  0.00    +0.000 A 
ATOM      3  C   UNL     1       2.420   2.738  21.729  0.00  0.00    +0.000 A 
ATOM      4  C   UNL     1       2.175   1.928  20.632  0.00  0.00    +0.000 A 
ATOM      5  C   UNL     1       1.811   2.501  19.415  0.00  0.00    +0.000 A 
ATOM      6  C   UNL     1       1.717   3.897  19.269  0.00  0.00    +0.000 A 
ENDROOT
BRANCH   1  10
ATOM      7  C   UNL     1       1.619   8.226  19.979  0.00  0.00    +0.000 A 
ATOM      8  N   UNL     1       1.007   8.127  21.167  0.00  0.00    +0.000 NA
ATOM      9  O   UNL     1       1.068   6.755  21.452  0.00  0.00    +0.000 OA
ATOM     10  C   UNL     1       1.731   6.172  20.410  0.00  0.00    +0.000 A 
ATOM     11  N   UNL     1       2.092   7.036  19.487  0.00  0.00    +0.000 NA
BRANCH   7  16
ATOM     12  C   UNL     1      -2.324  10.083  17.970  0.00  0.00    +0.000 C 
ATOM     13  C   UNL     1      -0.828  10.366  18.111  0.00  0.00    +0.000 C 
ATOM     14  C   UNL     1      -0.467  10.593  19.585  0.00  0.00    +0.000 C 
ATOM     15  C   UNL     1       1.041  10.707  19.813  0.00  0.00    +0.000 C 
ATOM     16  C   UNL     1       1.822   9.517  19.235  0.00  0.00    +0.000 C 
ATOM     17  C   UNL     1       1.489   9.387  17.735  0.00  0.00    +0.000 C 
ATOM     18  C   UNL     1      -0.012   9.229  17.484  0.00  0.00    +0.000 C 
ENDBRANCH   7  16
ENDBRANCH   1  10
BRANCH   6  19
ATOM     19  O   UNL     1       1.425   4.490  18.062  0.00  0.00    +0.000 OA
BRANCH  19  20
ATOM     20  C   UNL     1       2.240   4.051  16.979  0.00  0.00    +0.000 C 
BRANCH  20  21
ATOM     21  C   UNL     1       3.734   4.232  17.209  0.00  0.00    +0.000 C 
ATOM     22  O   UNL     1       4.489   3.270  17.068  0.00  0.00    +0.000 OA
ATOM     23  N   UNL     1       4.095   5.501  17.607  0.00  0.00    +0.000 N 
ATOM     24  H   UNL     1       3.339   6.151  17.818  0.00  0.00    +0.000 HD
BRANCH  23  25
ATOM     25  C   UNL     1       5.400   5.942  17.903  0.00  0.00    +0.000 A 
ATOM     26  C   UNL     1       6.080   6.901  17.152  0.00  0.00    +0.000 A 
ATOM     27  C   UNL     1       7.392   7.259  17.479  0.00  0.00    +0.000 A 
ATOM     28  C   UNL     1       8.032   6.665  18.564  0.00  0.00    +0.000 A 
ATOM     29  C   UNL     1       7.354   5.727  19.338  0.00  0.00    +0.000 A 
ATOM     30  C   UNL     1       6.046   5.380  19.012  0.00  0.00    +0.000 A 
ATOM     31  F   UNL     1       5.414   4.466  19.756  0.00  0.00    +0.000 F 
ENDBRANCH  23  25
ENDBRANCH  20  21
ENDBRANCH  19  20
ENDBRANCH   6  19
TORSDOF 6
ENDMDL
MODEL 2
REMARK VINA RESULT:      -8.0      0.836      1.211
REMARK  Name = 
REMARK  7 active torsions:
REMARK  status: ('A' for Active; 'I' for Inactive)
REMARK    1  A    between atoms: C_1  and  C_2
REMARK    2  A    between atoms: C_5  and  C_6
REMARK    3  A    between atoms: C_9  and  C_10
REMARK    4  A    between atoms: C_15  and  O_16
REMARK    5  A    between atoms: O_16  and  C_17
REMARK    6  A    between atoms: C_17  and  C_18
REMARK    7  A    between atoms: N_20  and  C_21
REMARK                            x       y       z     vdW  Elec       q    Type
REMARK                         _______ _______ _______ _____ _____    ______ ____
ROOT
ATOM      1  C   UNL     1       1.858   4.720  20.417  0.00  0.00    +0.000 A 
ATOM      2  C   UNL     1       2.206   4.117  21.644  0.00  0.00    +0.000 A 
ATOM      3  C   UNL     1       2.338   2.735  21.769  0.00  0.00    +0.000 A 
ATOM      4  C   UNL     1       2.083   1.922  20.675  0.00  0.00    +0.000 A 
ATOM      5  C   UNL     1       1.734   2.494  19.453  0.00  0.00    +0.000 A 
ATOM      6  C   UNL     1       1.664   3.891  19.298  0.00  0.00    +0.000 A 
ENDROOT
BRANCH   1  10
ATOM      7  C   UNL     1       1.630   8.224  19.980  0.00  0.00    +0.000 A 
ATOM      8  N   UNL     1       1.027   8.145  21.174  0.00  0.00    +0.000 NA
ATOM      9  O   UNL     1       1.067   6.773  21.469  0.00  0.00    +0.000 OA
ATOM     10  C   UNL     1       1.711   6.172  20.426  0.00  0.00    +0.000 A 
ATOM     11  N   UNL     1       2.079   7.023  19.493  0.00  0.00    +0.000 NA
BRANCH   7  16
ATOM     12  C   UNL     1      -2.294  10.115  17.964  0.00  0.00    +0.000 C 
ATOM     13  C   UNL     1      -0.793  10.380  18.099  0.00  0.00    +0.000 C 
ATOM     14  C   UNL     1      -0.427  10.614  19.570  0.00  0.00    +0.000 C 
ATOM     15  C   UNL     1       1.083  10.711  19.794  0.00  0.00    +0.000 C 
ATOM     16  C   UNL     1       1.848   9.507  19.225  0.00  0.00    +0.000 C 
ATOM     17  C   UNL     1       1.510   9.367  17.727  0.00  0.00    +0.000 C 
ATOM     18  C   UNL     1       0.006   9.227  17.480  0.00  0.00    +0.000 C 
ENDBRANCH   7  16
ENDBRANCH   1  10
BRANCH   6  19
ATOM     19  O   UNL     1       1.387   4.481  18.087  0.00  0.00    +0.000 OA
BRANCH  19  20
ATOM     20  C   UNL     1       2.195   4.019  17.008  0.00  0.00    +0.000 C 
BRANCH  20  21
ATOM     21  C   UNL     1       3.693   4.135  17.257  0.00  0.00    +0.000 C 
ATOM     22  O   UNL     1       4.411   3.147  17.102  0.00  0.00    +0.000 OA
ATOM     23  N   UNL     1       4.099   5.380  17.687  0.00  0.00    +0.000 N 
ATOM     24  H   UNL     1       3.367   6.055  17.904  0.00  0.00    +0.000 HD
BRANCH  23  25
ATOM     25  C   UNL     1       5.418   5.763  18.005  0.00  0.00    +0.000 A 
ATOM     26  C   UNL     1       6.105   5.306  19.130  0.00  0.00    +0.000 A 
ATOM     27  C   UNL     1       7.397   5.763  19.406  0.00  0.00    +0.000 A 
ATOM     28  C   UNL     1       8.016   6.676  18.555  0.00  0.00    +0.000 A 
ATOM     29  C   UNL     1       7.351   7.118  17.414  0.00  0.00    +0.000 A 
ATOM     30  C   UNL     1       6.067   6.654  17.141  0.00  0.00    +0.000 A 
ATOM     31  F   UNL     1       5.436   7.099  16.049  0.00  0.00    +0.000 F 
ENDBRANCH  23  25
ENDBRANCH  20  21
ENDBRANCH  19  20
ENDBRANCH   6  19
TORSDOF 6
ENDMDL
MODEL 3
REMARK VINA RESULT:      -7.9      1.317      1.672
REMARK  Name = 
REMARK  7 active torsions:
REMARK  status: ('A' for Active; 'I' for Inactive)
REMARK    1  A    between atoms: C_1  and  C_2
REMARK    2  A    between atoms: C_5  and  C_6
REMARK    3  A    between atoms: C_9  and  C_10
REMARK    4  A    between atoms: C_15  and  O_16
REMARK    5  A    between atoms: O_16  and  C_17
REMARK    6  A    between atoms: C_17  and  C_18
REMARK    7  A    between atoms: N_20  and  C_21
REMARK                            x       y       z     vdW  Elec       q    Type
REMARK                         _______ _______ _______ _____ _____    ______ ____
ROOT
ATOM      1  C   UNL     1       2.031   4.911  19.925  0.00  0.00    +0.000 A 
ATOM      2  C   UNL     1       2.024   4.618  21.305  0.00  0.00    +0.000 A 
ATOM      3  C   UNL     1       2.005   3.306  21.775  0.00  0.00    +0.000 A 
ATOM      4  C   UNL     1       1.949   2.257  20.871  0.00  0.00    +0.000 A 
ATOM      5  C   UNL     1       1.951   2.520  19.502  0.00  0.00    +0.000 A 
ATOM      6  C   UNL     1       2.039   3.837  19.016  0.00  0.00    +0.000 A 
ENDROOT
BRANCH   1  10
ATOM      7  C   UNL     1       1.878   8.420  19.498  0.00  0.00    +0.000 A 
ATOM      8  N   UNL     1       2.429   8.111  18.316  0.00  0.00    +0.000 NA
ATOM      9  O   UNL     1       2.531   6.712  18.359  0.00  0.00    +0.000 OA
ATOM     10  C   UNL     1       2.010   6.324  19.560  0.00  0.00    +0.000 A 
ATOM     11  N   UNL     1       1.593   7.336  20.288  0.00  0.00    +0.000 NA
BRANCH   7  16
ATOM     12  C   UNL     1      -2.379  10.091  18.045  0.00  0.00    +0.000 C 
ATOM     13  C   UNL     1      -1.152  10.529  18.846  0.00  0.00    +0.000 C 
ATOM     14  C   UNL     1      -0.992   9.651  20.093  0.00  0.00    +0.000 C 
ATOM     15  C   UNL     1       0.312   9.923  20.844  0.00  0.00    +0.000 C 
ATOM     16  C   UNL     1       1.551   9.820  19.940  0.00  0.00    +0.000 C 
ATOM     17  C   UNL     1       1.376  10.783  18.748  0.00  0.00    +0.000 C 
ATOM     18  C   UNL     1       0.097  10.504  17.957  0.00  0.00    +0.000 C 
ENDBRANCH   7  16
ENDBRANCH   1  10
BRANCH   6  19
ATOM     19  O   UNL     1       2.109   4.119  17.671  0.00  0.00    +0.000 OA
BRANCH  19  20
ATOM     20  C   UNL     1       3.066   3.342  16.956  0.00  0.00    +0.000 C 
BRANCH  20  21
ATOM     21  C   UNL     1       4.456   3.961  16.898  0.00  0.00    +0.000 C 
ATOM     22  O   UNL     1       5.282   3.521  16.100  0.00  0.00    +0.000 OA
ATOM     23  N   UNL     1       4.663   4.969  17.814  0.00  0.00    +0.000 N 
ATOM     24  H   UNL     1       3.929   5.124  18.505  0.00  0.00    +0.000 HD
BRANCH  23  25
ATOM     25  C   UNL     1       5.853   5.703  17.991  0.00  0.00    +0.000 A 
ATOM     26  C   UNL     1       6.829   5.377  18.933  0.00  0.00    +0.000 A 
ATOM     27  C   UNL     1       7.966   6.176  19.083  0.00  0.00    +0.000 A 
ATOM     28  C   UNL     1       8.140   7.307  18.287  0.00  0.00    +0.000 A 
ATOM     29  C   UNL     1       7.187   7.627  17.325  0.00  0.00    +0.000 A 
ATOM     30  C   UNL     1       6.060   6.823  17.175  0.00  0.00    +0.000 A 
ATOM     31  F   UNL     1       5.146   7.152  16.257  0.00  0.00    +0.000 F 
ENDBRANCH  23  25
ENDBRANCH  20  21
ENDBRANCH  19  20
ENDBRANCH   6  19
TORSDOF 6
ENDMDL
MODEL 4
REMARK VINA RESULT:      -7.7      2.863      3.747
REMARK  Name = 
REMARK  7 active torsions:
REMARK  status: ('A' for Active; 'I' for Inactive)
REMARK    1  A    between atoms: C_1  and  C_2
REMARK    2  A    between atoms: C_5  and  C_6
REMARK    3  A    between atoms: C_9  and  C_10
REMARK    4  A    between atoms: C_15  and  O_16
REMARK    5  A    between atoms: O_16  and  C_17
REMARK    6  A    between atoms: C_17  and  C_18
REMARK    7  A    between atoms: N_20  and  C_21
REMARK                            x       y       z     vdW  Elec       q    Type
REMARK                         _______ _______ _______ _____ _____    ______ ____
ROOT
ATOM      1  C   UNL     1       2.926   5.482  18.387  0.00  0.00    +0.000 A 
ATOM      2  C   UNL     1       1.945   4.525  18.054  0.00  0.00    +0.000 A 
ATOM      3  C   UNL     1       2.285   3.214  17.724  0.00  0.00    +0.000 A 
ATOM      4  C   UNL     1       3.620   2.844  17.680  0.00  0.00    +0.000 A 
ATOM      5  C   UNL     1       4.608   3.774  18.001  0.00  0.00    +0.000 A 
ATOM      6  C   UNL     1       4.273   5.080  18.401  0.00  0.00    +0.000 A 
ENDROOT
BRANCH   1  10
ATOM      7  C   UNL     1       1.659   8.778  18.618  0.00  0.00    +0.000 A 
ATOM      8  N   UNL     1       1.730   8.513  19.930  0.00  0.00    +0.000 NA
ATOM      9  O   UNL     1       2.243   7.207  19.971  0.00  0.00    +0.000 OA
ATOM     10  C   UNL     1       2.446   6.831  18.674  0.00  0.00    +0.000 A 
ATOM     11  N   UNL     1       2.107   7.764  17.812  0.00  0.00    +0.000 NA
BRANCH   7  16
ATOM     12  C   UNL     1      -1.038  11.442  21.562  0.00  0.00    +0.000 C 
ATOM     13  C   UNL     1      -0.479  11.458  20.138  0.00  0.00    +0.000 C 
ATOM     14  C   UNL     1       1.055  11.486  20.171  0.00  0.00    +0.000 C 
ATOM     15  C   UNL     1       1.678  11.326  18.784  0.00  0.00    +0.000 C 
ATOM     16  C   UNL     1       1.170  10.079  18.043  0.00  0.00    +0.000 C 
ATOM     17  C   UNL     1      -0.369  10.142  17.965  0.00  0.00    +0.000 C 
ATOM     18  C   UNL     1      -1.018  10.261  19.345  0.00  0.00    +0.000 C 
ENDBRANCH   7  16
ENDBRANCH   1  10
BRANCH   6  19
ATOM     19  O   UNL     1       5.225   5.995  18.786  0.00  0.00    +0.000 OA
BRANCH  19  20
ATOM     20  C   UNL     1       6.481   5.850  18.128  0.00  0.00    +0.000 C 
BRANCH  20  21
ATOM     21  C   UNL     1       6.408   5.961  16.611  0.00  0.00    +0.000 C 
ATOM     22  O   UNL     1       5.780   6.889  16.102  0.00  0.00    +0.000 OA
ATOM     23  N   UNL     1       7.048   4.943  15.939  0.00  0.00    +0.000 N 
ATOM     24  H   UNL     1       7.401   4.169  16.500  0.00  0.00    +0.000 HD
BRANCH  23  25
ATOM     25  C   UNL     1       7.126   4.787  14.540  0.00  0.00    +0.000 A 
ATOM     26  C   UNL     1       7.949   5.561  13.722  0.00  0.00    +0.000 A 
ATOM     27  C   UNL     1       7.942   5.380  12.335  0.00  0.00    +0.000 A 
ATOM     28  C   UNL     1       7.117   4.419  11.756  0.00  0.00    +0.000 A 
ATOM     29  C   UNL     1       6.312   3.622  12.565  0.00  0.00    +0.000 A 
ATOM     30  C   UNL     1       6.328   3.802  13.946  0.00  0.00    +0.000 A 
ATOM     31  F   UNL     1       5.537   3.039  14.708  0.00  0.00    +0.000 F 
ENDBRANCH  23  25
ENDBRANCH  20  21
ENDBRANCH  19  20
ENDBRANCH   6  19
TORSDOF 6
ENDMDL
MODEL 5
REMARK VINA RESULT:      -7.6      3.869      9.070
REMARK  Name = 
REMARK  7 active torsions:
REMARK  status: ('A' for Active; 'I' for Inactive)
REMARK    1  A    between atoms: C_1  and  C_2
REMARK    2  A    between atoms: C_5  and  C_6
REMARK    3  A    between atoms: C_9  and  C_10
REMARK    4  A    between atoms: C_15  and  O_16
REMARK    5  A    between atoms: O_16  and  C_17
REMARK    6  A    between atoms: C_17  and  C_18
REMARK    7  A    between atoms: N_20  and  C_21
REMARK                            x       y       z     vdW  Elec       q    Type
REMARK                         _______ _______ _______ _____ _____    ______ ____
ROOT
ATOM      1  C   UNL     1       1.139   8.889  20.315  0.00  0.00    +0.000 A 
ATOM      2  C   UNL     1       1.423   8.663  21.678  0.00  0.00    +0.000 A 
ATOM      3  C   UNL     1       0.729   9.325  22.690  0.00  0.00    +0.000 A 
ATOM      4  C   UNL     1      -0.237  10.261  22.357  0.00  0.00    +0.000 A 
ATOM      5  C   UNL     1      -0.533  10.505  21.017  0.00  0.00    +0.000 A 
ATOM      6  C   UNL     1       0.113   9.794  19.989  0.00  0.00    +0.000 A 
ENDROOT
BRANCH   1  10
ATOM      7  C   UNL     1       2.985   6.739  18.196  0.00  0.00    +0.000 A 
ATOM      8  N   UNL     1       3.131   7.869  17.490  0.00  0.00    +0.000 NA
ATOM      9  O   UNL     1       2.437   8.822  18.252  0.00  0.00    +0.000 OA
ATOM     10  C   UNL     1       1.962   8.166  19.351  0.00  0.00    +0.000 A 
ATOM     11  N   UNL     1       2.278   6.890  19.361  0.00  0.00    +0.000 NA
BRANCH   7  16
ATOM     12  C   UNL     1       7.743   6.341  18.681  0.00  0.00    +0.000 C 
ATOM     13  C   UNL     1       6.533   5.529  18.214  0.00  0.00    +0.000 C 
ATOM     14  C   UNL     1       5.563   5.304  19.381  0.00  0.00    +0.000 C 
ATOM     15  C   UNL     1       4.252   4.652  18.941  0.00  0.00    +0.000 C 
ATOM     16  C   UNL     1       3.564   5.410  17.795  0.00  0.00    +0.000 C 
ATOM     17  C   UNL     1       4.553   5.534  16.619  0.00  0.00    +0.000 C 
ATOM     18  C   UNL     1       5.857   6.222  17.025  0.00  0.00    +0.000 C 
ENDBRANCH   7  16
ENDBRANCH   1  10
BRANCH   6  19
ATOM     19  O   UNL     1      -0.209   9.969  18.663  0.00  0.00    +0.000 OA
BRANCH  19  20
ATOM     20  C   UNL     1      -0.959  11.149  18.390  0.00  0.00    +0.000 C 
BRANCH  20  21
ATOM     21  C   UNL     1      -2.462  10.925  18.294  0.00  0.00    +0.000 C 
ATOM     22  O   UNL     1      -2.889   9.836  17.911  0.00  0.00    +0.000 OA
ATOM     23  N   UNL     1      -3.220  12.028  18.625  0.00  0.00    +0.000 N 
ATOM     24  H   UNL     1      -2.720  12.901  18.785  0.00  0.00    +0.000 HD
BRANCH  23  25
ATOM     25  C   UNL     1      -4.627  12.107  18.610  0.00  0.00    +0.000 A 
ATOM     26  C   UNL     1      -5.391  12.055  17.444  0.00  0.00    +0.000 A 
ATOM     27  C   UNL     1      -6.783  12.184  17.502  0.00  0.00    +0.000 A 
ATOM     28  C   UNL     1      -7.422  12.359  18.727  0.00  0.00    +0.000 A 
ATOM     29  C   UNL     1      -6.672  12.385  19.900  0.00  0.00    +0.000 A 
ATOM     30  C   UNL     1      -5.288  12.249  19.837  0.00  0.00    +0.000 A 
ATOM     31  F   UNL     1      -4.581  12.291  20.971  0.00  0.00    +0.000 F 
ENDBRANCH  23  25
ENDBRANCH  20  21
ENDBRANCH  19  20
ENDBRANCH   6  19
TORSDOF 6
ENDMDL
MODEL 6
REMARK VINA RESULT:      -7.6      4.049      9.110
REMARK  Name = 
REMARK  7 active torsions:
REMARK  status: ('A' for Active; 'I' for Inactive)
REMARK    1  A    between atoms: C_1  and  C_2
REMARK    2  A    between atoms: C_5  and  C_6
REMARK    3  A    between atoms: C_9  and  C_10
REMARK    4  A    between atoms: C_15  and  O_16
REMARK    5  A    between atoms: O_16  and  C_17
REMARK    6  A    between atoms: C_17  and  C_18
REMARK    7  A    between atoms: N_20  and  C_21
REMARK                            x       y       z     vdW  Elec       q    Type
REMARK                         _______ _______ _______ _____ _____    ______ ____
ROOT
ATOM      1  C   UNL     1       0.729   9.397  20.653  0.00  0.00    +0.000 A 
ATOM      2  C   UNL     1       0.754   8.934  21.985  0.00  0.00    +0.000 A 
ATOM      3  C   UNL     1       0.058   9.588  23.000  0.00  0.00    +0.000 A 
ATOM      4  C   UNL     1      -0.645  10.747  22.710  0.00  0.00    +0.000 A 
ATOM      5  C   UNL     1      -0.682  11.227  21.402  0.00  0.00    +0.000 A 
ATOM      6  C   UNL     1      -0.039  10.538  20.357  0.00  0.00    +0.000 A 
ENDROOT
BRANCH   1  10
ATOM      7  C   UNL     1       2.661   7.226  18.633  0.00  0.00    +0.000 A 
ATOM      8  N   UNL     1       2.415   8.169  17.713  0.00  0.00    +0.000 NA
ATOM      9  O   UNL     1       1.649   9.114  18.412  0.00  0.00    +0.000 OA
ATOM     10  C   UNL     1       1.531   8.649  19.690  0.00  0.00    +0.000 A 
ATOM     11  N   UNL     1       2.140   7.497  19.872  0.00  0.00    +0.000 NA
BRANCH   7  16
ATOM     12  C   UNL     1       0.775   3.165  20.362  0.00  0.00    +0.000 C 
ATOM     13  C   UNL     1       2.005   3.663  19.600  0.00  0.00    +0.000 C 
ATOM     14  C   UNL     1       1.587   4.258  18.249  0.00  0.00    +0.000 C 
ATOM     15  C   UNL     1       2.747   4.931  17.516  0.00  0.00    +0.000 C 
ATOM     16  C   UNL     1       3.466   5.982  18.377  0.00  0.00    +0.000 C 
ATOM     17  C   UNL     1       3.939   5.312  19.683  0.00  0.00    +0.000 C 
ATOM     18  C   UNL     1       2.787   4.666  20.456  0.00  0.00    +0.000 C 
ENDBRANCH   7  16
ENDBRANCH   1  10
BRANCH   6  19
ATOM     19  O   UNL     1      -0.116  10.954  19.048  0.00  0.00    +0.000 OA
BRANCH  19  20
ATOM     20  C   UNL     1      -1.032  12.021  18.823  0.00  0.00    +0.000 C 
BRANCH  20  21
ATOM     21  C   UNL     1      -2.470  11.573  18.599  0.00  0.00    +0.000 C 
ATOM     22  O   UNL     1      -2.691  10.549  17.954  0.00  0.00    +0.000 OA
ATOM     23  N   UNL     1      -3.415  12.421  19.135  0.00  0.00    +0.000 N 
ATOM     24  H   UNL     1      -3.080  13.304  19.518  0.00  0.00    +0.000 HD
BRANCH  23  25
ATOM     25  C   UNL     1      -4.814  12.260  19.065  0.00  0.00    +0.000 A 
ATOM     26  C   UNL     1      -5.520  12.156  17.867  0.00  0.00    +0.000 A 
ATOM     27  C   UNL     1      -6.914  12.042  17.873  0.00  0.00    +0.000 A 
ATOM     28  C   UNL     1      -7.612  12.025  19.078  0.00  0.00    +0.000 A 
ATOM     29  C   UNL     1      -6.916  12.100  20.281  0.00  0.00    +0.000 A 
ATOM     30  C   UNL     1      -5.528  12.206  20.269  0.00  0.00    +0.000 A 
ATOM     31  F   UNL     1      -4.875  12.293  21.432  0.00  0.00    +0.000 F 
ENDBRANCH  23  25
ENDBRANCH  20  21
ENDBRANCH  19  20
ENDBRANCH   6  19
TORSDOF 6
ENDMDL
MODEL 7
REMARK VINA RESULT:      -7.6      2.761      3.308
REMARK  Name = 
REMARK  7 active torsions:
REMARK  status: ('A' for Active; 'I' for Inactive)
REMARK    1  A    between atoms: C_1  and  C_2
REMARK    2  A    between atoms: C_5  and  C_6
REMARK    3  A    between atoms: C_9  and  C_10
REMARK    4  A    between atoms: C_15  and  O_16
REMARK    5  A    between atoms: O_16  and  C_17
REMARK    6  A    between atoms: C_17  and  C_18
REMARK    7  A    between atoms: N_20  and  C_21
REMARK                            x       y       z     vdW  Elec       q    Type
REMARK                         _______ _______ _______ _____ _____    ______ ____
ROOT
ATOM      1  C   UNL     1       2.207   5.451  19.828  0.00  0.00    +0.000 A 
ATOM      2  C   UNL     1       1.661   4.424  20.625  0.00  0.00    +0.000 A 
ATOM      3  C   UNL     1       1.923   3.080  20.368  0.00  0.00    +0.000 A 
ATOM      4  C   UNL     1       2.704   2.732  19.277  0.00  0.00    +0.000 A 
ATOM      5  C   UNL     1       3.252   3.729  18.471  0.00  0.00    +0.000 A 
ATOM      6  C   UNL     1       3.051   5.090  18.761  0.00  0.00    +0.000 A 
ENDROOT
BRANCH   1  10
ATOM      7  C   UNL     1       1.343   8.861  20.208  0.00  0.00    +0.000 A 
ATOM      8  N   UNL     1       0.943   8.431  21.413  0.00  0.00    +0.000 NA
ATOM      9  O   UNL     1       1.252   7.062  21.389  0.00  0.00    +0.000 OA
ATOM     10  C   UNL     1       1.826   6.817  20.175  0.00  0.00    +0.000 A 
ATOM     11  N   UNL     1       1.907   7.891  19.421  0.00  0.00    +0.000 NA
BRANCH   7  16
ATOM     12  C   UNL     1      -2.655   9.921  17.773  0.00  0.00    +0.000 C 
ATOM     13  C   UNL     1      -1.360  10.576  18.256  0.00  0.00    +0.000 C 
ATOM     14  C   UNL     1      -1.304  10.573  19.789  0.00  0.00    +0.000 C 
ATOM     15  C   UNL     1       0.042  11.055  20.332  0.00  0.00    +0.000 C 
ATOM     16  C   UNL     1       1.233  10.286  19.739  0.00  0.00    +0.000 C 
ATOM     17  C   UNL     1       1.176  10.392  18.202  0.00  0.00    +0.000 C 
ATOM     18  C   UNL     1      -0.147   9.876  17.631  0.00  0.00    +0.000 C 
ENDBRANCH   7  16
ENDBRANCH   1  10
BRANCH   6  19
ATOM     19  O   UNL     1       3.634   6.092  18.021  0.00  0.00    +0.000 OA
BRANCH  19  20
ATOM     20  C   UNL     1       4.989   5.840  17.655  0.00  0.00    +0.000 C 
BRANCH  20  21
ATOM     21  C   UNL     1       5.238   5.830  16.153  0.00  0.00    +0.000 C 
ATOM     22  O   UNL     1       5.002   6.842  15.494  0.00  0.00    +0.000 OA
ATOM     23  N   UNL     1       5.685   4.622  15.663  0.00  0.00    +0.000 N 
ATOM     24  H   UNL     1       5.695   3.836  16.311  0.00  0.00    +0.000 HD
BRANCH  23  25
ATOM     25  C   UNL     1       5.980   4.327  14.317  0.00  0.00    +0.000 A 
ATOM     26  C   UNL     1       5.125   3.611  13.478  0.00  0.00    +0.000 A 
ATOM     27  C   UNL     1       5.503   3.317  12.164  0.00  0.00    +0.000 A 
ATOM     28  C   UNL     1       6.737   3.742  11.677  0.00  0.00    +0.000 A 
ATOM     29  C   UNL     1       7.586   4.481  12.495  0.00  0.00    +0.000 A 
ATOM     30  C   UNL     1       7.202   4.777  13.800  0.00  0.00    +0.000 A 
ATOM     31  F   UNL     1       8.035   5.475  14.579  0.00  0.00    +0.000 F 
ENDBRANCH  23  25
ENDBRANCH  20  21
ENDBRANCH  19  20
ENDBRANCH   6  19
TORSDOF 6
ENDMDL
MODEL 8
REMARK VINA RESULT:      -7.6      3.976      9.090
REMARK  Name = 
REMARK  7 active torsions:
REMARK  status: ('A' for Active; 'I' for Inactive)
REMARK    1  A    between atoms: C_1  and  C_2
REMARK    2  A    between atoms: C_5  and  C_6
REMARK    3  A    between atoms: C_9  and  C_10
REMARK    4  A    between atoms: C_15  and  O_16
REMARK    5  A    between atoms: O_16  and  C_17
REMARK    6  A    between atoms: C_17  and  C_18
REMARK    7  A    between atoms: N_20  and  C_21
REMARK                            x       y       z     vdW  Elec       q    Type
REMARK                         _______ _______ _______ _____ _____    ______ ____
ROOT
ATOM      1  C   UNL     1       0.644   9.416  20.733  0.00  0.00    +0.000 A 
ATOM      2  C   UNL     1       0.542   8.952  22.061  0.00  0.00    +0.000 A 
ATOM      3  C   UNL     1      -0.151   9.668  23.035  0.00  0.00    +0.000 A 
ATOM      4  C   UNL     1      -0.723  10.888  22.711  0.00  0.00    +0.000 A 
ATOM      5  C   UNL     1      -0.632  11.370  21.406  0.00  0.00    +0.000 A 
ATOM      6  C   UNL     1       0.006  10.625  20.398  0.00  0.00    +0.000 A 
ENDROOT
BRANCH   1  10
ATOM      7  C   UNL     1       2.609   7.132  18.878  0.00  0.00    +0.000 A 
ATOM      8  N   UNL     1       2.169   7.875  17.853  0.00  0.00    +0.000 NA
ATOM      9  O   UNL     1       1.370   8.847  18.475  0.00  0.00    +0.000 OA
ATOM     10  C   UNL     1       1.430   8.597  19.816  0.00  0.00    +0.000 A 
ATOM     11  N   UNL     1       2.182   7.558  20.109  0.00  0.00    +0.000 NA
BRANCH   7  16
ATOM     12  C   UNL     1       0.465   2.843  19.088  0.00  0.00    +0.000 C 
ATOM     13  C   UNL     1       1.856   3.459  18.927  0.00  0.00    +0.000 C 
ATOM     14  C   UNL     1       1.924   4.286  17.637  0.00  0.00    +0.000 C 
ATOM     15  C   UNL     1       3.230   5.070  17.505  0.00  0.00    +0.000 C 
ATOM     16  C   UNL     1       3.523   5.947  18.733  0.00  0.00    +0.000 C 
ATOM     17  C   UNL     1       3.527   5.054  19.990  0.00  0.00    +0.000 C 
ATOM     18  C   UNL     1       2.214   4.290  20.165  0.00  0.00    +0.000 C 
ENDBRANCH   7  16
ENDBRANCH   1  10
BRANCH   6  19
ATOM     19  O   UNL     1       0.051  11.048  19.090  0.00  0.00    +0.000 OA
BRANCH  19  20
ATOM     20  C   UNL     1      -0.921  12.036  18.758  0.00  0.00    +0.000 C 
BRANCH  20  21
ATOM     21  C   UNL     1      -2.350  11.511  18.703  0.00  0.00    +0.000 C 
ATOM     22  O   UNL     1      -2.563  10.380  18.269  0.00  0.00    +0.000 OA
ATOM     23  N   UNL     1      -3.299  12.415  19.128  0.00  0.00    +0.000 N 
ATOM     24  H   UNL     1      -2.980  13.363  19.324  0.00  0.00    +0.000 HD
BRANCH  23  25
ATOM     25  C   UNL     1      -4.692  12.203  19.170  0.00  0.00    +0.000 A 
ATOM     26  C   UNL     1      -5.418  12.073  20.353  0.00  0.00    +0.000 A 
ATOM     27  C   UNL     1      -6.793  11.821  20.317  0.00  0.00    +0.000 A 
ATOM     28  C   UNL     1      -7.454  11.703  19.097  0.00  0.00    +0.000 A 
ATOM     29  C   UNL     1      -6.745  11.858  17.909  0.00  0.00    +0.000 A 
ATOM     30  C   UNL     1      -5.378  12.117  17.951  0.00  0.00    +0.000 A 
ATOM     31  F   UNL     1      -4.708  12.248  16.802  0.00  0.00    +0.000 F 
ENDBRANCH  23  25
ENDBRANCH  20  21
ENDBRANCH  19  20
ENDBRANCH   6  19
TORSDOF 6
ENDMDL
MODEL 9
REMARK VINA RESULT:      -7.6      2.668      3.337
REMARK  Name = 
REMARK  7 active torsions:
REMARK  status: ('A' for Active; 'I' for Inactive)
REMARK    1  A    between atoms: C_1  and  C_2
REMARK    2  A    between atoms: C_5  and  C_6
REMARK    3  A    between atoms: C_9  and  C_10
REMARK    4  A    between atoms: C_15  and  O_16
REMARK    5  A    between atoms: O_16  and  C_17
REMARK    6  A    between atoms: C_17  and  C_18
REMARK    7  A    between atoms: N_20  and  C_21
REMARK                            x       y       z     vdW  Elec       q    Type
REMARK                         _______ _______ _______ _____ _____    ______ ____
ROOT
ATOM      1  C   UNL     1       2.357   4.770  18.921  0.00  0.00    +0.000 A 
ATOM      2  C   UNL     1       1.343   3.813  19.133  0.00  0.00    +0.000 A 
ATOM      3  C   UNL     1       1.436   2.521  18.619  0.00  0.00    +0.000 A 
ATOM      4  C   UNL     1       2.531   2.171  17.844  0.00  0.00    +0.000 A 
ATOM      5  C   UNL     1       3.544   3.101  17.616  0.00  0.00    +0.000 A 
ATOM      6  C   UNL     1       3.493   4.386  18.185  0.00  0.00    +0.000 A 
ENDROOT
BRANCH   1  10
ATOM      7  C   UNL     1       1.826   8.152  19.819  0.00  0.00    +0.000 A 
ATOM      8  N   UNL     1       1.469   7.590  20.983  0.00  0.00    +0.000 NA
ATOM      9  O   UNL     1       1.652   6.218  20.752  0.00  0.00    +0.000 OA
ATOM     10  C   UNL     1       2.122   6.099  19.476  0.00  0.00    +0.000 A 
ATOM     11  N   UNL     1       2.249   7.259  18.868  0.00  0.00    +0.000 NA
BRANCH   7  16
ATOM     12  C   UNL     1      -2.276   9.883  18.028  0.00  0.00    +0.000 C 
ATOM     13  C   UNL     1      -0.878  10.350  18.436  0.00  0.00    +0.000 C 
ATOM     14  C   UNL     1      -0.662  10.128  19.939  0.00  0.00    +0.000 C 
ATOM     15  C   UNL     1       0.775  10.411  20.377  0.00  0.00    +0.000 C 
ATOM     16  C   UNL     1       1.813   9.632  19.554  0.00  0.00    +0.000 C 
ATOM     17  C   UNL     1       1.607   9.956  18.061  0.00  0.00    +0.000 C 
ATOM     18  C   UNL     1       0.186   9.642  17.588  0.00  0.00    +0.000 C 
ENDBRANCH   7  16
ENDBRANCH   1  10
BRANCH   6  19
ATOM     19  O   UNL     1       4.511   5.298  18.030  0.00  0.00    +0.000 OA
BRANCH  19  20
ATOM     20  C   UNL     1       5.817   4.758  18.212  0.00  0.00    +0.000 C 
BRANCH  20  21
ATOM     21  C   UNL     1       6.563   4.478  16.914  0.00  0.00    +0.000 C 
ATOM     22  O   UNL     1       7.751   4.160  16.955  0.00  0.00    +0.000 OA
ATOM     23  N   UNL     1       5.804   4.657  15.778  0.00  0.00    +0.000 N 
ATOM     24  H   UNL     1       4.876   5.061  15.900  0.00  0.00    +0.000 HD
BRANCH  23  25
ATOM     25  C   UNL     1       6.240   4.484  14.449  0.00  0.00    +0.000 A 
ATOM     26  C   UNL     1       5.664   3.578  13.559  0.00  0.00    +0.000 A 
ATOM     27  C   UNL     1       6.178   3.429  12.267  0.00  0.00    +0.000 A 
ATOM     28  C   UNL     1       7.268   4.190  11.852  0.00  0.00    +0.000 A 
ATOM     29  C   UNL     1       7.834   5.118  12.722  0.00  0.00    +0.000 A 
ATOM     30  C   UNL     1       7.314   5.267  14.005  0.00  0.00    +0.000 A 
ATOM     31  F   UNL     1       7.878   6.152  14.833  0.00  0.00    +0.000 F 
ENDBRANCH  23  25
ENDBRANCH  20  21
ENDBRANCH  19  20
ENDBRANCH   6  19
TORSDOF 6
ENDMDL
