MODEL 1
REMARK VINA RESULT:      -9.9      0.000      0.000
REMARK  Name = 
REMARK  4 active torsions:
REMARK  status: ('A' for Active; 'I' for Inactive)
REMARK    1  A    between atoms: C_2  and  C_20
REMARK    2  A    between atoms: N_3  and  C_4
REMARK    3  A    between atoms: C_4  and  C_5
REMARK    4  A    between atoms: C_7  and  C_8
REMARK                            x       y       z     vdW  Elec       q    Type
REMARK                         _______ _______ _______ _____ _____    ______ ____
ROOT
ATOM      1  C   UNL     1       7.712   5.527  18.549  0.00  0.00    +0.000 C 
ENDROOT
BRANCH   1   2
ATOM      2  C   UNL     1       6.309   5.465  18.063  0.00  0.00    +0.000 A 
ATOM      3  N   UNL     1       5.183   5.756  18.679  0.00  0.00    +0.000 NA
ATOM      4  C   UNL     1       4.241   5.572  17.683  0.00  0.00    +0.000 A 
ATOM      5  N   UNL     1       4.753   5.146  16.517  0.00  0.00    +0.000 NA
ATOM      6  O   UNL     1       6.126   5.088  16.764  0.00  0.00    +0.000 OA
BRANCH   4   7
ATOM      7  C   UNL     1       2.770   5.726  17.954  0.00  0.00    +0.000 C 
ATOM      8  C   UNL     1       2.410   7.133  18.463  0.00  0.00    +0.000 C 
ATOM      9  C   UNL     1       2.363   7.232  19.985  0.00  0.00    +0.000 C 
ATOM     10  C   UNL     1       1.378   6.218  20.552  0.00  0.00    +0.000 C 
ATOM     11  C   UNL     1       1.677   4.818  20.084  0.00  0.00    +0.000 A 
ATOM     12  C   UNL     1       1.229   3.739  20.865  0.00  0.00    +0.000 A 
ATOM     13  C   UNL     1       1.430   2.425  20.448  0.00  0.00    +0.000 A 
ATOM     14  C   UNL     1       2.062   2.177  19.236  0.00  0.00    +0.000 A 
ATOM     15  C   UNL     1       2.497   3.242  18.442  0.00  0.00    +0.000 A 
ATOM     16  C   UNL     1       2.329   4.578  18.855  0.00  0.00    +0.000 A 
ENDBRANCH   4   7
ENDBRANCH   1   2
BRANCH   1  19
ATOM     17  O   UNL     1       7.750   7.577  16.735  0.00  0.00    +0.000 OA
ATOM     18  C   UNL     1       8.096   7.843  17.884  0.00  0.00    +0.000 C 
ATOM     19  N   UNL     1       8.125   6.881  18.868  0.00  0.00    +0.000 N 
ATOM     20  H   UNL     1       8.300   7.143  19.828  0.00  0.00    +0.000 HD
BRANCH  18  21
ATOM     21  C   UNL     1       8.491   9.182  18.266  0.00  0.00    +0.000 A 
ATOM     22  C   UNL     1       8.365  10.419  17.657  0.00  0.00    +0.000 A 
ATOM     23  C   UNL     1       8.918  11.409  18.527  0.00  0.00    +0.000 A 
ATOM     24  C   UNL     1       9.058  12.810  18.459  0.00  0.00    +0.000 A 
ATOM     25  C   UNL     1       9.661  13.493  19.523  0.00  0.00    +0.000 A 
ATOM     26  C   UNL     1      10.124  12.801  20.641  0.00  0.00    +0.000 A 
ATOM     27  C   UNL     1       9.996  11.411  20.729  0.00  0.00    +0.000 A 
ATOM     28  C   UNL     1       9.388  10.746  19.657  0.00  0.00    +0.000 A 
ATOM     29  N   UNL     1       9.122   9.411  19.474  0.00  0.00    +0.000 N 
ATOM     30  H   UNL     1       9.341   8.678  20.135  0.00  0.00    +0.000 HD
ENDBRANCH  18  21
ENDBRANCH   1  19
TORSDOF 4
ENDMDL
MODEL 2
REMARK VINA RESULT:      -9.5      0.624      1.179
REMARK  Name = 
REMARK  4 active torsions:
REMARK  status: ('A' for Active; 'I' for Inactive)
REMARK    1  A    between atoms: C_2  and  C_20
REMARK    2  A    between atoms: N_3  and  C_4
REMARK    3  A    between atoms: C_4  and  C_5
REMARK    4  A    between atoms: C_7  and  C_8
REMARK                            x       y       z     vdW  Elec       q    Type
REMARK                         _______ _______ _______ _____ _____    ______ ____
ROOT
ATOM      1  C   UNL     1       7.677   5.518  18.565  0.00  0.00    +0.000 C 
ENDROOT
BRANCH   1   2
ATOM      2  C   UNL     1       6.274   5.469  18.078  0.00  0.00    +0.000 A 
ATOM      3  N   UNL     1       5.149   5.757  18.697  0.00  0.00    +0.000 NA
ATOM      4  C   UNL     1       4.207   5.591  17.698  0.00  0.00    +0.000 A 
ATOM      5  N   UNL     1       4.718   5.178  16.527  0.00  0.00    +0.000 NA
ATOM      6  O   UNL     1       6.090   5.110  16.773  0.00  0.00    +0.000 OA
BRANCH   4   7
ATOM      7  C   UNL     1       2.737   5.748  17.970  0.00  0.00    +0.000 C 
ATOM      8  C   UNL     1       2.390   7.131  18.549  0.00  0.00    +0.000 C 
ATOM      9  C   UNL     1       2.337   7.153  20.074  0.00  0.00    +0.000 C 
ATOM     10  C   UNL     1       1.338   6.123  20.584  0.00  0.00    +0.000 C 
ATOM     11  C   UNL     1       1.623   4.745  20.046  0.00  0.00    +0.000 A 
ATOM     12  C   UNL     1       1.159   3.633  20.770  0.00  0.00    +0.000 A 
ATOM     13  C   UNL     1       1.346   2.340  20.287  0.00  0.00    +0.000 A 
ATOM     14  C   UNL     1       1.981   2.147  19.067  0.00  0.00    +0.000 A 
ATOM     15  C   UNL     1       2.432   3.245  18.330  0.00  0.00    +0.000 A 
ATOM     16  C   UNL     1       2.278   4.560  18.809  0.00  0.00    +0.000 A 
ENDBRANCH   4   7
ENDBRANCH   1   2
BRANCH   1  19
ATOM     17  O   UNL     1       7.749   7.559  16.742  0.00  0.00    +0.000 OA
ATOM     18  C   UNL     1       8.091   7.826  17.893  0.00  0.00    +0.000 C 
ATOM     19  N   UNL     1       8.104   6.869  18.881  0.00  0.00    +0.000 N 
ATOM     20  H   UNL     1       8.276   7.133  19.840  0.00  0.00    +0.000 HD
BRANCH  18  21
ATOM     21  C   UNL     1       8.499   9.162  18.271  0.00  0.00    +0.000 A 
ATOM     22  C   UNL     1       9.283   9.661  19.298  0.00  0.00    +0.000 A 
ATOM     23  C   UNL     1       9.368  11.080  19.155  0.00  0.00    +0.000 A 
ATOM     24  C   UNL     1      10.022  12.103  19.870  0.00  0.00    +0.000 A 
ATOM     25  C   UNL     1       9.898  13.430  19.440  0.00  0.00    +0.000 A 
ATOM     26  C   UNL     1       9.133  13.745  18.317  0.00  0.00    +0.000 A 
ATOM     27  C   UNL     1       8.476  12.746  17.593  0.00  0.00    +0.000 A 
ATOM     28  C   UNL     1       8.614  11.425  18.036  0.00  0.00    +0.000 A 
ATOM     29  N   UNL     1       8.101  10.257  17.527  0.00  0.00    +0.000 N 
ATOM     30  H   UNL     1       7.517  10.187  16.704  0.00  0.00    +0.000 HD
ENDBRANCH  18  21
ENDBRANCH   1  19
TORSDOF 4
ENDMDL
MODEL 3
REMARK VINA RESULT:      -9.4      1.155      1.325
REMARK  Name = 
REMARK  4 active torsions:
REMARK  status: ('A' for Active; 'I' for Inactive)
REMARK    1  A    between atoms: C_2  and  C_20
REMARK    2  A    between atoms: N_3  and  C_4
REMARK    3  A    between atoms: C_4  and  C_5
REMARK    4  A    between atoms: C_7  and  C_8
REMARK                            x       y       z     vdW  Elec       q    Type
REMARK                         _______ _______ _______ _____ _____    ______ ____
ROOT
ATOM      1  C   UNL     1       7.366   6.893  16.780  0.00  0.00    +0.000 C 
ENDROOT
BRANCH   1   2
ATOM      2  C   UNL     1       6.130   6.462  17.482  0.00  0.00    +0.000 A 
ATOM      3  N   UNL     1       4.865   6.674  17.184  0.00  0.00    +0.000 NA
ATOM      4  C   UNL     1       4.203   5.959  18.165  0.00  0.00    +0.000 A 
ATOM      5  N   UNL     1       5.015   5.367  19.054  0.00  0.00    +0.000 NA
ATOM      6  O   UNL     1       6.294   5.688  18.595  0.00  0.00    +0.000 OA
BRANCH   4   7
ATOM      7  C   UNL     1       2.702   5.969  18.267  0.00  0.00    +0.000 C 
ATOM      8  C   UNL     1       2.188   7.023  19.265  0.00  0.00    +0.000 C 
ATOM      9  C   UNL     1       1.949   6.465  20.664  0.00  0.00    +0.000 C 
ATOM     10  C   UNL     1       0.973   5.298  20.610  0.00  0.00    +0.000 C 
ATOM     11  C   UNL     1       1.421   4.232  19.644  0.00  0.00    +0.000 A 
ATOM     12  C   UNL     1       0.954   2.919  19.829  0.00  0.00    +0.000 A 
ATOM     13  C   UNL     1       1.293   1.909  18.931  0.00  0.00    +0.000 A 
ATOM     14  C   UNL     1       2.084   2.206  17.829  0.00  0.00    +0.000 A 
ATOM     15  C   UNL     1       2.540   3.511  17.624  0.00  0.00    +0.000 A 
ATOM     16  C   UNL     1       2.233   4.543  18.532  0.00  0.00    +0.000 A 
ENDBRANCH   4   7
ENDBRANCH   1   2
BRANCH   1  19
ATOM     17  O   UNL     1       8.708   7.519  19.083  0.00  0.00    +0.000 OA
ATOM     18  C   UNL     1       8.448   8.446  18.319  0.00  0.00    +0.000 C 
ATOM     19  N   UNL     1       7.765   8.240  17.142  0.00  0.00    +0.000 N 
ATOM     20  H   UNL     1       7.663   8.993  16.477  0.00  0.00    +0.000 HD
BRANCH  18  21
ATOM     21  C   UNL     1       8.846   9.806  18.615  0.00  0.00    +0.000 A 
ATOM     22  C   UNL     1       8.750  10.997  17.915  0.00  0.00    +0.000 A 
ATOM     23  C   UNL     1       9.289  12.043  18.726  0.00  0.00    +0.000 A 
ATOM     24  C   UNL     1       9.445  13.434  18.562  0.00  0.00    +0.000 A 
ATOM     25  C   UNL     1      10.023  14.187  19.591  0.00  0.00    +0.000 A 
ATOM     26  C   UNL     1      10.447  13.574  20.769  0.00  0.00    +0.000 A 
ATOM     27  C   UNL     1      10.303  12.196  20.953  0.00  0.00    +0.000 A 
ATOM     28  C   UNL     1       9.719  11.459  19.915  0.00  0.00    +0.000 A 
ATOM     29  N   UNL     1       9.445  10.117  19.820  0.00  0.00    +0.000 N 
ATOM     30  H   UNL     1       9.637   9.431  20.539  0.00  0.00    +0.000 HD
ENDBRANCH  18  21
ENDBRANCH   1  19
TORSDOF 4
ENDMDL
MODEL 4
REMARK VINA RESULT:      -9.1      1.271      1.799
REMARK  Name = 
REMARK  4 active torsions:
REMARK  status: ('A' for Active; 'I' for Inactive)
REMARK    1  A    between atoms: C_2  and  C_20
REMARK    2  A    between atoms: N_3  and  C_4
REMARK    3  A    between atoms: C_4  and  C_5
REMARK    4  A    between atoms: C_7  and  C_8
REMARK                            x       y       z     vdW  Elec       q    Type
REMARK                         _______ _______ _______ _____ _____    ______ ____
ROOT
ATOM      1  C   UNL     1       7.358   7.105  16.809  0.00  0.00    +0.000 C 
ENDROOT
BRANCH   1   2
ATOM      2  C   UNL     1       6.129   6.624  17.493  0.00  0.00    +0.000 A 
ATOM      3  N   UNL     1       4.861   6.823  17.202  0.00  0.00    +0.000 NA
ATOM      4  C   UNL     1       4.213   6.058  18.154  0.00  0.00    +0.000 A 
ATOM      5  N   UNL     1       5.036   5.447  19.020  0.00  0.00    +0.000 NA
ATOM      6  O   UNL     1       6.308   5.810  18.575  0.00  0.00    +0.000 OA
BRANCH   4   7
ATOM      7  C   UNL     1       2.712   6.035  18.255  0.00  0.00    +0.000 C 
ATOM      8  C   UNL     1       2.177   7.048  19.284  0.00  0.00    +0.000 C 
ATOM      9  C   UNL     1       1.948   6.442  20.665  0.00  0.00    +0.000 C 
ATOM     10  C   UNL     1       0.995   5.258  20.574  0.00  0.00    +0.000 C 
ATOM     11  C   UNL     1       1.464   4.231  19.576  0.00  0.00    +0.000 A 
ATOM     12  C   UNL     1       1.024   2.905  19.720  0.00  0.00    +0.000 A 
ATOM     13  C   UNL     1       1.383   1.930  18.792  0.00  0.00    +0.000 A 
ATOM     14  C   UNL     1       2.168   2.276  17.700  0.00  0.00    +0.000 A 
ATOM     15  C   UNL     1       2.599   3.595  17.536  0.00  0.00    +0.000 A 
ATOM     16  C   UNL     1       2.270   4.593  18.475  0.00  0.00    +0.000 A 
ENDBRANCH   4   7
ENDBRANCH   1   2
BRANCH   1  19
ATOM     17  O   UNL     1       8.802   7.601  19.082  0.00  0.00    +0.000 OA
ATOM     18  C   UNL     1       8.485   8.573  18.399  0.00  0.00    +0.000 C 
ATOM     19  N   UNL     1       7.747   8.433  17.246  0.00  0.00    +0.000 N 
ATOM     20  H   UNL     1       7.596   9.228  16.641  0.00  0.00    +0.000 HD
BRANCH  18  21
ATOM     21  C   UNL     1       8.869   9.918  18.771  0.00  0.00    +0.000 A 
ATOM     22  C   UNL     1       9.395  10.470  19.926  0.00  0.00    +0.000 A 
ATOM     23  C   UNL     1       9.607  11.866  19.704  0.00  0.00    +0.000 A 
ATOM     24  C   UNL     1      10.122  12.919  20.487  0.00  0.00    +0.000 A 
ATOM     25  C   UNL     1      10.200  14.207  19.941  0.00  0.00    +0.000 A 
ATOM     26  C   UNL     1       9.772  14.454  18.638  0.00  0.00    +0.000 A 
ATOM     27  C   UNL     1       9.257  13.425  17.844  0.00  0.00    +0.000 A 
ATOM     28  C   UNL     1       9.190  12.143  18.405  0.00  0.00    +0.000 A 
ATOM     29  N   UNL     1       8.748  10.958  17.869  0.00  0.00    +0.000 N 
ATOM     30  H   UNL     1       8.391  10.842  16.930  0.00  0.00    +0.000 HD
ENDBRANCH  18  21
ENDBRANCH   1  19
TORSDOF 4
ENDMDL
MODEL 5
REMARK VINA RESULT:      -9.0      1.565      9.538
REMARK  Name = 
REMARK  4 active torsions:
REMARK  status: ('A' for Active; 'I' for Inactive)
REMARK    1  A    between atoms: C_2  and  C_20
REMARK    2  A    between atoms: N_3  and  C_4
REMARK    3  A    between atoms: C_4  and  C_5
REMARK    4  A    between atoms: C_7  and  C_8
REMARK                            x       y       z     vdW  Elec       q    Type
REMARK                         _______ _______ _______ _____ _____    ______ ____
ROOT
ATOM      1  C   UNL     1       7.559   7.294  17.189  0.00  0.00    +0.000 C 
ENDROOT
BRANCH   1   2
ATOM      2  C   UNL     1       8.050   8.528  17.855  0.00  0.00    +0.000 A 
ATOM      3  N   UNL     1       8.979   8.685  18.775  0.00  0.00    +0.000 NA
ATOM      4  C   UNL     1       9.025  10.060  18.920  0.00  0.00    +0.000 A 
ATOM      5  N   UNL     1       8.139  10.721  18.160  0.00  0.00    +0.000 NA
ATOM      6  O   UNL     1       7.501   9.708  17.442  0.00  0.00    +0.000 OA
BRANCH   4   7
ATOM      7  C   UNL     1       9.916  10.712  19.941  0.00  0.00    +0.000 C 
ATOM      8  C   UNL     1       9.173  11.032  21.252  0.00  0.00    +0.000 C 
ATOM      9  C   UNL     1       8.627  12.455  21.305  0.00  0.00    +0.000 C 
ATOM     10  C   UNL     1       9.750  13.463  21.098  0.00  0.00    +0.000 C 
ATOM     11  C   UNL     1      10.519  13.198  19.830  0.00  0.00    +0.000 A 
ATOM     12  C   UNL     1      11.215  14.263  19.233  0.00  0.00    +0.000 A 
ATOM     13  C   UNL     1      11.988  14.059  18.092  0.00  0.00    +0.000 A 
ATOM     14  C   UNL     1      12.088  12.784  17.549  0.00  0.00    +0.000 A 
ATOM     15  C   UNL     1      11.415  11.713  18.143  0.00  0.00    +0.000 A 
ATOM     16  C   UNL     1      10.607  11.900  19.282  0.00  0.00    +0.000 A 
ENDBRANCH   4   7
ENDBRANCH   1   2
BRANCH   1  19
ATOM     17  O   UNL     1       5.124   6.653  16.114  0.00  0.00    +0.000 OA
ATOM     18  C   UNL     1       5.306   6.363  17.294  0.00  0.00    +0.000 C 
ATOM     19  N   UNL     1       6.490   6.654  17.933  0.00  0.00    +0.000 N 
ATOM     20  H   UNL     1       6.661   6.306  18.866  0.00  0.00    +0.000 HD
BRANCH  18  21
ATOM     21  C   UNL     1       4.286   5.699  18.078  0.00  0.00    +0.000 A 
ATOM     22  C   UNL     1       3.823   5.867  19.372  0.00  0.00    +0.000 A 
ATOM     23  C   UNL     1       2.764   4.935  19.598  0.00  0.00    +0.000 A 
ATOM     24  C   UNL     1       1.919   4.653  20.690  0.00  0.00    +0.000 A 
ATOM     25  C   UNL     1       0.951   3.648  20.569  0.00  0.00    +0.000 A 
ATOM     26  C   UNL     1       0.821   2.926  19.383  0.00  0.00    +0.000 A 
ATOM     27  C   UNL     1       1.649   3.188  18.288  0.00  0.00    +0.000 A 
ATOM     28  C   UNL     1       2.608   4.199  18.426  0.00  0.00    +0.000 A 
ATOM     29  N   UNL     1       3.536   4.675  17.532  0.00  0.00    +0.000 N 
ATOM     30  H   UNL     1       3.658   4.339  16.586  0.00  0.00    +0.000 HD
ENDBRANCH  18  21
ENDBRANCH   1  19
TORSDOF 4
ENDMDL
MODEL 6
REMARK VINA RESULT:      -9.0      5.629      8.846
REMARK  Name = 
REMARK  4 active torsions:
REMARK  status: ('A' for Active; 'I' for Inactive)
REMARK    1  A    between atoms: C_2  and  C_20
REMARK    2  A    between atoms: N_3  and  C_4
REMARK    3  A    between atoms: C_4  and  C_5
REMARK    4  A    between atoms: C_7  and  C_8
REMARK                            x       y       z     vdW  Elec       q    Type
REMARK                         _______ _______ _______ _____ _____    ______ ____
ROOT
ATOM      1  C   UNL     1       1.558   9.821  17.818  0.00  0.00    +0.000 C 
ENDROOT
BRANCH   1   2
ATOM      2  C   UNL     1       1.974   8.608  18.568  0.00  0.00    +0.000 A 
ATOM      3  N   UNL     1       2.789   7.634  18.224  0.00  0.00    +0.000 NA
ATOM      4  C   UNL     1       2.824   6.855  19.366  0.00  0.00    +0.000 A 
ATOM      5  N   UNL     1       2.035   7.300  20.356  0.00  0.00    +0.000 NA
ATOM      6  O   UNL     1       1.480   8.470  19.834  0.00  0.00    +0.000 OA
BRANCH   4   7
ATOM      7  C   UNL     1       3.593   5.563  19.413  0.00  0.00    +0.000 C 
ATOM      8  C   UNL     1       4.817   5.573  18.479  0.00  0.00    +0.000 C 
ATOM      9  C   UNL     1       4.535   4.971  17.107  0.00  0.00    +0.000 C 
ATOM     10  C   UNL     1       4.016   3.546  17.249  0.00  0.00    +0.000 C 
ATOM     11  C   UNL     1       2.816   3.471  18.158  0.00  0.00    +0.000 A 
ATOM     12  C   UNL     1       1.929   2.391  18.010  0.00  0.00    +0.000 A 
ATOM     13  C   UNL     1       0.837   2.245  18.862  0.00  0.00    +0.000 A 
ATOM     14  C   UNL     1       0.633   3.164  19.883  0.00  0.00    +0.000 A 
ATOM     15  C   UNL     1       1.518   4.233  20.051  0.00  0.00    +0.000 A 
ATOM     16  C   UNL     1       2.614   4.417  19.186  0.00  0.00    +0.000 A 
ENDBRANCH   4   7
ENDBRANCH   1   2
BRANCH   1  19
ATOM     17  O   UNL     1       0.278  11.776  19.245  0.00  0.00    +0.000 OA
ATOM     18  C   UNL     1      -0.425  11.030  18.566  0.00  0.00    +0.000 C 
ATOM     19  N   UNL     1       0.119  10.007  17.824  0.00  0.00    +0.000 N 
ATOM     20  H   UNL     1      -0.461   9.480  17.186  0.00  0.00    +0.000 HD
BRANCH  18  21
ATOM     21  C   UNL     1      -1.863  11.185  18.511  0.00  0.00    +0.000 A 
ATOM     22  C   UNL     1      -2.851  10.611  17.730  0.00  0.00    +0.000 A 
ATOM     23  C   UNL     1      -4.115  11.129  18.147  0.00  0.00    +0.000 A 
ATOM     24  C   UNL     1      -5.449  10.910  17.746  0.00  0.00    +0.000 A 
ATOM     25  C   UNL     1      -6.483  11.599  18.391  0.00  0.00    +0.000 A 
ATOM     26  C   UNL     1      -6.205  12.497  19.421  0.00  0.00    +0.000 A 
ATOM     27  C   UNL     1      -4.890  12.730  19.835  0.00  0.00    +0.000 A 
ATOM     28  C   UNL     1      -3.870  12.029  19.180  0.00  0.00    +0.000 A 
ATOM     29  N   UNL     1      -2.510  12.047  19.376  0.00  0.00    +0.000 N 
ATOM     30  H   UNL     1      -2.030  12.604  20.070  0.00  0.00    +0.000 HD
ENDBRANCH  18  21
ENDBRANCH   1  19
TORSDOF 4
ENDMDL
MODEL 7
REMARK VINA RESULT:      -9.0      5.544      8.731
REMARK  Name = 
REMARK  4 active torsions:
REMARK  status: ('A' for Active; 'I' for Inactive)
REMARK    1  A    between atoms: C_2  and  C_20
REMARK    2  A    between atoms: N_3  and  C_4
REMARK    3  A    between atoms: C_4  and  C_5
REMARK    4  A    between atoms: C_7  and  C_8
REMARK                            x       y       z     vdW  Elec       q    Type
REMARK                         _______ _______ _______ _____ _____    ______ ____
ROOT
ATOM      1  C   UNL     1       1.671   9.843  17.761  0.00  0.00    +0.000 C 
ENDROOT
BRANCH   1   2
ATOM      2  C   UNL     1       2.071   8.613  18.493  0.00  0.00    +0.000 A 
ATOM      3  N   UNL     1       2.919   7.664  18.158  0.00  0.00    +0.000 NA
ATOM      4  C   UNL     1       2.913   6.850  19.276  0.00  0.00    +0.000 A 
ATOM      5  N   UNL     1       2.070   7.251  20.240  0.00  0.00    +0.000 NA
ATOM      6  O   UNL     1       1.522   8.428  19.729  0.00  0.00    +0.000 OA
BRANCH   4   7
ATOM      7  C   UNL     1       3.700   5.569  19.320  0.00  0.00    +0.000 C 
ATOM      8  C   UNL     1       4.925   5.600  18.387  0.00  0.00    +0.000 C 
ATOM      9  C   UNL     1       4.654   4.998  17.013  0.00  0.00    +0.000 C 
ATOM     10  C   UNL     1       4.155   3.566  17.150  0.00  0.00    +0.000 C 
ATOM     11  C   UNL     1       2.956   3.470  18.057  0.00  0.00    +0.000 A 
ATOM     12  C   UNL     1       2.084   2.378  17.905  0.00  0.00    +0.000 A 
ATOM     13  C   UNL     1       0.994   2.213  18.755  0.00  0.00    +0.000 A 
ATOM     14  C   UNL     1       0.775   3.126  19.779  0.00  0.00    +0.000 A 
ATOM     15  C   UNL     1       1.644   4.207  19.951  0.00  0.00    +0.000 A 
ATOM     16  C   UNL     1       2.738   4.409  19.088  0.00  0.00    +0.000 A 
ENDBRANCH   4   7
ENDBRANCH   1   2
BRANCH   1  19
ATOM     17  O   UNL     1       0.683  11.951  19.202  0.00  0.00    +0.000 OA
ATOM     18  C   UNL     1      -0.136  11.227  18.640  0.00  0.00    +0.000 C 
ATOM     19  N   UNL     1       0.256  10.133  17.903  0.00  0.00    +0.000 N 
ATOM     20  H   UNL     1      -0.421   9.620  17.357  0.00  0.00    +0.000 HD
BRANCH  18  21
ATOM     21  C   UNL     1      -1.558  11.484  18.723  0.00  0.00    +0.000 A 
ATOM     22  C   UNL     1      -2.355  12.122  19.658  0.00  0.00    +0.000 A 
ATOM     23  C   UNL     1      -3.705  12.101  19.192  0.00  0.00    +0.000 A 
ATOM     24  C   UNL     1      -4.927  12.596  19.692  0.00  0.00    +0.000 A 
ATOM     25  C   UNL     1      -6.101  12.402  18.954  0.00  0.00    +0.000 A 
ATOM     26  C   UNL     1      -6.072  11.725  17.735  0.00  0.00    +0.000 A 
ATOM     27  C   UNL     1      -4.872  11.225  17.221  0.00  0.00    +0.000 A 
ATOM     28  C   UNL     1      -3.707  11.431  17.971  0.00  0.00    +0.000 A 
ATOM     29  N   UNL     1      -2.408  11.068  17.715  0.00  0.00    +0.000 N 
ATOM     30  H   UNL     1      -2.093  10.572  16.891  0.00  0.00    +0.000 HD
ENDBRANCH  18  21
ENDBRANCH   1  19
TORSDOF 4
ENDMDL
MODEL 8
REMARK VINA RESULT:      -9.0      5.047      7.964
REMARK  Name = 
REMARK  4 active torsions:
REMARK  status: ('A' for Active; 'I' for Inactive)
REMARK    1  A    between atoms: C_2  and  C_20
REMARK    2  A    between atoms: N_3  and  C_4
REMARK    3  A    between atoms: C_4  and  C_5
REMARK    4  A    between atoms: C_7  and  C_8
REMARK                            x       y       z     vdW  Elec       q    Type
REMARK                         _______ _______ _______ _____ _____    ______ ____
ROOT
ATOM      1  C   UNL     1       1.177   7.639  21.270  0.00  0.00    +0.000 C 
ENDROOT
BRANCH   1   2
ATOM      2  C   UNL     1       0.821   9.071  21.098  0.00  0.00    +0.000 A 
ATOM      3  N   UNL     1      -0.017   9.644  20.261  0.00  0.00    +0.000 NA
ATOM      4  C   UNL     1       0.036  10.971  20.646  0.00  0.00    +0.000 A 
ATOM      5  N   UNL     1       0.897  11.217  21.645  0.00  0.00    +0.000 NA
ATOM      6  O   UNL     1       1.409   9.956  21.956  0.00  0.00    +0.000 OA
BRANCH   4   7
ATOM      7  C   UNL     1      -0.726  12.035  19.904  0.00  0.00    +0.000 C 
ATOM      8  C   UNL     1      -1.409  13.038  20.852  0.00  0.00    +0.000 C 
ATOM      9  C   UNL     1      -2.859  12.683  21.164  0.00  0.00    +0.000 C 
ATOM     10  C   UNL     1      -3.666  12.569  19.878  0.00  0.00    +0.000 C 
ATOM     11  C   UNL     1      -3.043  11.603  18.904  0.00  0.00    +0.000 A 
ATOM     12  C   UNL     1      -3.866  11.002  17.936  0.00  0.00    +0.000 A 
ATOM     13  C   UNL     1      -3.329  10.145  16.978  0.00  0.00    +0.000 A 
ATOM     14  C   UNL     1      -1.962   9.897  16.965  0.00  0.00    +0.000 A 
ATOM     15  C   UNL     1      -1.131  10.501  17.913  0.00  0.00    +0.000 A 
ATOM     16  C   UNL     1      -1.654  11.350  18.907  0.00  0.00    +0.000 A 
ENDBRANCH   4   7
ENDBRANCH   1   2
BRANCH   1  19
ATOM     17  O   UNL     1       1.598   5.023  20.579  0.00  0.00    +0.000 OA
ATOM     18  C   UNL     1       2.310   5.865  20.035  0.00  0.00    +0.000 C 
ATOM     19  N   UNL     1       2.189   7.205  20.324  0.00  0.00    +0.000 N 
ATOM     20  H   UNL     1       2.702   7.888  19.784  0.00  0.00    +0.000 HD
BRANCH  18  21
ATOM     21  C   UNL     1       3.316   5.493  19.063  0.00  0.00    +0.000 A 
ATOM     22  C   UNL     1       3.262   5.168  17.719  0.00  0.00    +0.000 A 
ATOM     23  C   UNL     1       4.592   4.916  17.261  0.00  0.00    +0.000 A 
ATOM     24  C   UNL     1       5.155   4.567  16.017  0.00  0.00    +0.000 A 
ATOM     25  C   UNL     1       6.541   4.399  15.911  0.00  0.00    +0.000 A 
ATOM     26  C   UNL     1       7.365   4.571  17.023  0.00  0.00    +0.000 A 
ATOM     27  C   UNL     1       6.828   4.916  18.267  0.00  0.00    +0.000 A 
ATOM     28  C   UNL     1       5.440   5.083  18.352  0.00  0.00    +0.000 A 
ATOM     29  N   UNL     1       4.649   5.426  19.421  0.00  0.00    +0.000 N 
ATOM     30  H   UNL     1       4.985   5.621  20.355  0.00  0.00    +0.000 HD
ENDBRANCH  18  21
ENDBRANCH   1  19
TORSDOF 4
ENDMDL
MODEL 9
REMARK VINA RESULT:      -8.8      5.244      8.228
REMARK  Name = 
REMARK  4 active torsions:
REMARK  status: ('A' for Active; 'I' for Inactive)
REMARK    1  A    between atoms: C_2  and  C_20
REMARK    2  A    between atoms: N_3  and  C_4
REMARK    3  A    between atoms: C_4  and  C_5
REMARK    4  A    between atoms: C_7  and  C_8
REMARK                            x       y       z     vdW  Elec       q    Type
REMARK                         _______ _______ _______ _____ _____    ______ ____
ROOT
ATOM      1  C   UNL     1       1.176   7.966  21.316  0.00  0.00    +0.000 C 
ENDROOT
BRANCH   1   2
ATOM      2  C   UNL     1       0.721   9.361  21.079  0.00  0.00    +0.000 A 
ATOM      3  N   UNL     1      -0.105   9.843  20.174  0.00  0.00    +0.000 NA
ATOM      4  C   UNL     1      -0.180  11.180  20.521  0.00  0.00    +0.000 A 
ATOM      5  N   UNL     1       0.593  11.520  21.564  0.00  0.00    +0.000 NA
ATOM      6  O   UNL     1       1.181  10.312  21.944  0.00  0.00    +0.000 OA
BRANCH   4   7
ATOM      7  C   UNL     1      -0.974  12.160  19.703  0.00  0.00    +0.000 C 
ATOM      8  C   UNL     1      -1.725  13.183  20.575  0.00  0.00    +0.000 C 
ATOM      9  C   UNL     1      -3.164  12.778  20.879  0.00  0.00    +0.000 C 
ATOM     10  C   UNL     1      -3.935  12.549  19.586  0.00  0.00    +0.000 C 
ATOM     11  C   UNL     1      -3.245  11.558  18.685  0.00  0.00    +0.000 A 
ATOM     12  C   UNL     1      -4.017  10.863  17.738  0.00  0.00    +0.000 A 
ATOM     13  C   UNL     1      -3.419   9.978  16.843  0.00  0.00    +0.000 A 
ATOM     14  C   UNL     1      -2.041   9.795  16.873  0.00  0.00    +0.000 A 
ATOM     15  C   UNL     1      -1.262  10.494  17.799  0.00  0.00    +0.000 A 
ATOM     16  C   UNL     1      -1.847  11.374  18.730  0.00  0.00    +0.000 A 
ENDBRANCH   4   7
ENDBRANCH   1   2
BRANCH   1  19
ATOM     17  O   UNL     1       1.540   5.313  20.750  0.00  0.00    +0.000 OA
ATOM     18  C   UNL     1       2.135   6.121  20.040  0.00  0.00    +0.000 C 
ATOM     19  N   UNL     1       2.030   7.477  20.249  0.00  0.00    +0.000 N 
ATOM     20  H   UNL     1       2.432   8.125  19.586  0.00  0.00    +0.000 HD
BRANCH  18  21
ATOM     21  C   UNL     1       2.977   5.692  18.944  0.00  0.00    +0.000 A 
ATOM     22  C   UNL     1       3.366   4.448  18.476  0.00  0.00    +0.000 A 
ATOM     23  C   UNL     1       4.192   4.635  17.325  0.00  0.00    +0.000 A 
ATOM     24  C   UNL     1       4.851   3.764  16.435  0.00  0.00    +0.000 A 
ATOM     25  C   UNL     1       5.594   4.297  15.374  0.00  0.00    +0.000 A 
ATOM     26  C   UNL     1       5.688   5.677  15.195  0.00  0.00    +0.000 A 
ATOM     27  C   UNL     1       5.043   6.560  16.066  0.00  0.00    +0.000 A 
ATOM     28  C   UNL     1       4.301   6.008  17.118  0.00  0.00    +0.000 A 
ATOM     29  N   UNL     1       3.567   6.618  18.105  0.00  0.00    +0.000 N 
ATOM     30  H   UNL     1       3.450   7.618  18.210  0.00  0.00    +0.000 HD
ENDBRANCH  18  21
ENDBRANCH   1  19
TORSDOF 4
ENDMDL
