MODEL 1
REMARK VINA RESULT:      -9.3      0.000      0.000
REMARK  Name = 
REMARK  5 active torsions:
REMARK  status: ('A' for Active; 'I' for Inactive)
REMARK    1  A    between atoms: C_1  and  C_2
REMARK    2  A    between atoms: C_4  and  C_5
REMARK    3  A    between atoms: C_12  and  C_13
REMARK    4  A    between atoms: C_13  and  N_14
REMARK    5  A    between atoms: C_15  and  C_16
REMARK                            x       y       z     vdW  Elec       q    Type
REMARK                         _______ _______ _______ _____ _____    ______ ____
ROOT
ATOM      1  C   UNL     1       4.876   4.005  19.160  0.00  0.00    +0.000 C 
ENDROOT
BRANCH   1   7
ATOM      2  C   UNL     1       7.782   5.694  19.068  0.00  0.00    +0.000 C 
ATOM      3  C   UNL     1       6.944   5.066  18.034  0.00  0.00    +0.000 A 
ATOM      4  O   UNL     1       7.386   5.150  16.746  0.00  0.00    +0.000 OA
ATOM      5  C   UNL     1       6.425   4.505  16.013  0.00  0.00    +0.000 A 
ATOM      6  N   UNL     1       5.448   3.994  16.734  0.00  0.00    +0.000 NA
ATOM      7  C   UNL     1       5.748   4.377  18.023  0.00  0.00    +0.000 A 
BRANCH   5   8
ATOM      8  C   UNL     1       6.648   4.459  14.571  0.00  0.00    +0.000 A 
ATOM      9  C   UNL     1       7.603   5.278  13.948  0.00  0.00    +0.000 A 
ATOM     10  C   UNL     1       7.819   5.206  12.573  0.00  0.00    +0.000 A 
ATOM     11  C   UNL     1       7.081   4.314  11.800  0.00  0.00    +0.000 A 
ATOM     12  C   UNL     1       6.120   3.500  12.400  0.00  0.00    +0.000 A 
ATOM     13  C   UNL     1       5.905   3.575  13.778  0.00  0.00    +0.000 A 
ENDBRANCH   5   8
ENDBRANCH   1   7
BRANCH   1  14
ATOM     14  N   UNL     1       3.547   3.510  18.821  0.00  0.00    +0.000 N 
ATOM     15  C   UNL     1       2.386   4.203  18.777  0.00  0.00    +0.000 A 
ATOM     16  N   UNL     1       1.345   3.460  18.579  0.00  0.00    +0.000 NA
ATOM     17  O   UNL     1       1.839   2.138  18.470  0.00  0.00    +0.000 OA
ATOM     18  C   UNL     1       3.200   2.214  18.632  0.00  0.00    +0.000 A 
ATOM     19  O   UNL     1       3.917   1.226  18.577  0.00  0.00    +0.000 OA
BRANCH  15  20
ATOM     20  C   UNL     1       2.257   5.667  18.981  0.00  0.00    +0.000 A 
ATOM     21  C   UNL     1       1.968   6.252  20.216  0.00  0.00    +0.000 A 
ATOM     22  C   UNL     1       1.786   7.632  20.325  0.00  0.00    +0.000 A 
ATOM     23  C   UNL     1       1.958   8.450  19.212  0.00  0.00    +0.000 A 
ATOM     24  C   UNL     1       2.332   7.889  17.994  0.00  0.00    +0.000 A 
ATOM     25  C   UNL     1       2.480   6.504  17.876  0.00  0.00    +0.000 A 
ENDBRANCH  15  20
ENDBRANCH   1  14
TORSDOF 4
ENDMDL
MODEL 2
REMARK VINA RESULT:      -9.1      1.123      1.538
REMARK  Name = 
REMARK  5 active torsions:
REMARK  status: ('A' for Active; 'I' for Inactive)
REMARK    1  A    between atoms: C_1  and  C_2
REMARK    2  A    between atoms: C_4  and  C_5
REMARK    3  A    between atoms: C_12  and  C_13
REMARK    4  A    between atoms: C_13  and  N_14
REMARK    5  A    between atoms: C_15  and  C_16
REMARK                            x       y       z     vdW  Elec       q    Type
REMARK                         _______ _______ _______ _____ _____    ______ ____
ROOT
ATOM      1  C   UNL     1       5.420   5.586  19.288  0.00  0.00    +0.000 C 
ENDROOT
BRANCH   1   7
ATOM      2  C   UNL     1       8.019   7.463  18.276  0.00  0.00    +0.000 C 
ATOM      3  C   UNL     1       7.177   6.458  17.608  0.00  0.00    +0.000 A 
ATOM      4  O   UNL     1       7.461   6.184  16.303  0.00  0.00    +0.000 OA
ATOM      5  C   UNL     1       6.533   5.243  15.942  0.00  0.00    +0.000 A 
ATOM      6  N   UNL     1       5.724   4.881  16.917  0.00  0.00    +0.000 NA
ATOM      7  C   UNL     1       6.101   5.677  17.976  0.00  0.00    +0.000 A 
BRANCH   5   8
ATOM      8  C   UNL     1       6.605   4.774  14.561  0.00  0.00    +0.000 A 
ATOM      9  C   UNL     1       5.697   3.831  14.057  0.00  0.00    +0.000 A 
ATOM     10  C   UNL     1       5.766   3.410  12.729  0.00  0.00    +0.000 A 
ATOM     11  C   UNL     1       6.748   3.926  11.888  0.00  0.00    +0.000 A 
ATOM     12  C   UNL     1       7.665   4.856  12.375  0.00  0.00    +0.000 A 
ATOM     13  C   UNL     1       7.594   5.276  13.705  0.00  0.00    +0.000 A 
ENDBRANCH   5   8
ENDBRANCH   1   7
BRANCH   1  14
ATOM     14  N   UNL     1       4.210   4.773  19.333  0.00  0.00    +0.000 N 
ATOM     15  C   UNL     1       2.924   5.191  19.324  0.00  0.00    +0.000 A 
ATOM     16  N   UNL     1       2.067   4.241  19.515  0.00  0.00    +0.000 NA
ATOM     17  O   UNL     1       2.836   3.062  19.662  0.00  0.00    +0.000 OA
ATOM     18  C   UNL     1       4.153   3.437  19.550  0.00  0.00    +0.000 A 
ATOM     19  O   UNL     1       5.066   2.629  19.623  0.00  0.00    +0.000 OA
BRANCH  15  20
ATOM     20  C   UNL     1       2.485   6.600  19.164  0.00  0.00    +0.000 A 
ATOM     21  C   UNL     1       1.941   7.362  20.201  0.00  0.00    +0.000 A 
ATOM     22  C   UNL     1       1.478   8.658  19.966  0.00  0.00    +0.000 A 
ATOM     23  C   UNL     1       1.619   9.232  18.705  0.00  0.00    +0.000 A 
ATOM     24  C   UNL     1       2.239   8.515  17.685  0.00  0.00    +0.000 A 
ATOM     25  C   UNL     1       2.669   7.205  17.911  0.00  0.00    +0.000 A 
ENDBRANCH  15  20
ENDBRANCH   1  14
TORSDOF 4
ENDMDL
MODEL 3
REMARK VINA RESULT:      -9.0      0.125      1.366
REMARK  Name = 
REMARK  5 active torsions:
REMARK  status: ('A' for Active; 'I' for Inactive)
REMARK    1  A    between atoms: C_1  and  C_2
REMARK    2  A    between atoms: C_4  and  C_5
REMARK    3  A    between atoms: C_12  and  C_13
REMARK    4  A    between atoms: C_13  and  N_14
REMARK    5  A    between atoms: C_15  and  C_16
REMARK                            x       y       z     vdW  Elec       q    Type
REMARK                         _______ _______ _______ _____ _____    ______ ____
ROOT
ATOM      1  C   UNL     1       4.869   4.097  19.190  0.00  0.00    +0.000 C 
ENDROOT
BRANCH   1   7
ATOM      2  C   UNL     1       7.822   5.698  19.046  0.00  0.00    +0.000 C 
ATOM      3  C   UNL     1       6.960   5.073  18.031  0.00  0.00    +0.000 A 
ATOM      4  O   UNL     1       7.397   5.116  16.739  0.00  0.00    +0.000 OA
ATOM      5  C   UNL     1       6.413   4.484  16.025  0.00  0.00    +0.000 A 
ATOM      6  N   UNL     1       5.426   4.017  16.762  0.00  0.00    +0.000 NA
ATOM      7  C   UNL     1       5.744   4.419  18.041  0.00  0.00    +0.000 A 
BRANCH   5   8
ATOM      8  C   UNL     1       6.626   4.400  14.583  0.00  0.00    +0.000 A 
ATOM      9  C   UNL     1       5.883   3.522  13.780  0.00  0.00    +0.000 A 
ATOM     10  C   UNL     1       6.085   3.470  12.401  0.00  0.00    +0.000 A 
ATOM     11  C   UNL     1       7.035   4.296  11.807  0.00  0.00    +0.000 A 
ATOM     12  C   UNL     1       7.790   5.167  12.591  0.00  0.00    +0.000 A 
ATOM     13  C   UNL     1       7.587   5.217  13.972  0.00  0.00    +0.000 A 
ENDBRANCH   5   8
ENDBRANCH   1   7
BRANCH   1  14
ATOM     14  N   UNL     1       3.550   3.566  18.869  0.00  0.00    +0.000 N 
ATOM     15  C   UNL     1       2.372   4.232  18.821  0.00  0.00    +0.000 A 
ATOM     16  N   UNL     1       1.348   3.462  18.644  0.00  0.00    +0.000 NA
ATOM     17  O   UNL     1       1.870   2.150  18.555  0.00  0.00    +0.000 OA
ATOM     18  C   UNL     1       3.231   2.259  18.706  0.00  0.00    +0.000 A 
ATOM     19  O   UNL     1       3.970   1.287  18.664  0.00  0.00    +0.000 OA
BRANCH  15  20
ATOM     20  C   UNL     1       2.212   5.696  19.000  0.00  0.00    +0.000 A 
ATOM     21  C   UNL     1       2.455   6.628  17.987  0.00  0.00    +0.000 A 
ATOM     22  C   UNL     1       2.358   7.998  18.243  0.00  0.00    +0.000 A 
ATOM     23  C   UNL     1       1.950   8.448  19.495  0.00  0.00    +0.000 A 
ATOM     24  C   UNL     1       1.620   7.527  20.487  0.00  0.00    +0.000 A 
ATOM     25  C   UNL     1       1.752   6.158  20.242  0.00  0.00    +0.000 A 
ENDBRANCH  15  20
ENDBRANCH   1  14
TORSDOF 4
ENDMDL
MODEL 4
REMARK VINA RESULT:      -9.0      1.157      1.556
REMARK  Name = 
REMARK  5 active torsions:
REMARK  status: ('A' for Active; 'I' for Inactive)
REMARK    1  A    between atoms: C_1  and  C_2
REMARK    2  A    between atoms: C_4  and  C_5
REMARK    3  A    between atoms: C_12  and  C_13
REMARK    4  A    between atoms: C_13  and  N_14
REMARK    5  A    between atoms: C_15  and  C_16
REMARK                            x       y       z     vdW  Elec       q    Type
REMARK                         _______ _______ _______ _____ _____    ______ ____
ROOT
ATOM      1  C   UNL     1       5.474   5.530  19.210  0.00  0.00    +0.000 C 
ENDROOT
BRANCH   1   7
ATOM      2  C   UNL     1       7.854   7.589  18.027  0.00  0.00    +0.000 C 
ATOM      3  C   UNL     1       7.067   6.501  17.424  0.00  0.00    +0.000 A 
ATOM      4  O   UNL     1       7.308   6.218  16.113  0.00  0.00    +0.000 OA
ATOM      5  C   UNL     1       6.445   5.195  15.820  0.00  0.00    +0.000 A 
ATOM      6  N   UNL     1       5.719   4.792  16.842  0.00  0.00    +0.000 NA
ATOM      7  C   UNL     1       6.079   5.643  17.864  0.00  0.00    +0.000 A 
BRANCH   5   8
ATOM      8  C   UNL     1       6.488   4.698  14.447  0.00  0.00    +0.000 A 
ATOM      9  C   UNL     1       7.465   5.134  13.538  0.00  0.00    +0.000 A 
ATOM     10  C   UNL     1       7.505   4.633  12.238  0.00  0.00    +0.000 A 
ATOM     11  C   UNL     1       6.567   3.690  11.828  0.00  0.00    +0.000 A 
ATOM     12  C   UNL     1       5.583   3.255  12.714  0.00  0.00    +0.000 A 
ATOM     13  C   UNL     1       5.544   3.758  14.016  0.00  0.00    +0.000 A 
ENDBRANCH   5   8
ENDBRANCH   1   7
BRANCH   1  14
ATOM     14  N   UNL     1       4.288   4.689  19.317  0.00  0.00    +0.000 N 
ATOM     15  C   UNL     1       2.991   5.074  19.329  0.00  0.00    +0.000 A 
ATOM     16  N   UNL     1       2.164   4.110  19.576  0.00  0.00    +0.000 NA
ATOM     17  O   UNL     1       2.967   2.956  19.742  0.00  0.00    +0.000 OA
ATOM     18  C   UNL     1       4.270   3.359  19.580  0.00  0.00    +0.000 A 
ATOM     19  O   UNL     1       5.206   2.578  19.655  0.00  0.00    +0.000 OA
BRANCH  15  20
ATOM     20  C   UNL     1       2.512   6.466  19.134  0.00  0.00    +0.000 A 
ATOM     21  C   UNL     1       2.610   7.153  17.921  0.00  0.00    +0.000 A 
ATOM     22  C   UNL     1       2.209   8.487  17.824  0.00  0.00    +0.000 A 
ATOM     23  C   UNL     1       1.642   9.127  18.923  0.00  0.00    +0.000 A 
ATOM     24  C   UNL     1       1.459   8.427  20.112  0.00  0.00    +0.000 A 
ATOM     25  C   UNL     1       1.892   7.103  20.220  0.00  0.00    +0.000 A 
ENDBRANCH  15  20
ENDBRANCH   1  14
TORSDOF 4
ENDMDL
MODEL 5
REMARK VINA RESULT:      -8.6      2.628      7.484
REMARK  Name = 
REMARK  5 active torsions:
REMARK  status: ('A' for Active; 'I' for Inactive)
REMARK    1  A    between atoms: C_1  and  C_2
REMARK    2  A    between atoms: C_4  and  C_5
REMARK    3  A    between atoms: C_12  and  C_13
REMARK    4  A    between atoms: C_13  and  N_14
REMARK    5  A    between atoms: C_15  and  C_16
REMARK                            x       y       z     vdW  Elec       q    Type
REMARK                         _______ _______ _______ _____ _____    ______ ____
ROOT
ATOM      1  C   UNL     1       3.199   5.224  19.922  0.00  0.00    +0.000 C 
ENDROOT
BRANCH   1   7
ATOM      2  C   UNL     1       3.224   7.584  17.528  0.00  0.00    +0.000 C 
ATOM      3  C   UNL     1       2.583   7.490  18.849  0.00  0.00    +0.000 A 
ATOM      4  O   UNL     1       1.823   8.552  19.243  0.00  0.00    +0.000 OA
ATOM      5  C   UNL     1       1.370   8.204  20.489  0.00  0.00    +0.000 A 
ATOM      6  N   UNL     1       1.748   7.006  20.885  0.00  0.00    +0.000 NA
ATOM      7  C   UNL     1       2.553   6.554  19.863  0.00  0.00    +0.000 A 
BRANCH   5   8
ATOM      8  C   UNL     1       0.525   9.190  21.158  0.00  0.00    +0.000 A 
ATOM      9  C   UNL     1       0.242   9.105  22.529  0.00  0.00    +0.000 A 
ATOM     10  C   UNL     1      -0.549  10.067  23.157  0.00  0.00    +0.000 A 
ATOM     11  C   UNL     1      -1.068  11.127  22.419  0.00  0.00    +0.000 A 
ATOM     12  C   UNL     1      -0.806  11.221  21.053  0.00  0.00    +0.000 A 
ATOM     13  C   UNL     1      -0.015  10.256  20.427  0.00  0.00    +0.000 A 
ENDBRANCH   5   8
ENDBRANCH   1   7
BRANCH   1  14
ATOM     14  N   UNL     1       2.666   4.206  19.024  0.00  0.00    +0.000 N 
ATOM     15  C   UNL     1       3.200   3.754  17.866  0.00  0.00    +0.000 A 
ATOM     16  N   UNL     1       2.426   2.947  17.217  0.00  0.00    +0.000 NA
ATOM     17  O   UNL     1       1.256   2.828  18.005  0.00  0.00    +0.000 OA
ATOM     18  C   UNL     1       1.444   3.626  19.107  0.00  0.00    +0.000 A 
ATOM     19  O   UNL     1       0.604   3.726  19.988  0.00  0.00    +0.000 OA
BRANCH  15  20
ATOM     20  C   UNL     1       4.522   4.155  17.321  0.00  0.00    +0.000 A 
ATOM     21  C   UNL     1       5.676   4.267  18.101  0.00  0.00    +0.000 A 
ATOM     22  C   UNL     1       6.872   4.721  17.542  0.00  0.00    +0.000 A 
ATOM     23  C   UNL     1       6.943   5.004  16.181  0.00  0.00    +0.000 A 
ATOM     24  C   UNL     1       5.823   4.813  15.375  0.00  0.00    +0.000 A 
ATOM     25  C   UNL     1       4.617   4.392  15.942  0.00  0.00    +0.000 A 
ENDBRANCH  15  20
ENDBRANCH   1  14
TORSDOF 4
ENDMDL
MODEL 6
REMARK VINA RESULT:      -8.6      3.511      5.948
REMARK  Name = 
REMARK  5 active torsions:
REMARK  status: ('A' for Active; 'I' for Inactive)
REMARK    1  A    between atoms: C_1  and  C_2
REMARK    2  A    between atoms: C_4  and  C_5
REMARK    3  A    between atoms: C_12  and  C_13
REMARK    4  A    between atoms: C_13  and  N_14
REMARK    5  A    between atoms: C_15  and  C_16
REMARK                            x       y       z     vdW  Elec       q    Type
REMARK                         _______ _______ _______ _____ _____    ______ ____
ROOT
ATOM      1  C   UNL     1       5.796   6.972  16.597  0.00  0.00    +0.000 C 
ENDROOT
BRANCH   1   7
ATOM      2  C   UNL     1       7.795   5.408  18.801  0.00  0.00    +0.000 C 
ATOM      3  C   UNL     1       7.714   6.795  18.317  0.00  0.00    +0.000 A 
ATOM      4  O   UNL     1       8.614   7.682  18.830  0.00  0.00    +0.000 OA
ATOM      5  C   UNL     1       8.304   8.871  18.224  0.00  0.00    +0.000 A 
ATOM      6  N   UNL     1       7.320   8.793  17.352  0.00  0.00    +0.000 NA
ATOM      7  C   UNL     1       6.910   7.480  17.429  0.00  0.00    +0.000 A 
BRANCH   5   8
ATOM      8  C   UNL     1       9.124  10.016  18.612  0.00  0.00    +0.000 A 
ATOM      9  C   UNL     1       9.764  10.819  17.656  0.00  0.00    +0.000 A 
ATOM     10  C   UNL     1      10.525  11.922  18.043  0.00  0.00    +0.000 A 
ATOM     11  C   UNL     1      10.658  12.234  19.393  0.00  0.00    +0.000 A 
ATOM     12  C   UNL     1      10.038  11.441  20.357  0.00  0.00    +0.000 A 
ATOM     13  C   UNL     1       9.276  10.337  19.967  0.00  0.00    +0.000 A 
ENDBRANCH   5   8
ENDBRANCH   1   7
BRANCH   1  14
ATOM     14  N   UNL     1       5.897   5.584  16.159  0.00  0.00    +0.000 N 
ATOM     15  C   UNL     1       5.174   4.522  16.581  0.00  0.00    +0.000 A 
ATOM     16  N   UNL     1       5.588   3.391  16.109  0.00  0.00    +0.000 NA
ATOM     17  O   UNL     1       6.692   3.707  15.281  0.00  0.00    +0.000 OA
ATOM     18  C   UNL     1       6.852   5.070  15.346  0.00  0.00    +0.000 A 
ATOM     19  O   UNL     1       7.726   5.652  14.722  0.00  0.00    +0.000 OA
BRANCH  15  20
ATOM     20  C   UNL     1       4.038   4.587  17.534  0.00  0.00    +0.000 A 
ATOM     21  C   UNL     1       4.067   5.323  18.721  0.00  0.00    +0.000 A 
ATOM     22  C   UNL     1       2.992   5.282  19.611  0.00  0.00    +0.000 A 
ATOM     23  C   UNL     1       1.847   4.558  19.290  0.00  0.00    +0.000 A 
ATOM     24  C   UNL     1       1.770   3.890  18.071  0.00  0.00    +0.000 A 
ATOM     25  C   UNL     1       2.860   3.902  17.196  0.00  0.00    +0.000 A 
ENDBRANCH  15  20
ENDBRANCH   1  14
TORSDOF 4
ENDMDL
MODEL 7
REMARK VINA RESULT:      -8.5      3.481      5.966
REMARK  Name = 
REMARK  5 active torsions:
REMARK  status: ('A' for Active; 'I' for Inactive)
REMARK    1  A    between atoms: C_1  and  C_2
REMARK    2  A    between atoms: C_4  and  C_5
REMARK    3  A    between atoms: C_12  and  C_13
REMARK    4  A    between atoms: C_13  and  N_14
REMARK    5  A    between atoms: C_15  and  C_16
REMARK                            x       y       z     vdW  Elec       q    Type
REMARK                         _______ _______ _______ _____ _____    ______ ____
ROOT
ATOM      1  C   UNL     1       5.753   6.893  16.603  0.00  0.00    +0.000 C 
ENDROOT
BRANCH   1   7
ATOM      2  C   UNL     1       7.804   5.364  18.785  0.00  0.00    +0.000 C 
ATOM      3  C   UNL     1       7.692   6.750  18.303  0.00  0.00    +0.000 A 
ATOM      4  O   UNL     1       8.581   7.653  18.808  0.00  0.00    +0.000 OA
ATOM      5  C   UNL     1       8.243   8.837  18.206  0.00  0.00    +0.000 A 
ATOM      6  N   UNL     1       7.252   8.741  17.345  0.00  0.00    +0.000 NA
ATOM      7  C   UNL     1       6.866   7.421  17.424  0.00  0.00    +0.000 A 
BRANCH   5   8
ATOM      8  C   UNL     1       9.046   9.996  18.588  0.00  0.00    +0.000 A 
ATOM      9  C   UNL     1       9.249  10.338  19.933  0.00  0.00    +0.000 A 
ATOM     10  C   UNL     1      10.037  11.436  20.280  0.00  0.00    +0.000 A 
ATOM     11  C   UNL     1      10.629  12.207  19.284  0.00  0.00    +0.000 A 
ATOM     12  C   UNL     1      10.429  11.888  17.942  0.00  0.00    +0.000 A 
ATOM     13  C   UNL     1       9.639  10.789  17.597  0.00  0.00    +0.000 A 
ENDBRANCH   5   8
ENDBRANCH   1   7
BRANCH   1  14
ATOM     14  N   UNL     1       5.879   5.512  16.155  0.00  0.00    +0.000 N 
ATOM     15  C   UNL     1       5.187   4.430  16.582  0.00  0.00    +0.000 A 
ATOM     16  N   UNL     1       5.620   3.312  16.097  0.00  0.00    +0.000 NA
ATOM     17  O   UNL     1       6.703   3.658  15.254  0.00  0.00    +0.000 OA
ATOM     18  C   UNL     1       6.833   5.024  15.325  0.00  0.00    +0.000 A 
ATOM     19  O   UNL     1       7.683   5.630  14.691  0.00  0.00    +0.000 OA
BRANCH  15  20
ATOM     20  C   UNL     1       4.065   4.463  17.553  0.00  0.00    +0.000 A 
ATOM     21  C   UNL     1       2.729   4.268  17.195  0.00  0.00    +0.000 A 
ATOM     22  C   UNL     1       1.712   4.387  18.145  0.00  0.00    +0.000 A 
ATOM     23  C   UNL     1       2.028   4.635  19.478  0.00  0.00    +0.000 A 
ATOM     24  C   UNL     1       3.361   4.745  19.864  0.00  0.00    +0.000 A 
ATOM     25  C   UNL     1       4.376   4.662  18.907  0.00  0.00    +0.000 A 
ENDBRANCH  15  20
ENDBRANCH   1  14
TORSDOF 4
ENDMDL
MODEL 8
REMARK VINA RESULT:      -8.2      1.696      7.114
REMARK  Name = 
REMARK  5 active torsions:
REMARK  status: ('A' for Active; 'I' for Inactive)
REMARK    1  A    between atoms: C_1  and  C_2
REMARK    2  A    between atoms: C_4  and  C_5
REMARK    3  A    between atoms: C_12  and  C_13
REMARK    4  A    between atoms: C_13  and  N_14
REMARK    5  A    between atoms: C_15  and  C_16
REMARK                            x       y       z     vdW  Elec       q    Type
REMARK                         _______ _______ _______ _____ _____    ______ ____
ROOT
ATOM      1  C   UNL     1       4.422   4.273  16.778  0.00  0.00    +0.000 C 
ENDROOT
BRANCH   1   7
ATOM      2  C   UNL     1       2.028   3.183  18.872  0.00  0.00    +0.000 C 
ATOM      3  C   UNL     1       2.487   4.522  18.470  0.00  0.00    +0.000 A 
ATOM      4  O   UNL     1       1.847   5.588  19.031  0.00  0.00    +0.000 OA
ATOM      5  C   UNL     1       2.459   6.683  18.478  0.00  0.00    +0.000 A 
ATOM      6  N   UNL     1       3.446   6.392  17.656  0.00  0.00    +0.000 NA
ATOM      7  C   UNL     1       3.450   5.015  17.612  0.00  0.00    +0.000 A 
BRANCH   5   8
ATOM      8  C   UNL     1       1.948   7.982  18.907  0.00  0.00    +0.000 A 
ATOM      9  C   UNL     1       1.495   8.198  20.218  0.00  0.00    +0.000 A 
ATOM     10  C   UNL     1       1.031   9.451  20.616  0.00  0.00    +0.000 A 
ATOM     11  C   UNL     1       1.011  10.505  19.707  0.00  0.00    +0.000 A 
ATOM     12  C   UNL     1       1.446  10.305  18.398  0.00  0.00    +0.000 A 
ATOM     13  C   UNL     1       1.911   9.050  18.001  0.00  0.00    +0.000 A 
ENDBRANCH   5   8
ENDBRANCH   1   7
BRANCH   1  14
ATOM     14  N   UNL     1       5.829   4.446  17.118  0.00  0.00    +0.000 N 
ATOM     15  C   UNL     1       6.894   4.456  16.283  0.00  0.00    +0.000 A 
ATOM     16  N   UNL     1       8.034   4.490  16.894  0.00  0.00    +0.000 NA
ATOM     17  O   UNL     1       7.723   4.511  18.275  0.00  0.00    +0.000 OA
ATOM     18  C   UNL     1       6.353   4.476  18.368  0.00  0.00    +0.000 A 
ATOM     19  O   UNL     1       5.774   4.495  19.443  0.00  0.00    +0.000 OA
BRANCH  15  20
ATOM     20  C   UNL     1       6.817   4.387  14.802  0.00  0.00    +0.000 A 
ATOM     21  C   UNL     1       5.917   3.571  14.114  0.00  0.00    +0.000 A 
ATOM     22  C   UNL     1       5.947   3.495  12.719  0.00  0.00    +0.000 A 
ATOM     23  C   UNL     1       6.834   4.287  11.996  0.00  0.00    +0.000 A 
ATOM     24  C   UNL     1       7.677   5.169  12.666  0.00  0.00    +0.000 A 
ATOM     25  C   UNL     1       7.672   5.219  14.063  0.00  0.00    +0.000 A 
ENDBRANCH  15  20
ENDBRANCH   1  14
TORSDOF 4
ENDMDL
MODEL 9
REMARK VINA RESULT:      -8.2      2.887      7.729
REMARK  Name = 
REMARK  5 active torsions:
REMARK  status: ('A' for Active; 'I' for Inactive)
REMARK    1  A    between atoms: C_1  and  C_2
REMARK    2  A    between atoms: C_4  and  C_5
REMARK    3  A    between atoms: C_12  and  C_13
REMARK    4  A    between atoms: C_13  and  N_14
REMARK    5  A    between atoms: C_15  and  C_16
REMARK                            x       y       z     vdW  Elec       q    Type
REMARK                         _______ _______ _______ _____ _____    ______ ____
ROOT
ATOM      1  C   UNL     1       2.814   6.722  17.869  0.00  0.00    +0.000 C 
ENDROOT
BRANCH   1   7
ATOM      2  C   UNL     1       2.278   5.064  20.744  0.00  0.00    +0.000 C 
ATOM      3  C   UNL     1       1.977   6.433  20.295  0.00  0.00    +0.000 A 
ATOM      4  O   UNL     1       1.351   7.252  21.188  0.00  0.00    +0.000 OA
ATOM      5  C   UNL     1       1.189   8.433  20.511  0.00  0.00    +0.000 A 
ATOM      6  N   UNL     1       1.693   8.431  19.294  0.00  0.00    +0.000 NA
ATOM      7  C   UNL     1       2.167   7.148  19.130  0.00  0.00    +0.000 A 
BRANCH   5   8
ATOM      8  C   UNL     1       0.520   9.501  21.248  0.00  0.00    +0.000 A 
ATOM      9  C   UNL     1       0.534  10.829  20.792  0.00  0.00    +0.000 A 
ATOM     10  C   UNL     1      -0.129  11.833  21.496  0.00  0.00    +0.000 A 
ATOM     11  C   UNL     1      -0.814  11.524  22.667  0.00  0.00    +0.000 A 
ATOM     12  C   UNL     1      -0.830  10.212  23.140  0.00  0.00    +0.000 A 
ATOM     13  C   UNL     1      -0.165   9.208  22.434  0.00  0.00    +0.000 A 
ENDBRANCH   5   8
ENDBRANCH   1   7
BRANCH   1  14
ATOM     14  N   UNL     1       3.167   5.310  17.769  0.00  0.00    +0.000 N 
ATOM     15  C   UNL     1       4.400   4.755  17.798  0.00  0.00    +0.000 A 
ATOM     16  N   UNL     1       4.404   3.486  17.545  0.00  0.00    +0.000 NA
ATOM     17  O   UNL     1       3.049   3.138  17.330  0.00  0.00    +0.000 OA
ATOM     18  C   UNL     1       2.321   4.294  17.471  0.00  0.00    +0.000 A 
ATOM     19  O   UNL     1       1.105   4.315  17.353  0.00  0.00    +0.000 OA
BRANCH  15  20
ATOM     20  C   UNL     1       5.664   5.494  18.042  0.00  0.00    +0.000 A 
ATOM     21  C   UNL     1       6.152   6.489  17.191  0.00  0.00    +0.000 A 
ATOM     22  C   UNL     1       7.386   7.094  17.438  0.00  0.00    +0.000 A 
ATOM     23  C   UNL     1       8.113   6.758  18.576  0.00  0.00    +0.000 A 
ATOM     24  C   UNL     1       7.597   5.831  19.477  0.00  0.00    +0.000 A 
ATOM     25  C   UNL     1       6.379   5.199  19.212  0.00  0.00    +0.000 A 
ENDBRANCH  15  20
ENDBRANCH   1  14
TORSDOF 4
ENDMDL
