MODEL 1
REMARK VINA RESULT:     -10.2      0.000      0.000
REMARK  Name = 
REMARK  6 active torsions:
REMARK  status: ('A' for Active; 'I' for Inactive)
REMARK    1  A    between atoms: C_2  and  C_14
REMARK    2  A    between atoms: N_3  and  C_4
REMARK    3  A    between atoms: C_4  and  C_5
REMARK    4  A    between atoms: C_14  and  C_15
REMARK    5  A    between atoms: C_14  and  N_22
REMARK    6  A    between atoms: C_15  and  C_16
REMARK                            x       y       z     vdW  Elec       q    Type
REMARK                         _______ _______ _______ _____ _____    ______ ____
ROOT
ATOM      1  C   UNL     1       5.117   3.836  17.648  0.00  0.00    +0.000 C 
ENDROOT
BRANCH   1   2
ATOM      2  N   UNL     1       4.207   2.761  18.065  0.00  0.00    +0.000 N 
ATOM      3  C   UNL     1       2.894   2.923  17.711  0.00  0.00    +0.000 C 
ATOM      4  O   UNL     1       2.414   3.100  16.606  0.00  0.00    +0.000 OA
ATOM      5  C   UNL     1       2.151   2.982  18.953  0.00  0.00    +0.000 A 
ATOM      6  C   UNL     1       1.043   3.755  19.223  0.00  0.00    +0.000 A 
ATOM      7  C   UNL     1       0.772   4.020  20.564  0.00  0.00    +0.000 A 
ATOM      8  C   UNL     1       1.579   3.480  21.590  0.00  0.00    +0.000 A 
ATOM      9  C   UNL     1       2.705   2.717  21.293  0.00  0.00    +0.000 A 
ATOM     10  C   UNL     1       2.983   2.510  19.951  0.00  0.00    +0.000 A 
ATOM     11  C   UNL     1       4.289   2.264  19.347  0.00  0.00    +0.000 C 
ATOM     12  O   UNL     1       5.249   1.829  19.948  0.00  0.00    +0.000 OA
ENDBRANCH   1   2
BRANCH   1  14
ATOM     13  O   UNL     1       6.159   4.577  19.716  0.00  0.00    +0.000 OA
ATOM     14  C   UNL     1       5.340   4.775  18.822  0.00  0.00    +0.000 C 
ATOM     15  N   UNL     1       4.615   5.935  18.801  0.00  0.00    +0.000 N 
ATOM     16  H   UNL     1       4.802   6.552  19.583  0.00  0.00    +0.000 HD
BRANCH  15  17
ATOM     17  C   UNL     1       3.440   6.154  17.990  0.00  0.00    +0.000 C 
BRANCH  17  18
ATOM     18  C   UNL     1       2.632   7.287  18.514  0.00  0.00    +0.000 A 
ATOM     19  C   UNL     1       2.261   8.342  17.661  0.00  0.00    +0.000 A 
ATOM     20  C   UNL     1       1.485   9.396  18.136  0.00  0.00    +0.000 A 
ATOM     21  C   UNL     1       1.111   9.356  19.463  0.00  0.00    +0.000 A 
ATOM     22  C   UNL     1       1.469   8.323  20.298  0.00  0.00    +0.000 A 
ATOM     23  C   UNL     1       2.222   7.268  19.855  0.00  0.00    +0.000 A 
ATOM     24  O   UNL     1       0.996   8.476  21.561  0.00  0.00    +0.000 OA
ATOM     25  C   UNL     1       0.323   9.741  21.437  0.00  0.00    +0.000 C 
ATOM     26  O   UNL     1       0.361  10.292  20.102  0.00  0.00    +0.000 OA
ENDBRANCH  17  18
ENDBRANCH  15  17
ENDBRANCH   1  14
BRANCH   1  27
ATOM     27  C   UNL     1       4.650   4.557  16.370  0.00  0.00    +0.000 C 
BRANCH  27  28
ATOM     28  C   UNL     1       5.517   4.398  15.136  0.00  0.00    +0.000 A 
ATOM     29  C   UNL     1       5.146   3.656  14.007  0.00  0.00    +0.000 A 
ATOM     30  C   UNL     1       5.962   3.633  12.869  0.00  0.00    +0.000 A 
ATOM     31  C   UNL     1       7.146   4.367  12.844  0.00  0.00    +0.000 A 
ATOM     32  C   UNL     1       7.523   5.112  13.956  0.00  0.00    +0.000 A 
ATOM     33  C   UNL     1       6.715   5.130  15.090  0.00  0.00    +0.000 A 
ENDBRANCH  27  28
ENDBRANCH   1  27
TORSDOF 6
ENDMDL
MODEL 2
REMARK VINA RESULT:      -9.9      2.748      4.361
REMARK  Name = 
REMARK  6 active torsions:
REMARK  status: ('A' for Active; 'I' for Inactive)
REMARK    1  A    between atoms: C_2  and  C_14
REMARK    2  A    between atoms: N_3  and  C_4
REMARK    3  A    between atoms: C_4  and  C_5
REMARK    4  A    between atoms: C_14  and  C_15
REMARK    5  A    between atoms: C_14  and  N_22
REMARK    6  A    between atoms: C_15  and  C_16
REMARK                            x       y       z     vdW  Elec       q    Type
REMARK                         _______ _______ _______ _____ _____    ______ ____
ROOT
ATOM      1  C   UNL     1       2.906   6.676  18.657  0.00  0.00    +0.000 C 
ENDROOT
BRANCH   1   2
ATOM      2  N   UNL     1       2.030   5.556  19.028  0.00  0.00    +0.000 N 
ATOM      3  C   UNL     1       2.369   4.893  20.177  0.00  0.00    +0.000 C 
ATOM      4  O   UNL     1       2.525   5.334  21.301  0.00  0.00    +0.000 OA
ATOM      5  C   UNL     1       2.653   3.528  19.780  0.00  0.00    +0.000 A 
ATOM      6  C   UNL     1       3.613   2.692  20.305  0.00  0.00    +0.000 A 
ATOM      7  C   UNL     1       4.033   1.633  19.504  0.00  0.00    +0.000 A 
ATOM      8  C   UNL     1       3.462   1.414  18.231  0.00  0.00    +0.000 A 
ATOM      9  C   UNL     1       2.506   2.282  17.712  0.00  0.00    +0.000 A 
ATOM     10  C   UNL     1       2.142   3.357  18.507  0.00  0.00    +0.000 A 
ATOM     11  C   UNL     1       1.639   4.654  18.064  0.00  0.00    +0.000 C 
ATOM     12  O   UNL     1       1.109   4.851  16.990  0.00  0.00    +0.000 OA
ENDBRANCH   1   2
BRANCH   1  14
ATOM     13  O   UNL     1       1.960   8.211  17.027  0.00  0.00    +0.000 OA
ATOM     14  C   UNL     1       2.045   7.839  18.194  0.00  0.00    +0.000 C 
ATOM     15  N   UNL     1       1.279   8.433  19.160  0.00  0.00    +0.000 N 
ATOM     16  H   UNL     1       0.698   9.189  18.818  0.00  0.00    +0.000 HD
BRANCH  15  17
ATOM     17  C   UNL     1       1.495   8.291  20.581  0.00  0.00    +0.000 C 
BRANCH  17  18
ATOM     18  C   UNL     1       0.730   9.312  21.344  0.00  0.00    +0.000 A 
ATOM     19  C   UNL     1       0.018   8.942  22.499  0.00  0.00    +0.000 A 
ATOM     20  C   UNL     1      -0.683   9.897  23.233  0.00  0.00    +0.000 A 
ATOM     21  C   UNL     1      -0.650  11.196  22.773  0.00  0.00    +0.000 A 
ATOM     22  C   UNL     1       0.049  11.561  21.646  0.00  0.00    +0.000 A 
ATOM     23  C   UNL     1       0.756  10.646  20.911  0.00  0.00    +0.000 A 
ATOM     24  O   UNL     1      -0.046  12.887  21.370  0.00  0.00    +0.000 OA
ATOM     25  C   UNL     1      -0.911  13.313  22.437  0.00  0.00    +0.000 C 
ATOM     26  O   UNL     1      -1.273  12.256  23.352  0.00  0.00    +0.000 OA
ENDBRANCH  17  18
ENDBRANCH  15  17
ENDBRANCH   1  14
BRANCH   1  27
ATOM     27  C   UNL     1       3.992   6.277  17.641  0.00  0.00    +0.000 C 
BRANCH  27  28
ATOM     28  C   UNL     1       5.428   6.298  18.128  0.00  0.00    +0.000 A 
ATOM     29  C   UNL     1       5.924   5.470  19.143  0.00  0.00    +0.000 A 
ATOM     30  C   UNL     1       7.285   5.483  19.473  0.00  0.00    +0.000 A 
ATOM     31  C   UNL     1       8.164   6.312  18.778  0.00  0.00    +0.000 A 
ATOM     32  C   UNL     1       7.685   7.134  17.765  0.00  0.00    +0.000 A 
ATOM     33  C   UNL     1       6.330   7.126  17.441  0.00  0.00    +0.000 A 
ENDBRANCH  27  28
ENDBRANCH   1  27
TORSDOF 6
ENDMDL
MODEL 3
REMARK VINA RESULT:      -9.9      0.549      1.236
REMARK  Name = 
REMARK  6 active torsions:
REMARK  status: ('A' for Active; 'I' for Inactive)
REMARK    1  A    between atoms: C_2  and  C_14
REMARK    2  A    between atoms: N_3  and  C_4
REMARK    3  A    between atoms: C_4  and  C_5
REMARK    4  A    between atoms: C_14  and  C_15
REMARK    5  A    between atoms: C_14  and  N_22
REMARK    6  A    between atoms: C_15  and  C_16
REMARK                            x       y       z     vdW  Elec       q    Type
REMARK                         _______ _______ _______ _____ _____    ______ ____
ROOT
ATOM      1  C   UNL     1       5.103   3.759  17.613  0.00  0.00    +0.000 C 
ENDROOT
BRANCH   1   2
ATOM      2  N   UNL     1       4.180   2.698  18.039  0.00  0.00    +0.000 N 
ATOM      3  C   UNL     1       2.871   2.870  17.679  0.00  0.00    +0.000 C 
ATOM      4  O   UNL     1       2.395   3.039  16.570  0.00  0.00    +0.000 OA
ATOM      5  C   UNL     1       2.124   2.951  18.918  0.00  0.00    +0.000 A 
ATOM      6  C   UNL     1       1.024   3.738  19.176  0.00  0.00    +0.000 A 
ATOM      7  C   UNL     1       0.750   4.022  20.512  0.00  0.00    +0.000 A 
ATOM      8  C   UNL     1       1.549   3.485  21.547  0.00  0.00    +0.000 A 
ATOM      9  C   UNL     1       2.668   2.707  21.263  0.00  0.00    +0.000 A 
ATOM     10  C   UNL     1       2.948   2.482  19.924  0.00  0.00    +0.000 A 
ATOM     11  C   UNL     1       4.253   2.215  19.327  0.00  0.00    +0.000 C 
ATOM     12  O   UNL     1       5.207   1.777  19.936  0.00  0.00    +0.000 OA
ENDBRANCH   1   2
BRANCH   1  14
ATOM     13  O   UNL     1       6.222   4.465  19.652  0.00  0.00    +0.000 OA
ATOM     14  C   UNL     1       5.373   4.679  18.791  0.00  0.00    +0.000 C 
ATOM     15  N   UNL     1       4.654   5.843  18.814  0.00  0.00    +0.000 N 
ATOM     16  H   UNL     1       4.872   6.447  19.597  0.00  0.00    +0.000 HD
BRANCH  15  17
ATOM     17  C   UNL     1       3.452   6.079  18.049  0.00  0.00    +0.000 C 
BRANCH  17  18
ATOM     18  C   UNL     1       2.627   7.152  18.665  0.00  0.00    +0.000 A 
ATOM     19  C   UNL     1       2.231   7.050  20.011  0.00  0.00    +0.000 A 
ATOM     20  C   UNL     1       1.478   8.061  20.604  0.00  0.00    +0.000 A 
ATOM     21  C   UNL     1       1.140   9.142  19.817  0.00  0.00    +0.000 A 
ATOM     22  C   UNL     1       1.530   9.245  18.502  0.00  0.00    +0.000 A 
ATOM     23  C   UNL     1       2.280   8.272  17.896  0.00  0.00    +0.000 A 
ATOM     24  O   UNL     1       1.097  10.387  17.910  0.00  0.00    +0.000 OA
ATOM     25  C   UNL     1       0.361  10.980  18.994  0.00  0.00    +0.000 C 
ATOM     26  O   UNL     1       0.410  10.216  20.219  0.00  0.00    +0.000 OA
ENDBRANCH  17  18
ENDBRANCH  15  17
ENDBRANCH   1  14
BRANCH   1  27
ATOM     27  C   UNL     1       4.622   4.504  16.354  0.00  0.00    +0.000 C 
BRANCH  27  28
ATOM     28  C   UNL     1       5.477   4.373  15.110  0.00  0.00    +0.000 A 
ATOM     29  C   UNL     1       5.075   3.699  13.948  0.00  0.00    +0.000 A 
ATOM     30  C   UNL     1       5.885   3.702  12.806  0.00  0.00    +0.000 A 
ATOM     31  C   UNL     1       7.096   4.392  12.809  0.00  0.00    +0.000 A 
ATOM     32  C   UNL     1       7.503   5.069  13.954  0.00  0.00    +0.000 A 
ATOM     33  C   UNL     1       6.701   5.061  15.092  0.00  0.00    +0.000 A 
ENDBRANCH  27  28
ENDBRANCH   1  27
TORSDOF 6
ENDMDL
MODEL 4
REMARK VINA RESULT:      -9.9      3.595      9.328
REMARK  Name = 
REMARK  6 active torsions:
REMARK  status: ('A' for Active; 'I' for Inactive)
REMARK    1  A    between atoms: C_2  and  C_14
REMARK    2  A    between atoms: N_3  and  C_4
REMARK    3  A    between atoms: C_4  and  C_5
REMARK    4  A    between atoms: C_14  and  C_15
REMARK    5  A    between atoms: C_14  and  N_22
REMARK    6  A    between atoms: C_15  and  C_16
REMARK                            x       y       z     vdW  Elec       q    Type
REMARK                         _______ _______ _______ _____ _____    ______ ____
ROOT
ATOM      1  C   UNL     1       0.535  11.640  19.168  0.00  0.00    +0.000 C 
ENDROOT
BRANCH   1   2
ATOM      2  N   UNL     1       0.815  11.993  20.567  0.00  0.00    +0.000 N 
ATOM      3  C   UNL     1       0.380  11.095  21.504  0.00  0.00    +0.000 C 
ATOM      4  O   UNL     1       0.627   9.907  21.602  0.00  0.00    +0.000 OA
ATOM      5  C   UNL     1      -0.578  11.809  22.325  0.00  0.00    +0.000 A 
ATOM      6  C   UNL     1      -1.728  11.304  22.890  0.00  0.00    +0.000 A 
ATOM      7  C   UNL     1      -2.719  12.223  23.229  0.00  0.00    +0.000 A 
ATOM      8  C   UNL     1      -2.523  13.608  23.035  0.00  0.00    +0.000 A 
ATOM      9  C   UNL     1      -1.360  14.095  22.445  0.00  0.00    +0.000 A 
ATOM     10  C   UNL     1      -0.411  13.157  22.069  0.00  0.00    +0.000 A 
ATOM     11  C   UNL     1       0.576  13.278  21.000  0.00  0.00    +0.000 C 
ATOM     12  O   UNL     1       0.965  14.333  20.545  0.00  0.00    +0.000 OA
ENDBRANCH   1   2
BRANCH   1  14
ATOM     13  O   UNL     1       2.501  12.685  18.193  0.00  0.00    +0.000 OA
ATOM     14  C   UNL     1       1.836  11.671  18.384  0.00  0.00    +0.000 C 
ATOM     15  N   UNL     1       2.295  10.458  17.946  0.00  0.00    +0.000 N 
ATOM     16  H   UNL     1       3.176  10.506  17.447  0.00  0.00    +0.000 HD
BRANCH  15  17
ATOM     17  C   UNL     1       1.491   9.262  17.850  0.00  0.00    +0.000 C 
BRANCH  17  18
ATOM     18  C   UNL     1       2.252   8.068  18.302  0.00  0.00    +0.000 A 
ATOM     19  C   UNL     1       1.954   7.469  19.539  0.00  0.00    +0.000 A 
ATOM     20  C   UNL     1       2.646   6.336  19.961  0.00  0.00    +0.000 A 
ATOM     21  C   UNL     1       3.625   5.845  19.122  0.00  0.00    +0.000 A 
ATOM     22  C   UNL     1       3.914   6.427  17.909  0.00  0.00    +0.000 A 
ATOM     23  C   UNL     1       3.243   7.534  17.464  0.00  0.00    +0.000 A 
ATOM     24  O   UNL     1       4.906   5.786  17.239  0.00  0.00    +0.000 OA
ATOM     25  C   UNL     1       5.231   4.750  18.182  0.00  0.00    +0.000 C 
ATOM     26  O   UNL     1       4.402   4.757  19.365  0.00  0.00    +0.000 OA
ENDBRANCH  17  18
ENDBRANCH  15  17
ENDBRANCH   1  14
BRANCH   1  27
ATOM     27  C   UNL     1      -0.576  12.501  18.542  0.00  0.00    +0.000 C 
BRANCH  27  28
ATOM     28  C   UNL     1      -1.953  11.875  18.436  0.00  0.00    +0.000 A 
ATOM     29  C   UNL     1      -3.046  12.245  19.231  0.00  0.00    +0.000 A 
ATOM     30  C   UNL     1      -4.310  11.685  19.010  0.00  0.00    +0.000 A 
ATOM     31  C   UNL     1      -4.496  10.764  17.980  0.00  0.00    +0.000 A 
ATOM     32  C   UNL     1      -3.421  10.394  17.181  0.00  0.00    +0.000 A 
ATOM     33  C   UNL     1      -2.162  10.945  17.404  0.00  0.00    +0.000 A 
ENDBRANCH  27  28
ENDBRANCH   1  27
TORSDOF 6
ENDMDL
MODEL 5
REMARK VINA RESULT:      -9.8      2.062      6.759
REMARK  Name = 
REMARK  6 active torsions:
REMARK  status: ('A' for Active; 'I' for Inactive)
REMARK    1  A    between atoms: C_2  and  C_14
REMARK    2  A    between atoms: N_3  and  C_4
REMARK    3  A    between atoms: C_4  and  C_5
REMARK    4  A    between atoms: C_14  and  C_15
REMARK    5  A    between atoms: C_14  and  N_22
REMARK    6  A    between atoms: C_15  and  C_16
REMARK                            x       y       z     vdW  Elec       q    Type
REMARK                         _______ _______ _______ _____ _____    ______ ____
ROOT
ATOM      1  C   UNL     1       4.266   5.525  18.083  0.00  0.00    +0.000 C 
ENDROOT
BRANCH   1   2
ATOM      2  N   UNL     1       4.023   4.078  18.149  0.00  0.00    +0.000 N 
ATOM      3  C   UNL     1       2.768   3.669  17.785  0.00  0.00    +0.000 C 
ATOM      4  O   UNL     1       2.166   3.870  16.746  0.00  0.00    +0.000 OA
ATOM      5  C   UNL     1       2.200   3.035  18.958  0.00  0.00    +0.000 A 
ATOM      6  C   UNL     1       0.886   3.074  19.370  0.00  0.00    +0.000 A 
ATOM      7  C   UNL     1       0.640   2.816  20.717  0.00  0.00    +0.000 A 
ATOM      8  C   UNL     1       1.695   2.490  21.599  0.00  0.00    +0.000 A 
ATOM      9  C   UNL     1       3.017   2.475  21.166  0.00  0.00    +0.000 A 
ATOM     10  C   UNL     1       3.241   2.786  19.834  0.00  0.00    +0.000 A 
ATOM     11  C   UNL     1       4.446   3.370  19.252  0.00  0.00    +0.000 C 
ATOM     12  O   UNL     1       5.546   3.316  19.762  0.00  0.00    +0.000 OA
ENDBRANCH   1   2
BRANCH   1  14
ATOM     13  O   UNL     1       6.568   6.073  18.637  0.00  0.00    +0.000 OA
ATOM     14  C   UNL     1       5.737   5.764  17.788  0.00  0.00    +0.000 C 
ATOM     15  N   UNL     1       6.128   5.536  16.497  0.00  0.00    +0.000 N 
ATOM     16  H   UNL     1       7.118   5.679  16.334  0.00  0.00    +0.000 HD
BRANCH  15  17
ATOM     17  C   UNL     1       5.229   5.454  15.369  0.00  0.00    +0.000 C 
BRANCH  17  18
ATOM     18  C   UNL     1       5.877   4.776  14.216  0.00  0.00    +0.000 A 
ATOM     19  C   UNL     1       7.147   5.192  13.775  0.00  0.00    +0.000 A 
ATOM     20  C   UNL     1       7.772   4.548  12.710  0.00  0.00    +0.000 A 
ATOM     21  C   UNL     1       7.092   3.506  12.116  0.00  0.00    +0.000 A 
ATOM     22  C   UNL     1       5.852   3.094  12.548  0.00  0.00    +0.000 A 
ATOM     23  C   UNL     1       5.219   3.702  13.600  0.00  0.00    +0.000 A 
ATOM     24  O   UNL     1       5.362   2.052  11.830  0.00  0.00    +0.000 OA
ATOM     25  C   UNL     1       6.422   1.871  10.875  0.00  0.00    +0.000 C 
ATOM     26  O   UNL     1       7.539   2.765  11.068  0.00  0.00    +0.000 OA
ENDBRANCH  17  18
ENDBRANCH  15  17
ENDBRANCH   1  14
BRANCH   1  27
ATOM     27  C   UNL     1       3.763   6.275  19.330  0.00  0.00    +0.000 C 
BRANCH  27  28
ATOM     28  C   UNL     1       2.749   7.379  19.105  0.00  0.00    +0.000 A 
ATOM     29  C   UNL     1       1.887   7.867  20.097  0.00  0.00    +0.000 A 
ATOM     30  C   UNL     1       1.042   8.953  19.836  0.00  0.00    +0.000 A 
ATOM     31  C   UNL     1       1.065   9.572  18.588  0.00  0.00    +0.000 A 
ATOM     32  C   UNL     1       1.920   9.101  17.597  0.00  0.00    +0.000 A 
ATOM     33  C   UNL     1       2.755   8.017  17.854  0.00  0.00    +0.000 A 
ENDBRANCH  27  28
ENDBRANCH   1  27
TORSDOF 6
ENDMDL
MODEL 6
REMARK VINA RESULT:      -9.8      3.363      8.978
REMARK  Name = 
REMARK  6 active torsions:
REMARK  status: ('A' for Active; 'I' for Inactive)
REMARK    1  A    between atoms: C_2  and  C_14
REMARK    2  A    between atoms: N_3  and  C_4
REMARK    3  A    between atoms: C_4  and  C_5
REMARK    4  A    between atoms: C_14  and  C_15
REMARK    5  A    between atoms: C_14  and  N_22
REMARK    6  A    between atoms: C_15  and  C_16
REMARK                            x       y       z     vdW  Elec       q    Type
REMARK                         _______ _______ _______ _____ _____    ______ ____
ROOT
ATOM      1  C   UNL     1       0.711  11.170  19.064  0.00  0.00    +0.000 C 
ENDROOT
BRANCH   1   2
ATOM      2  N   UNL     1       1.024  11.529  20.454  0.00  0.00    +0.000 N 
ATOM      3  C   UNL     1       0.507  10.701  21.413  0.00  0.00    +0.000 C 
ATOM      4  O   UNL     1       0.641   9.497  21.541  0.00  0.00    +0.000 OA
ATOM      5  C   UNL     1      -0.377  11.523  22.214  0.00  0.00    +0.000 A 
ATOM      6  C   UNL     1      -1.569  11.144  22.790  0.00  0.00    +0.000 A 
ATOM      7  C   UNL     1      -2.468  12.161  23.106  0.00  0.00    +0.000 A 
ATOM      8  C   UNL     1      -2.141  13.516  22.877  0.00  0.00    +0.000 A 
ATOM      9  C   UNL     1      -0.938  13.875  22.277  0.00  0.00    +0.000 A 
ATOM     10  C   UNL     1      -0.083  12.843  21.926  0.00  0.00    +0.000 A 
ATOM     11  C   UNL     1       0.910  12.842  20.855  0.00  0.00    +0.000 C 
ATOM     12  O   UNL     1       1.397  13.844  20.375  0.00  0.00    +0.000 OA
ENDBRANCH   1   2
BRANCH   1  14
ATOM     13  O   UNL     1       2.622  12.066  17.858  0.00  0.00    +0.000 OA
ATOM     14  C   UNL     1       2.006  11.088  18.273  0.00  0.00    +0.000 C 
ATOM     15  N   UNL     1       2.519   9.832  18.102  0.00  0.00    +0.000 N 
ATOM     16  H   UNL     1       3.395   9.810  17.592  0.00  0.00    +0.000 HD
BRANCH  15  17
ATOM     17  C   UNL     1       1.772   8.608  18.279  0.00  0.00    +0.000 C 
BRANCH  17  18
ATOM     18  C   UNL     1       2.673   7.426  18.282  0.00  0.00    +0.000 A 
ATOM     19  C   UNL     1       3.748   7.357  17.378  0.00  0.00    +0.000 A 
ATOM     20  C   UNL     1       4.611   6.264  17.388  0.00  0.00    +0.000 A 
ATOM     21  C   UNL     1       4.358   5.268  18.308  0.00  0.00    +0.000 A 
ATOM     22  C   UNL     1       3.309   5.335  19.196  0.00  0.00    +0.000 A 
ATOM     23  C   UNL     1       2.451   6.403  19.216  0.00  0.00    +0.000 A 
ATOM     24  O   UNL     1       3.240   4.255  20.015  0.00  0.00    +0.000 OA
ATOM     25  C   UNL     1       4.349   3.483  19.522  0.00  0.00    +0.000 C 
ATOM     26  O   UNL     1       5.085   4.130  18.462  0.00  0.00    +0.000 OA
ENDBRANCH  17  18
ENDBRANCH  15  17
ENDBRANCH   1  14
BRANCH   1  27
ATOM     27  C   UNL     1      -0.338  12.099  18.426  0.00  0.00    +0.000 C 
BRANCH  27  28
ATOM     28  C   UNL     1      -1.705  11.505  18.151  0.00  0.00    +0.000 A 
ATOM     29  C   UNL     1      -1.920  10.348  17.388  0.00  0.00    +0.000 A 
ATOM     30  C   UNL     1      -3.205   9.809  17.258  0.00  0.00    +0.000 A 
ATOM     31  C   UNL     1      -4.284  10.410  17.903  0.00  0.00    +0.000 A 
ATOM     32  C   UNL     1      -4.083  11.554  18.667  0.00  0.00    +0.000 A 
ATOM     33  C   UNL     1      -2.806  12.095  18.792  0.00  0.00    +0.000 A 
ENDBRANCH  27  28
ENDBRANCH   1  27
TORSDOF 6
ENDMDL
MODEL 7
REMARK VINA RESULT:      -9.7      3.359      9.055
REMARK  Name = 
REMARK  6 active torsions:
REMARK  status: ('A' for Active; 'I' for Inactive)
REMARK    1  A    between atoms: C_2  and  C_14
REMARK    2  A    between atoms: N_3  and  C_4
REMARK    3  A    between atoms: C_4  and  C_5
REMARK    4  A    between atoms: C_14  and  C_15
REMARK    5  A    between atoms: C_14  and  N_22
REMARK    6  A    between atoms: C_15  and  C_16
REMARK                            x       y       z     vdW  Elec       q    Type
REMARK                         _______ _______ _______ _____ _____    ______ ____
ROOT
ATOM      1  C   UNL     1       0.730  11.041  19.052  0.00  0.00    +0.000 C 
ENDROOT
BRANCH   1   2
ATOM      2  N   UNL     1       1.053  11.404  20.439  0.00  0.00    +0.000 N 
ATOM      3  C   UNL     1       0.510  10.601  21.405  0.00  0.00    +0.000 C 
ATOM      4  O   UNL     1       0.607   9.396  21.545  0.00  0.00    +0.000 OA
ATOM      5  C   UNL     1      -0.350  11.457  22.197  0.00  0.00    +0.000 A 
ATOM      6  C   UNL     1      -1.554  11.120  22.775  0.00  0.00    +0.000 A 
ATOM      7  C   UNL     1      -2.423  12.166  23.078  0.00  0.00    +0.000 A 
ATOM      8  C   UNL     1      -2.055  13.509  22.837  0.00  0.00    +0.000 A 
ATOM      9  C   UNL     1      -0.841  13.826  22.235  0.00  0.00    +0.000 A 
ATOM     10  C   UNL     1      -0.017  12.765  21.896  0.00  0.00    +0.000 A 
ATOM     11  C   UNL     1       0.977  12.724  20.827  0.00  0.00    +0.000 C 
ATOM     12  O   UNL     1       1.494  13.706  20.337  0.00  0.00    +0.000 OA
ENDBRANCH   1   2
BRANCH   1  14
ATOM     13  O   UNL     1       2.655  11.874  17.823  0.00  0.00    +0.000 OA
ATOM     14  C   UNL     1       2.023  10.918  18.263  0.00  0.00    +0.000 C 
ATOM     15  N   UNL     1       2.514   9.648  18.121  0.00  0.00    +0.000 N 
ATOM     16  H   UNL     1       3.389   9.599  17.612  0.00  0.00    +0.000 HD
BRANCH  15  17
ATOM     17  C   UNL     1       1.746   8.443  18.328  0.00  0.00    +0.000 C 
BRANCH  17  18
ATOM     18  C   UNL     1       2.549   7.234  18.007  0.00  0.00    +0.000 A 
ATOM     19  C   UNL     1       2.005   5.952  18.209  0.00  0.00    +0.000 A 
ATOM     20  C   UNL     1       2.741   4.814  17.889  0.00  0.00    +0.000 A 
ATOM     21  C   UNL     1       4.009   5.004  17.381  0.00  0.00    +0.000 A 
ATOM     22  C   UNL     1       4.541   6.257  17.179  0.00  0.00    +0.000 A 
ATOM     23  C   UNL     1       3.836   7.393  17.473  0.00  0.00    +0.000 A 
ATOM     24  O   UNL     1       5.798   6.221  16.668  0.00  0.00    +0.000 OA
ATOM     25  C   UNL     1       6.012   4.800  16.600  0.00  0.00    +0.000 C 
ATOM     26  O   UNL     1       4.871   4.018  17.017  0.00  0.00    +0.000 OA
ENDBRANCH  17  18
ENDBRANCH  15  17
ENDBRANCH   1  14
BRANCH   1  27
ATOM     27  C   UNL     1      -0.293  11.991  18.404  0.00  0.00    +0.000 C 
BRANCH  27  28
ATOM     28  C   UNL     1      -1.678  11.433  18.141  0.00  0.00    +0.000 A 
ATOM     29  C   UNL     1      -1.928  10.277  17.389  0.00  0.00    +0.000 A 
ATOM     30  C   UNL     1      -3.229   9.773  17.269  0.00  0.00    +0.000 A 
ATOM     31  C   UNL     1      -4.287  10.409  17.914  0.00  0.00    +0.000 A 
ATOM     32  C   UNL     1      -4.051  11.554  18.668  0.00  0.00    +0.000 A 
ATOM     33  C   UNL     1      -2.759  12.060  18.782  0.00  0.00    +0.000 A 
ENDBRANCH  27  28
ENDBRANCH   1  27
TORSDOF 6
ENDMDL
MODEL 8
REMARK VINA RESULT:      -9.6      3.115      8.924
REMARK  Name = 
REMARK  6 active torsions:
REMARK  status: ('A' for Active; 'I' for Inactive)
REMARK    1  A    between atoms: C_2  and  C_14
REMARK    2  A    between atoms: N_3  and  C_4
REMARK    3  A    between atoms: C_4  and  C_5
REMARK    4  A    between atoms: C_14  and  C_15
REMARK    5  A    between atoms: C_14  and  N_22
REMARK    6  A    between atoms: C_15  and  C_16
REMARK                            x       y       z     vdW  Elec       q    Type
REMARK                         _______ _______ _______ _____ _____    ______ ____
ROOT
ATOM      1  C   UNL     1       0.498   9.864  19.097  0.00  0.00    +0.000 C 
ENDROOT
BRANCH   1   2
ATOM      2  N   UNL     1       0.898  10.440  20.388  0.00  0.00    +0.000 N 
ATOM      3  C   UNL     1       0.113  10.103  21.457  0.00  0.00    +0.000 C 
ATOM      4  O   UNL     1      -0.181   8.998  21.876  0.00  0.00    +0.000 OA
ATOM      5  C   UNL     1      -0.443  11.347  21.951  0.00  0.00    +0.000 A 
ATOM      6  C   UNL     1      -1.700  11.545  22.477  0.00  0.00    +0.000 A 
ATOM      7  C   UNL     1      -2.195  12.847  22.453  0.00  0.00    +0.000 A 
ATOM      8  C   UNL     1      -1.416  13.912  21.948  0.00  0.00    +0.000 A 
ATOM      9  C   UNL     1      -0.155  13.686  21.404  0.00  0.00    +0.000 A 
ATOM     10  C   UNL     1       0.294  12.375  21.393  0.00  0.00    +0.000 A 
ATOM     11  C   UNL     1       1.240  11.772  20.457  0.00  0.00    +0.000 C 
ATOM     12  O   UNL     1       2.050  12.399  19.807  0.00  0.00    +0.000 OA
ENDBRANCH   1   2
BRANCH   1  14
ATOM     13  O   UNL     1       2.244   9.733  17.411  0.00  0.00    +0.000 OA
ATOM     14  C   UNL     1       1.724   9.271  18.422  0.00  0.00    +0.000 C 
ATOM     15  N   UNL     1       2.293   8.202  19.058  0.00  0.00    +0.000 N 
ATOM     16  H   UNL     1       3.122   7.842  18.600  0.00  0.00    +0.000 HD
BRANCH  15  17
ATOM     17  C   UNL     1       1.636   7.400  20.064  0.00  0.00    +0.000 C 
BRANCH  17  18
ATOM     18  C   UNL     1       1.879   5.951  19.837  0.00  0.00    +0.000 A 
ATOM     19  C   UNL     1       1.248   4.994  20.652  0.00  0.00    +0.000 A 
ATOM     20  C   UNL     1       1.452   3.633  20.431  0.00  0.00    +0.000 A 
ATOM     21  C   UNL     1       2.294   3.280  19.398  0.00  0.00    +0.000 A 
ATOM     22  C   UNL     1       2.908   4.214  18.597  0.00  0.00    +0.000 A 
ATOM     23  C   UNL     1       2.717   5.558  18.783  0.00  0.00    +0.000 A 
ATOM     24  O   UNL     1       3.690   3.656  17.638  0.00  0.00    +0.000 OA
ATOM     25  C   UNL     1       3.523   2.261  17.945  0.00  0.00    +0.000 C 
ATOM     26  O   UNL     1       2.613   2.009  19.037  0.00  0.00    +0.000 OA
ENDBRANCH  17  18
ENDBRANCH  15  17
ENDBRANCH   1  14
BRANCH   1  27
ATOM     27  C   UNL     1      -0.268  10.859  18.207  0.00  0.00    +0.000 C 
BRANCH  27  28
ATOM     28  C   UNL     1      -1.780  10.859  18.319  0.00  0.00    +0.000 A 
ATOM     29  C   UNL     1      -2.521  11.877  18.935  0.00  0.00    +0.000 A 
ATOM     30  C   UNL     1      -3.920  11.850  18.917  0.00  0.00    +0.000 A 
ATOM     31  C   UNL     1      -4.591  10.815  18.268  0.00  0.00    +0.000 A 
ATOM     32  C   UNL     1      -3.867   9.802  17.649  0.00  0.00    +0.000 A 
ATOM     33  C   UNL     1      -2.475   9.825  17.672  0.00  0.00    +0.000 A 
ENDBRANCH  27  28
ENDBRANCH   1  27
TORSDOF 6
ENDMDL
MODEL 9
REMARK VINA RESULT:      -9.6      3.712      9.404
REMARK  Name = 
REMARK  6 active torsions:
REMARK  status: ('A' for Active; 'I' for Inactive)
REMARK    1  A    between atoms: C_2  and  C_14
REMARK    2  A    between atoms: N_3  and  C_4
REMARK    3  A    between atoms: C_4  and  C_5
REMARK    4  A    between atoms: C_14  and  C_15
REMARK    5  A    between atoms: C_14  and  N_22
REMARK    6  A    between atoms: C_15  and  C_16
REMARK                            x       y       z     vdW  Elec       q    Type
REMARK                         _______ _______ _______ _____ _____    ______ ____
ROOT
ATOM      1  C   UNL     1       0.446  11.742  19.222  0.00  0.00    +0.000 C 
ENDROOT
BRANCH   1   2
ATOM      2  N   UNL     1       0.689  12.243  20.581  0.00  0.00    +0.000 N 
ATOM      3  C   UNL     1       0.385  11.377  21.597  0.00  0.00    +0.000 C 
ATOM      4  O   UNL     1       0.788  10.244  21.786  0.00  0.00    +0.000 OA
ATOM      5  C   UNL     1      -0.651  12.025  22.376  0.00  0.00    +0.000 A 
ATOM      6  C   UNL     1      -1.719  11.423  23.003  0.00  0.00    +0.000 A 
ATOM      7  C   UNL     1      -2.819  12.229  23.286  0.00  0.00    +0.000 A 
ATOM      8  C   UNL     1      -2.810  13.607  22.977  0.00  0.00    +0.000 A 
ATOM      9  C   UNL     1      -1.728  14.191  22.326  0.00  0.00    +0.000 A 
ATOM     10  C   UNL     1      -0.666  13.358  22.009  0.00  0.00    +0.000 A 
ATOM     11  C   UNL     1       0.287  13.518  20.914  0.00  0.00    +0.000 C 
ATOM     12  O   UNL     1       0.528  14.573  20.367  0.00  0.00    +0.000 OA
ENDBRANCH   1   2
BRANCH   1  14
ATOM     13  O   UNL     1       2.408  12.651  18.112  0.00  0.00    +0.000 OA
ATOM     14  C   UNL     1       1.770  11.669  18.480  0.00  0.00    +0.000 C 
ATOM     15  N   UNL     1       2.281  10.413  18.298  0.00  0.00    +0.000 N 
ATOM     16  H   UNL     1       3.175  10.396  17.823  0.00  0.00    +0.000 HD
BRANCH  15  17
ATOM     17  C   UNL     1       1.518   9.191  18.417  0.00  0.00    +0.000 C 
BRANCH  17  18
ATOM     18  C   UNL     1       2.406   8.000  18.376  0.00  0.00    +0.000 A 
ATOM     19  C   UNL     1       3.402   7.897  17.388  0.00  0.00    +0.000 A 
ATOM     20  C   UNL     1       4.254   6.795  17.355  0.00  0.00    +0.000 A 
ATOM     21  C   UNL     1       4.069   5.825  18.318  0.00  0.00    +0.000 A 
ATOM     22  C   UNL     1       3.098   5.926  19.288  0.00  0.00    +0.000 A 
ATOM     23  C   UNL     1       2.254   7.003  19.351  0.00  0.00    +0.000 A 
ATOM     24  O   UNL     1       3.088   4.868  20.138  0.00  0.00    +0.000 OA
ATOM     25  C   UNL     1       4.146   4.071  19.576  0.00  0.00    +0.000 C 
ATOM     26  O   UNL     1       4.797   4.684  18.442  0.00  0.00    +0.000 OA
ENDBRANCH  17  18
ENDBRANCH  15  17
ENDBRANCH   1  14
BRANCH   1  27
ATOM     27  C   UNL     1      -0.633  12.543  18.470  0.00  0.00    +0.000 C 
BRANCH  27  28
ATOM     28  C   UNL     1      -2.025  11.945  18.422  0.00  0.00    +0.000 A 
ATOM     29  C   UNL     1      -3.062  12.301  19.296  0.00  0.00    +0.000 A 
ATOM     30  C   UNL     1      -4.347  11.771  19.129  0.00  0.00    +0.000 A 
ATOM     31  C   UNL     1      -4.612  10.897  18.077  0.00  0.00    +0.000 A 
ATOM     32  C   UNL     1      -3.592  10.541  17.200  0.00  0.00    +0.000 A 
ATOM     33  C   UNL     1      -2.312  11.061  17.369  0.00  0.00    +0.000 A 
ENDBRANCH  27  28
ENDBRANCH   1  27
TORSDOF 6
ENDMDL
