MODEL 1
REMARK VINA RESULT:     -10.4      0.000      0.000
REMARK  Name = 
REMARK  4 active torsions:
REMARK  status: ('A' for Active; 'I' for Inactive)
REMARK    1  A    between atoms: C_2  and  C_25
REMARK    2  A    between atoms: N_3  and  C_4
REMARK    3  A    between atoms: C_4  and  C_5
REMARK    4  A    between atoms: C_8  and  C_9
REMARK                            x       y       z     vdW  Elec       q    Type
REMARK                         _______ _______ _______ _____ _____    ______ ____
ROOT
ATOM      1  C   UNL     1       3.480   4.943  19.461  0.00  0.00    +0.000 A 
ATOM      2  N   UNL     1       4.666   5.101  20.070  0.00  0.00    +0.000 NA
ATOM      3  O   UNL     1       5.571   5.137  19.015  0.00  0.00    +0.000 OA
ATOM      4  C   UNL     1       4.850   4.954  17.869  0.00  0.00    +0.000 A 
ATOM      5  N   UNL     1       3.563   4.805  18.091  0.00  0.00    +0.000 NA
ENDROOT
BRANCH   4   6
ATOM      6  C   UNL     1       5.592   4.948  16.623  0.00  0.00    +0.000 A 
ATOM      7  C   UNL     1       6.740   5.704  16.448  0.00  0.00    +0.000 A 
ATOM      8  N   UNL     1       7.468   5.737  15.308  0.00  0.00    +0.000 NA
ATOM      9  C   UNL     1       7.053   5.003  14.256  0.00  0.00    +0.000 A 
ATOM     10  C   UNL     1       7.755   5.008  13.051  0.00  0.00    +0.000 A 
ATOM     11  F   UNL     1       8.872   5.745  12.933  0.00  0.00    +0.000 F 
ATOM     12  C   UNL     1       7.341   4.275  11.939  0.00  0.00    +0.000 A 
ATOM     13  C   UNL     1       6.190   3.501  12.016  0.00  0.00    +0.000 A 
ATOM     14  C   UNL     1       5.468   3.460  13.207  0.00  0.00    +0.000 A 
ATOM     15  C   UNL     1       5.890   4.203  14.326  0.00  0.00    +0.000 A 
ATOM     16  C   UNL     1       5.172   4.181  15.534  0.00  0.00    +0.000 A 
ENDBRANCH   4   6
BRANCH   1  17
ATOM     17  C   UNL     1       2.175   4.784  20.228  0.00  0.00    +0.000 C 
ATOM     18  C   UNL     1       1.110   4.058  19.377  0.00  0.00    +0.000 C 
ATOM     19  C   UNL     1       1.443   2.568  19.505  0.00  0.00    +0.000 C 
ATOM     20  C   UNL     1       2.278   2.415  20.775  0.00  0.00    +0.000 C 
ATOM     21  C   UNL     1       2.339   3.803  21.408  0.00  0.00    +0.000 C 
BRANCH  17  24
ATOM     22  O   UNL     1       2.228   7.266  18.694  0.00  0.00    +0.000 OA
ATOM     23  C   UNL     1       1.825   7.260  19.849  0.00  0.00    +0.000 C 
ATOM     24  N   UNL     1       1.784   6.140  20.649  0.00  0.00    +0.000 N 
ATOM     25  H   UNL     1       1.303   6.211  21.536  0.00  0.00    +0.000 HD
BRANCH  23  26
ATOM     26  C   UNL     1       1.300   8.521  20.444  0.00  0.00    +0.000 A 
ATOM     27  C   UNL     1       1.093   8.563  21.830  0.00  0.00    +0.000 A 
ATOM     28  C   UNL     1       0.558   9.707  22.429  0.00  0.00    +0.000 A 
ATOM     29  C   UNL     1       0.225  10.810  21.645  0.00  0.00    +0.000 A 
ATOM     30  C   UNL     1       0.426  10.774  20.266  0.00  0.00    +0.000 A 
ATOM     31  C   UNL     1       0.964   9.633  19.662  0.00  0.00    +0.000 A 
ENDBRANCH  23  26
ENDBRANCH  17  24
ENDBRANCH   1  17
TORSDOF 4
ENDMDL
MODEL 2
REMARK VINA RESULT:     -10.1      4.853      7.332
REMARK  Name = 
REMARK  4 active torsions:
REMARK  status: ('A' for Active; 'I' for Inactive)
REMARK    1  A    between atoms: C_2  and  C_25
REMARK    2  A    between atoms: N_3  and  C_4
REMARK    3  A    between atoms: C_4  and  C_5
REMARK    4  A    between atoms: C_8  and  C_9
REMARK                            x       y       z     vdW  Elec       q    Type
REMARK                         _______ _______ _______ _____ _____    ______ ____
ROOT
ATOM      1  C   UNL     1       6.830   6.429  17.676  0.00  0.00    +0.000 A 
ATOM      2  N   UNL     1       7.791   6.066  18.541  0.00  0.00    +0.000 NA
ATOM      3  O   UNL     1       8.450   7.260  18.814  0.00  0.00    +0.000 OA
ATOM      4  C   UNL     1       7.851   8.225  18.055  0.00  0.00    +0.000 A 
ATOM      5  N   UNL     1       6.866   7.761  17.319  0.00  0.00    +0.000 NA
ENDROOT
BRANCH   4   6
ATOM      6  C   UNL     1       8.380   9.570  18.169  0.00  0.00    +0.000 A 
ATOM      7  C   UNL     1       7.859  10.628  17.441  0.00  0.00    +0.000 A 
ATOM      8  N   UNL     1       8.315  11.900  17.507  0.00  0.00    +0.000 NA
ATOM      9  C   UNL     1       9.357  12.171  18.320  0.00  0.00    +0.000 A 
ATOM     10  C   UNL     1       9.878  13.461  18.419  0.00  0.00    +0.000 A 
ATOM     11  F   UNL     1       9.331  14.459  17.704  0.00  0.00    +0.000 F 
ATOM     12  C   UNL     1      10.966  13.768  19.235  0.00  0.00    +0.000 A 
ATOM     13  C   UNL     1      11.565  12.767  19.990  0.00  0.00    +0.000 A 
ATOM     14  C   UNL     1      11.064  11.468  19.927  0.00  0.00    +0.000 A 
ATOM     15  C   UNL     1       9.966  11.163  19.100  0.00  0.00    +0.000 A 
ATOM     16  C   UNL     1       9.452   9.858  19.018  0.00  0.00    +0.000 A 
ENDBRANCH   4   6
BRANCH   1  17
ATOM     17  C   UNL     1       5.878   5.428  17.036  0.00  0.00    +0.000 C 
ATOM     18  C   UNL     1       5.244   6.003  15.751  0.00  0.00    +0.000 C 
ATOM     19  C   UNL     1       6.298   5.799  14.658  0.00  0.00    +0.000 C 
ATOM     20  C   UNL     1       7.227   4.690  15.150  0.00  0.00    +0.000 C 
ATOM     21  C   UNL     1       6.644   4.211  16.477  0.00  0.00    +0.000 C 
BRANCH  17  24
ATOM     22  O   UNL     1       3.571   3.649  16.858  0.00  0.00    +0.000 OA
ATOM     23  C   UNL     1       3.845   4.205  17.913  0.00  0.00    +0.000 C 
ATOM     24  N   UNL     1       4.901   5.073  18.080  0.00  0.00    +0.000 N 
ATOM     25  H   UNL     1       5.127   5.367  19.020  0.00  0.00    +0.000 HD
BRANCH  23  26
ATOM     26  C   UNL     1       3.027   3.915  19.124  0.00  0.00    +0.000 A 
ATOM     27  C   UNL     1       3.545   3.023  20.075  0.00  0.00    +0.000 A 
ATOM     28  C   UNL     1       2.795   2.683  21.204  0.00  0.00    +0.000 A 
ATOM     29  C   UNL     1       1.526   3.228  21.385  0.00  0.00    +0.000 A 
ATOM     30  C   UNL     1       1.004   4.113  20.443  0.00  0.00    +0.000 A 
ATOM     31  C   UNL     1       1.751   4.459  19.312  0.00  0.00    +0.000 A 
ENDBRANCH  23  26
ENDBRANCH  17  24
ENDBRANCH   1  17
TORSDOF 4
ENDMDL
MODEL 3
REMARK VINA RESULT:      -9.8      3.272      9.133
REMARK  Name = 
REMARK  4 active torsions:
REMARK  status: ('A' for Active; 'I' for Inactive)
REMARK    1  A    between atoms: C_2  and  C_25
REMARK    2  A    between atoms: N_3  and  C_4
REMARK    3  A    between atoms: C_4  and  C_5
REMARK    4  A    between atoms: C_8  and  C_9
REMARK                            x       y       z     vdW  Elec       q    Type
REMARK                         _______ _______ _______ _____ _____    ______ ____
ROOT
ATOM      1  C   UNL     1       4.894   5.800  17.404  0.00  0.00    +0.000 A 
ATOM      2  N   UNL     1       4.068   4.858  17.886  0.00  0.00    +0.000 NA
ATOM      3  O   UNL     1       3.007   5.591  18.406  0.00  0.00    +0.000 OA
ATOM      4  C   UNL     1       3.312   6.910  18.227  0.00  0.00    +0.000 A 
ATOM      5  N   UNL     1       4.473   7.092  17.639  0.00  0.00    +0.000 NA
ENDROOT
BRANCH   4   6
ATOM      6  C   UNL     1       2.343   7.877  18.704  0.00  0.00    +0.000 A 
ATOM      7  C   UNL     1       1.778   8.825  17.866  0.00  0.00    +0.000 A 
ATOM      8  N   UNL     1       0.873   9.751  18.257  0.00  0.00    +0.000 NA
ATOM      9  C   UNL     1       0.495   9.776  19.552  0.00  0.00    +0.000 A 
ATOM     10  C   UNL     1      -0.425  10.717  20.017  0.00  0.00    +0.000 A 
ATOM     11  F   UNL     1      -0.957  11.607  19.163  0.00  0.00    +0.000 F 
ATOM     12  C   UNL     1      -0.820  10.781  21.352  0.00  0.00    +0.000 A 
ATOM     13  C   UNL     1      -0.294   9.881  22.270  0.00  0.00    +0.000 A 
ATOM     14  C   UNL     1       0.619   8.918  21.841  0.00  0.00    +0.000 A 
ATOM     15  C   UNL     1       1.016   8.859  20.491  0.00  0.00    +0.000 A 
ATOM     16  C   UNL     1       1.940   7.901  20.041  0.00  0.00    +0.000 A 
ENDBRANCH   4   6
BRANCH   1  17
ATOM     17  C   UNL     1       6.245   5.471  16.784  0.00  0.00    +0.000 C 
ATOM     18  C   UNL     1       7.123   6.735  16.655  0.00  0.00    +0.000 C 
ATOM     19  C   UNL     1       7.737   6.940  18.044  0.00  0.00    +0.000 C 
ATOM     20  C   UNL     1       7.667   5.590  18.755  0.00  0.00    +0.000 C 
ATOM     21  C   UNL     1       7.098   4.606  17.735  0.00  0.00    +0.000 C 
BRANCH  17  24
ATOM     22  O   UNL     1       7.859   5.392  14.354  0.00  0.00    +0.000 OA
ATOM     23  C   UNL     1       6.785   4.809  14.403  0.00  0.00    +0.000 C 
ATOM     24  N   UNL     1       5.953   4.810  15.501  0.00  0.00    +0.000 N 
ATOM     25  H   UNL     1       5.158   4.185  15.491  0.00  0.00    +0.000 HD
BRANCH  23  26
ATOM     26  C   UNL     1       6.337   4.004  13.232  0.00  0.00    +0.000 A 
ATOM     27  C   UNL     1       4.961   3.909  12.980  0.00  0.00    +0.000 A 
ATOM     28  C   UNL     1       4.490   3.127  11.922  0.00  0.00    +0.000 A 
ATOM     29  C   UNL     1       5.391   2.436  11.116  0.00  0.00    +0.000 A 
ATOM     30  C   UNL     1       6.760   2.523  11.361  0.00  0.00    +0.000 A 
ATOM     31  C   UNL     1       7.237   3.307  12.418  0.00  0.00    +0.000 A 
ENDBRANCH  23  26
ENDBRANCH  17  24
ENDBRANCH   1  17
TORSDOF 4
ENDMDL
MODEL 4
REMARK VINA RESULT:      -9.7      4.689      7.208
REMARK  Name = 
REMARK  4 active torsions:
REMARK  status: ('A' for Active; 'I' for Inactive)
REMARK    1  A    between atoms: C_2  and  C_25
REMARK    2  A    between atoms: N_3  and  C_4
REMARK    3  A    between atoms: C_4  and  C_5
REMARK    4  A    between atoms: C_8  and  C_9
REMARK                            x       y       z     vdW  Elec       q    Type
REMARK                         _______ _______ _______ _____ _____    ______ ____
ROOT
ATOM      1  C   UNL     1       6.792   6.236  17.400  0.00  0.00    +0.000 A 
ATOM      2  N   UNL     1       7.665   5.861  18.348  0.00  0.00    +0.000 NA
ATOM      3  O   UNL     1       8.285   7.052  18.710  0.00  0.00    +0.000 OA
ATOM      4  C   UNL     1       7.757   8.030  17.915  0.00  0.00    +0.000 A 
ATOM      5  N   UNL     1       6.853   7.575  17.075  0.00  0.00    +0.000 NA
ENDROOT
BRANCH   4   6
ATOM      6  C   UNL     1       8.262   9.375  18.108  0.00  0.00    +0.000 A 
ATOM      7  C   UNL     1       7.802  10.447  17.359  0.00  0.00    +0.000 A 
ATOM      8  N   UNL     1       8.239  11.719  17.497  0.00  0.00    +0.000 NA
ATOM      9  C   UNL     1       9.199  11.977  18.408  0.00  0.00    +0.000 A 
ATOM     10  C   UNL     1       9.699  13.267  18.584  0.00  0.00    +0.000 A 
ATOM     11  F   UNL     1       9.211  14.278  17.846  0.00  0.00    +0.000 F 
ATOM     12  C   UNL     1      10.705  13.562  19.504  0.00  0.00    +0.000 A 
ATOM     13  C   UNL     1      11.240  12.547  20.287  0.00  0.00    +0.000 A 
ATOM     14  C   UNL     1      10.758  11.247  20.148  0.00  0.00    +0.000 A 
ATOM     15  C   UNL     1       9.743  10.955  19.217  0.00  0.00    +0.000 A 
ATOM     16  C   UNL     1       9.249   9.649  19.058  0.00  0.00    +0.000 A 
ENDBRANCH   4   6
BRANCH   1  17
ATOM     17  C   UNL     1       5.915   5.244  16.649  0.00  0.00    +0.000 C 
ATOM     18  C   UNL     1       5.311   5.882  15.379  0.00  0.00    +0.000 C 
ATOM     19  C   UNL     1       6.419   5.802  14.324  0.00  0.00    +0.000 C 
ATOM     20  C   UNL     1       7.376   4.701  14.781  0.00  0.00    +0.000 C 
ATOM     21  C   UNL     1       6.759   4.104  16.043  0.00  0.00    +0.000 C 
BRANCH  17  24
ATOM     22  O   UNL     1       3.536   6.616  17.638  0.00  0.00    +0.000 OA
ATOM     23  C   UNL     1       3.803   5.485  18.020  0.00  0.00    +0.000 C 
ATOM     24  N   UNL     1       4.912   4.773  17.619  0.00  0.00    +0.000 N 
ATOM     25  H   UNL     1       4.966   3.798  17.880  0.00  0.00    +0.000 HD
BRANCH  23  26
ATOM     26  C   UNL     1       2.866   4.788  18.945  0.00  0.00    +0.000 A 
ATOM     27  C   UNL     1       1.992   3.831  18.407  0.00  0.00    +0.000 A 
ATOM     28  C   UNL     1       1.063   3.185  19.226  0.00  0.00    +0.000 A 
ATOM     29  C   UNL     1       1.000   3.494  20.583  0.00  0.00    +0.000 A 
ATOM     30  C   UNL     1       1.863   4.446  21.124  0.00  0.00    +0.000 A 
ATOM     31  C   UNL     1       2.797   5.095  20.309  0.00  0.00    +0.000 A 
ENDBRANCH  23  26
ENDBRANCH  17  24
ENDBRANCH   1  17
TORSDOF 4
ENDMDL
MODEL 5
REMARK VINA RESULT:      -9.6      3.025      8.916
REMARK  Name = 
REMARK  4 active torsions:
REMARK  status: ('A' for Active; 'I' for Inactive)
REMARK    1  A    between atoms: C_2  and  C_25
REMARK    2  A    between atoms: N_3  and  C_4
REMARK    3  A    between atoms: C_4  and  C_5
REMARK    4  A    between atoms: C_8  and  C_9
REMARK                            x       y       z     vdW  Elec       q    Type
REMARK                         _______ _______ _______ _____ _____    ______ ____
ROOT
ATOM      1  C   UNL     1       3.547   5.673  17.766  0.00  0.00    +0.000 A 
ATOM      2  N   UNL     1       4.265   6.709  17.302  0.00  0.00    +0.000 NA
ATOM      3  O   UNL     1       3.625   7.817  17.846  0.00  0.00    +0.000 OA
ATOM      4  C   UNL     1       2.555   7.350  18.553  0.00  0.00    +0.000 A 
ATOM      5  N   UNL     1       2.448   6.040  18.515  0.00  0.00    +0.000 NA
ENDROOT
BRANCH   4   6
ATOM      6  C   UNL     1       1.723   8.337  19.213  0.00  0.00    +0.000 A 
ATOM      7  C   UNL     1       1.235   9.450  18.545  0.00  0.00    +0.000 A 
ATOM      8  N   UNL     1       0.459  10.402  19.111  0.00  0.00    +0.000 NA
ATOM      9  C   UNL     1       0.141  10.284  20.416  0.00  0.00    +0.000 A 
ATOM     10  C   UNL     1      -0.645  11.241  21.057  0.00  0.00    +0.000 A 
ATOM     11  F   UNL     1      -1.108  12.296  20.366  0.00  0.00    +0.000 F 
ATOM     12  C   UNL     1      -0.974  11.157  22.409  0.00  0.00    +0.000 A 
ATOM     13  C   UNL     1      -0.515  10.085  23.164  0.00  0.00    +0.000 A 
ATOM     14  C   UNL     1       0.263   9.101  22.556  0.00  0.00    +0.000 A 
ATOM     15  C   UNL     1       0.593   9.191  21.190  0.00  0.00    +0.000 A 
ATOM     16  C   UNL     1       1.382   8.213  20.561  0.00  0.00    +0.000 A 
ENDBRANCH   4   6
BRANCH   1  17
ATOM     17  C   UNL     1       3.838   4.231  17.379  0.00  0.00    +0.000 C 
ATOM     18  C   UNL     1       4.649   3.509  18.477  0.00  0.00    +0.000 C 
ATOM     19  C   UNL     1       3.617   3.088  19.527  0.00  0.00    +0.000 C 
ATOM     20  C   UNL     1       2.261   3.067  18.821  0.00  0.00    +0.000 C 
ATOM     21  C   UNL     1       2.545   3.389  17.356  0.00  0.00    +0.000 C 
BRANCH  17  24
ATOM     22  O   UNL     1       6.698   4.295  16.801  0.00  0.00    +0.000 OA
ATOM     23  C   UNL     1       5.882   4.300  15.890  0.00  0.00    +0.000 C 
ATOM     24  N   UNL     1       4.517   4.290  16.073  0.00  0.00    +0.000 N 
ATOM     25  H   UNL     1       3.933   4.152  15.260  0.00  0.00    +0.000 HD
BRANCH  23  26
ATOM     26  C   UNL     1       6.363   4.273  14.480  0.00  0.00    +0.000 A 
ATOM     27  C   UNL     1       7.382   5.163  14.110  0.00  0.00    +0.000 A 
ATOM     28  C   UNL     1       7.834   5.208  12.789  0.00  0.00    +0.000 A 
ATOM     29  C   UNL     1       7.266   4.369  11.832  0.00  0.00    +0.000 A 
ATOM     30  C   UNL     1       6.251   3.484  12.192  0.00  0.00    +0.000 A 
ATOM     31  C   UNL     1       5.796   3.432  13.514  0.00  0.00    +0.000 A 
ENDBRANCH  23  26
ENDBRANCH  17  24
ENDBRANCH   1  17
TORSDOF 4
ENDMDL
MODEL 6
REMARK VINA RESULT:      -9.4      3.338      9.120
REMARK  Name = 
REMARK  4 active torsions:
REMARK  status: ('A' for Active; 'I' for Inactive)
REMARK    1  A    between atoms: C_2  and  C_25
REMARK    2  A    between atoms: N_3  and  C_4
REMARK    3  A    between atoms: C_4  and  C_5
REMARK    4  A    between atoms: C_8  and  C_9
REMARK                            x       y       z     vdW  Elec       q    Type
REMARK                         _______ _______ _______ _____ _____    ______ ____
ROOT
ATOM      1  C   UNL     1       4.842   5.768  17.353  0.00  0.00    +0.000 A 
ATOM      2  N   UNL     1       3.940   4.796  17.563  0.00  0.00    +0.000 NA
ATOM      3  O   UNL     1       2.899   5.454  18.209  0.00  0.00    +0.000 OA
ATOM      4  C   UNL     1       3.289   6.753  18.367  0.00  0.00    +0.000 A 
ATOM      5  N   UNL     1       4.486   6.992  17.880  0.00  0.00    +0.000 NA
ENDROOT
BRANCH   4   6
ATOM      6  C   UNL     1       2.355   7.641  19.031  0.00  0.00    +0.000 A 
ATOM      7  C   UNL     1       1.947   7.432  20.340  0.00  0.00    +0.000 A 
ATOM      8  N   UNL     1       1.078   8.227  21.006  0.00  0.00    +0.000 NA
ATOM      9  C   UNL     1       0.551   9.288  20.363  0.00  0.00    +0.000 A 
ATOM     10  C   UNL     1      -0.361  10.135  20.994  0.00  0.00    +0.000 A 
ATOM     11  F   UNL     1      -0.716   9.901  22.269  0.00  0.00    +0.000 F 
ATOM     12  C   UNL     1      -0.938  11.228  20.350  0.00  0.00    +0.000 A 
ATOM     13  C   UNL     1      -0.602  11.506  19.030  0.00  0.00    +0.000 A 
ATOM     14  C   UNL     1       0.315  10.690  18.370  0.00  0.00    +0.000 A 
ATOM     15  C   UNL     1       0.894   9.586  19.025  0.00  0.00    +0.000 A 
ATOM     16  C   UNL     1       1.814   8.748  18.373  0.00  0.00    +0.000 A 
ENDBRANCH   4   6
BRANCH   1  17
ATOM     17  C   UNL     1       6.201   5.506  16.718  0.00  0.00    +0.000 C 
ATOM     18  C   UNL     1       7.019   6.810  16.592  0.00  0.00    +0.000 C 
ATOM     19  C   UNL     1       7.636   7.032  17.977  0.00  0.00    +0.000 C 
ATOM     20  C   UNL     1       7.635   5.673  18.677  0.00  0.00    +0.000 C 
ATOM     21  C   UNL     1       7.101   4.673  17.654  0.00  0.00    +0.000 C 
BRANCH  17  24
ATOM     22  O   UNL     1       7.893   5.337  14.346  0.00  0.00    +0.000 OA
ATOM     23  C   UNL     1       6.796   4.798  14.364  0.00  0.00    +0.000 C 
ATOM     24  N   UNL     1       5.927   4.843  15.432  0.00  0.00    +0.000 N 
ATOM     25  H   UNL     1       5.110   4.249  15.401  0.00  0.00    +0.000 HD
BRANCH  23  26
ATOM     26  C   UNL     1       6.357   3.998  13.186  0.00  0.00    +0.000 A 
ATOM     27  C   UNL     1       4.983   3.901  12.925  0.00  0.00    +0.000 A 
ATOM     28  C   UNL     1       4.520   3.124  11.860  0.00  0.00    +0.000 A 
ATOM     29  C   UNL     1       5.427   2.438  11.055  0.00  0.00    +0.000 A 
ATOM     30  C   UNL     1       6.795   2.527  11.310  0.00  0.00    +0.000 A 
ATOM     31  C   UNL     1       7.264   3.306  12.374  0.00  0.00    +0.000 A 
ENDBRANCH  23  26
ENDBRANCH  17  24
ENDBRANCH   1  17
TORSDOF 4
ENDMDL
MODEL 7
REMARK VINA RESULT:      -9.3      0.971      1.138
REMARK  Name = 
REMARK  4 active torsions:
REMARK  status: ('A' for Active; 'I' for Inactive)
REMARK    1  A    between atoms: C_2  and  C_25
REMARK    2  A    between atoms: N_3  and  C_4
REMARK    3  A    between atoms: C_4  and  C_5
REMARK    4  A    between atoms: C_8  and  C_9
REMARK                            x       y       z     vdW  Elec       q    Type
REMARK                         _______ _______ _______ _____ _____    ______ ____
ROOT
ATOM      1  C   UNL     1       3.459   4.770  19.233  0.00  0.00    +0.000 A 
ATOM      2  N   UNL     1       4.334   3.833  19.631  0.00  0.00    +0.000 NA
ATOM      3  O   UNL     1       5.239   3.764  18.577  0.00  0.00    +0.000 OA
ATOM      4  C   UNL     1       4.801   4.636  17.622  0.00  0.00    +0.000 A 
ATOM      5  N   UNL     1       3.697   5.261  17.966  0.00  0.00    +0.000 NA
ENDROOT
BRANCH   4   6
ATOM      6  C   UNL     1       5.592   4.732  16.411  0.00  0.00    +0.000 A 
ATOM      7  C   UNL     1       6.703   5.557  16.323  0.00  0.00    +0.000 A 
ATOM      8  N   UNL     1       7.474   5.687  15.219  0.00  0.00    +0.000 NA
ATOM      9  C   UNL     1       7.144   4.985  14.116  0.00  0.00    +0.000 A 
ATOM     10  C   UNL     1       7.894   5.088  12.944  0.00  0.00    +0.000 A 
ATOM     11  F   UNL     1       8.972   5.890  12.910  0.00  0.00    +0.000 F 
ATOM     12  C   UNL     1       7.567   4.391  11.782  0.00  0.00    +0.000 A 
ATOM     13  C   UNL     1       6.459   3.553  11.770  0.00  0.00    +0.000 A 
ATOM     14  C   UNL     1       5.692   3.414  12.926  0.00  0.00    +0.000 A 
ATOM     15  C   UNL     1       6.026   4.121  14.096  0.00  0.00    +0.000 A 
ATOM     16  C   UNL     1       5.261   3.999  15.269  0.00  0.00    +0.000 A 
ENDBRANCH   4   6
BRANCH   1  17
ATOM     17  C   UNL     1       2.231   5.150  20.048  0.00  0.00    +0.000 C 
ATOM     18  C   UNL     1       1.022   4.261  19.686  0.00  0.00    +0.000 C 
ATOM     19  C   UNL     1       1.227   2.965  20.476  0.00  0.00    +0.000 C 
ATOM     20  C   UNL     1       2.171   3.302  21.629  0.00  0.00    +0.000 C 
ATOM     21  C   UNL     1       2.425   4.805  21.539  0.00  0.00    +0.000 C 
BRANCH  17  24
ATOM     22  O   UNL     1       0.614   7.040  21.576  0.00  0.00    +0.000 OA
ATOM     23  C   UNL     1       1.241   7.413  20.595  0.00  0.00    +0.000 C 
ATOM     24  N   UNL     1       2.013   6.587  19.808  0.00  0.00    +0.000 N 
ATOM     25  H   UNL     1       2.602   7.017  19.108  0.00  0.00    +0.000 HD
BRANCH  23  26
ATOM     26  C   UNL     1       1.224   8.856  20.224  0.00  0.00    +0.000 A 
ATOM     27  C   UNL     1       0.915   9.793  21.221  0.00  0.00    +0.000 A 
ATOM     28  C   UNL     1       0.841  11.154  20.911  0.00  0.00    +0.000 A 
ATOM     29  C   UNL     1       1.070  11.582  19.606  0.00  0.00    +0.000 A 
ATOM     30  C   UNL     1       1.376  10.657  18.609  0.00  0.00    +0.000 A 
ATOM     31  C   UNL     1       1.454   9.293  18.914  0.00  0.00    +0.000 A 
ENDBRANCH  23  26
ENDBRANCH  17  24
ENDBRANCH   1  17
TORSDOF 4
ENDMDL
MODEL 8
REMARK VINA RESULT:      -9.2      4.756      7.159
REMARK  Name = 
REMARK  4 active torsions:
REMARK  status: ('A' for Active; 'I' for Inactive)
REMARK    1  A    between atoms: C_2  and  C_25
REMARK    2  A    between atoms: N_3  and  C_4
REMARK    3  A    between atoms: C_4  and  C_5
REMARK    4  A    between atoms: C_8  and  C_9
REMARK                            x       y       z     vdW  Elec       q    Type
REMARK                         _______ _______ _______ _____ _____    ______ ____
ROOT
ATOM      1  C   UNL     1       6.764   6.292  17.614  0.00  0.00    +0.000 A 
ATOM      2  N   UNL     1       7.749   5.866  18.422  0.00  0.00    +0.000 NA
ATOM      3  O   UNL     1       8.427   7.035  18.750  0.00  0.00    +0.000 OA
ATOM      4  C   UNL     1       7.815   8.052  18.074  0.00  0.00    +0.000 A 
ATOM      5  N   UNL     1       6.802   7.643  17.342  0.00  0.00    +0.000 NA
ENDROOT
BRANCH   4   6
ATOM      6  C   UNL     1       8.361   9.382  18.258  0.00  0.00    +0.000 A 
ATOM      7  C   UNL     1       9.441   9.624  19.092  0.00  0.00    +0.000 A 
ATOM      8  N   UNL     1       9.988  10.843  19.302  0.00  0.00    +0.000 NA
ATOM      9  C   UNL     1       9.448  11.909  18.676  0.00  0.00    +0.000 A 
ATOM     10  C   UNL     1       9.960  13.192  18.864  0.00  0.00    +0.000 A 
ATOM     11  F   UNL     1      11.019  13.376  19.671  0.00  0.00    +0.000 F 
ATOM     12  C   UNL     1       9.412  14.315  18.246  0.00  0.00    +0.000 A 
ATOM     13  C   UNL     1       8.316  14.172  17.405  0.00  0.00    +0.000 A 
ATOM     14  C   UNL     1       7.783  12.904  17.182  0.00  0.00    +0.000 A 
ATOM     15  C   UNL     1       8.340  11.773  17.809  0.00  0.00    +0.000 A 
ATOM     16  C   UNL     1       7.812  10.487  17.603  0.00  0.00    +0.000 A 
ENDBRANCH   4   6
BRANCH   1  17
ATOM     17  C   UNL     1       5.782   5.342  16.943  0.00  0.00    +0.000 C 
ATOM     18  C   UNL     1       5.152   5.984  15.688  0.00  0.00    +0.000 C 
ATOM     19  C   UNL     1       6.192   5.799  14.578  0.00  0.00    +0.000 C 
ATOM     20  C   UNL     1       7.097   4.649  15.016  0.00  0.00    +0.000 C 
ATOM     21  C   UNL     1       6.512   4.130  16.328  0.00  0.00    +0.000 C 
BRANCH  17  24
ATOM     22  O   UNL     1       3.426   3.635  16.711  0.00  0.00    +0.000 OA
ATOM     23  C   UNL     1       3.724   4.138  17.786  0.00  0.00    +0.000 C 
ATOM     24  N   UNL     1       4.805   4.968  17.980  0.00  0.00    +0.000 N 
ATOM     25  H   UNL     1       5.046   5.215  18.930  0.00  0.00    +0.000 HD
BRANCH  23  26
ATOM     26  C   UNL     1       2.909   3.817  18.992  0.00  0.00    +0.000 A 
ATOM     27  C   UNL     1       3.518   3.100  20.032  0.00  0.00    +0.000 A 
ATOM     28  C   UNL     1       2.782   2.736  21.162  0.00  0.00    +0.000 A 
ATOM     29  C   UNL     1       1.436   3.082  21.255  0.00  0.00    +0.000 A 
ATOM     30  C   UNL     1       0.823   3.792  20.224  0.00  0.00    +0.000 A 
ATOM     31  C   UNL     1       1.555   4.162  19.091  0.00  0.00    +0.000 A 
ENDBRANCH  23  26
ENDBRANCH  17  24
ENDBRANCH   1  17
TORSDOF 4
ENDMDL
MODEL 9
REMARK VINA RESULT:      -9.1      4.951      8.529
REMARK  Name = 
REMARK  4 active torsions:
REMARK  status: ('A' for Active; 'I' for Inactive)
REMARK    1  A    between atoms: C_2  and  C_25
REMARK    2  A    between atoms: N_3  and  C_4
REMARK    3  A    between atoms: C_4  and  C_5
REMARK    4  A    between atoms: C_8  and  C_9
REMARK                            x       y       z     vdW  Elec       q    Type
REMARK                         _______ _______ _______ _____ _____    ______ ____
ROOT
ATOM      1  C   UNL     1       6.652   6.701  17.951  0.00  0.00    +0.000 A 
ATOM      2  N   UNL     1       7.722   6.257  18.629  0.00  0.00    +0.000 NA
ATOM      3  O   UNL     1       8.491   7.402  18.808  0.00  0.00    +0.000 OA
ATOM      4  C   UNL     1       7.833   8.423  18.183  0.00  0.00    +0.000 A 
ATOM      5  N   UNL     1       6.709   8.039  17.620  0.00  0.00    +0.000 NA
ENDROOT
BRANCH   4   6
ATOM      6  C   UNL     1       8.458   9.730  18.231  0.00  0.00    +0.000 A 
ATOM      7  C   UNL     1       7.978  10.800  17.492  0.00  0.00    +0.000 A 
ATOM      8  N   UNL     1       8.522  12.039  17.496  0.00  0.00    +0.000 NA
ATOM      9  C   UNL     1       9.615  12.260  18.254  0.00  0.00    +0.000 A 
ATOM     10  C   UNL     1      10.227  13.513  18.289  0.00  0.00    +0.000 A 
ATOM     11  F   UNL     1       9.717  14.525  17.567  0.00  0.00    +0.000 F 
ATOM     12  C   UNL     1      11.369  13.768  19.047  0.00  0.00    +0.000 A 
ATOM     13  C   UNL     1      11.932  12.750  19.807  0.00  0.00    +0.000 A 
ATOM     14  C   UNL     1      11.341  11.488  19.808  0.00  0.00    +0.000 A 
ATOM     15  C   UNL     1      10.189  11.236  19.040  0.00  0.00    +0.000 A 
ATOM     16  C   UNL     1       9.583   9.968  19.023  0.00  0.00    +0.000 A 
ENDBRANCH   4   6
BRANCH   1  17
ATOM     17  C   UNL     1       5.543   5.778  17.467  0.00  0.00    +0.000 C 
ATOM     18  C   UNL     1       5.471   4.494  18.322  0.00  0.00    +0.000 C 
ATOM     19  C   UNL     1       4.683   4.890  19.574  0.00  0.00    +0.000 C 
ATOM     20  C   UNL     1       3.884   6.140  19.209  0.00  0.00    +0.000 C 
ATOM     21  C   UNL     1       4.153   6.393  17.728  0.00  0.00    +0.000 C 
BRANCH  17  24
ATOM     22  O   UNL     1       7.796   4.387  16.239  0.00  0.00    +0.000 OA
ATOM     23  C   UNL     1       6.901   4.848  15.545  0.00  0.00    +0.000 C 
ATOM     24  N   UNL     1       5.813   5.534  16.039  0.00  0.00    +0.000 N 
ATOM     25  H   UNL     1       5.060   5.749  15.400  0.00  0.00    +0.000 HD
BRANCH  23  26
ATOM     26  C   UNL     1       6.937   4.637  14.071  0.00  0.00    +0.000 A 
ATOM     27  C   UNL     1       6.131   3.627  13.526  0.00  0.00    +0.000 A 
ATOM     28  C   UNL     1       6.165   3.360  12.155  0.00  0.00    +0.000 A 
ATOM     29  C   UNL     1       7.009   4.095  11.325  0.00  0.00    +0.000 A 
ATOM     30  C   UNL     1       7.816   5.099  11.860  0.00  0.00    +0.000 A 
ATOM     31  C   UNL     1       7.783   5.373  13.232  0.00  0.00    +0.000 A 
ENDBRANCH  23  26
ENDBRANCH  17  24
ENDBRANCH   1  17
TORSDOF 4
ENDMDL
