MODEL 1
REMARK VINA RESULT:      -8.6      0.000      0.000
REMARK  Name = 
REMARK  8 active torsions:
REMARK  status: ('A' for Active; 'I' for Inactive)
REMARK    1  A    between atoms: C_1  and  C_2
REMARK    2  A    between atoms: C_5  and  C_6
REMARK    3  A    between atoms: C_8  and  N_9
REMARK    4  A    between atoms: C_10  and  C_12
REMARK    5  A    between atoms: C_12  and  N_13
REMARK    6  A    between atoms: N_13  and  C_14
REMARK    7  A    between atoms: N_13  and  C_15
REMARK    8  A    between atoms: C_15  and  C_16
REMARK                            x       y       z     vdW  Elec       q    Type
REMARK                         _______ _______ _______ _____ _____    ______ ____
ROOT
ATOM      1  N   UNL     1       3.834   6.491  17.624  0.00  0.00    +0.000 N 
ATOM      2  C   UNL     1       5.150   6.787  17.339  0.00  0.00    +0.000 C 
ATOM      3  O   UNL     1       5.688   7.889  17.433  0.00  0.00    +0.000 OA
ATOM      4  H   UNL     1       3.502   5.547  17.477  0.00  0.00    +0.000 HD
ENDROOT
BRANCH   1   7
ATOM      5  C   UNL     1       1.529   8.799  19.074  0.00  0.00    +0.000 A 
ATOM      6  C   UNL     1       2.280   7.600  19.224  0.00  0.00    +0.000 A 
ATOM      7  C   UNL     1       2.946   7.454  18.039  0.00  0.00    +0.000 A 
ATOM      8  O   UNL     1       2.605   8.477  17.212  0.00  0.00    +0.000 OA
ATOM      9  N   UNL     1       1.721   9.321  17.854  0.00  0.00    +0.000 NA
BRANCH   5  14
ATOM     10  C   UNL     1      -1.448  11.561  23.165  0.00  0.00    +0.000 C 
ATOM     11  C   UNL     1      -0.738  10.819  22.075  0.00  0.00    +0.000 A 
ATOM     12  C   UNL     1      -0.714  11.308  20.765  0.00  0.00    +0.000 A 
ATOM     13  C   UNL     1      -0.010  10.627  19.769  0.00  0.00    +0.000 A 
ATOM     14  C   UNL     1       0.691   9.451  20.075  0.00  0.00    +0.000 A 
ATOM     15  C   UNL     1       0.630   8.944  21.379  0.00  0.00    +0.000 A 
ATOM     16  C   UNL     1      -0.073   9.625  22.372  0.00  0.00    +0.000 A 
ENDBRANCH   5  14
ENDBRANCH   1   7
BRANCH   2  17
ATOM     17  C   UNL     1       5.960   5.573  16.873  0.00  0.00    +0.000 C 
BRANCH  17  18
ATOM     18  N   UNL     1       5.251   4.814  15.805  0.00  0.00    +0.000 NA
ATOM     19  C   UNL     1       6.047   4.864  14.559  0.00  0.00    +0.000 C 
BRANCH  18  20
ATOM     20  C   UNL     1       5.137   3.384  16.208  0.00  0.00    +0.000 C 
BRANCH  20  21
ATOM     21  C   UNL     1       4.394   3.246  17.532  0.00  0.00    +0.000 A 
ATOM     22  N   UNL     1       3.151   3.590  17.629  0.00  0.00    +0.000 NA
ATOM     23  C   UNL     1       2.514   3.412  18.868  0.00  0.00    +0.000 A 
ATOM     24  C   UNL     1       1.192   3.839  19.013  0.00  0.00    +0.000 A 
ATOM     25  C   UNL     1       0.513   3.656  20.220  0.00  0.00    +0.000 A 
ATOM     26  C   UNL     1       1.147   3.030  21.294  0.00  0.00    +0.000 A 
ATOM     27  C   UNL     1       2.471   2.606  21.169  0.00  0.00    +0.000 A 
ATOM     28  C   UNL     1       3.147   2.813  19.962  0.00  0.00    +0.000 A 
ATOM     29  C   UNL     1       4.561   2.431  19.795  0.00  0.00    +0.000 A 
ATOM     30  O   UNL     1       5.199   1.874  20.680  0.00  0.00    +0.000 OA
ATOM     31  N   UNL     1       5.114   2.729  18.576  0.00  0.00    +0.000 N 
ATOM     32  H   UNL     1       6.078   2.463  18.432  0.00  0.00    +0.000 HD
ENDBRANCH  20  21
ENDBRANCH  18  20
ENDBRANCH  17  18
ENDBRANCH   2  17
TORSDOF 6
ENDMDL
MODEL 2
REMARK VINA RESULT:      -8.5      1.246      1.935
REMARK  Name = 
REMARK  8 active torsions:
REMARK  status: ('A' for Active; 'I' for Inactive)
REMARK    1  A    between atoms: C_1  and  C_2
REMARK    2  A    between atoms: C_5  and  C_6
REMARK    3  A    between atoms: C_8  and  N_9
REMARK    4  A    between atoms: C_10  and  C_12
REMARK    5  A    between atoms: C_12  and  N_13
REMARK    6  A    between atoms: N_13  and  C_14
REMARK    7  A    between atoms: N_13  and  C_15
REMARK    8  A    between atoms: C_15  and  C_16
REMARK                            x       y       z     vdW  Elec       q    Type
REMARK                         _______ _______ _______ _____ _____    ______ ____
ROOT
ATOM      1  N   UNL     1       4.130   6.448  17.339  0.00  0.00    +0.000 N 
ATOM      2  C   UNL     1       5.469   6.737  17.190  0.00  0.00    +0.000 C 
ATOM      3  O   UNL     1       6.030   7.786  17.503  0.00  0.00    +0.000 OA
ATOM      4  H   UNL     1       3.782   5.556  17.013  0.00  0.00    +0.000 HD
ENDROOT
BRANCH   1   7
ATOM      5  C   UNL     1       1.877   8.626  19.050  0.00  0.00    +0.000 A 
ATOM      6  C   UNL     1       2.702   7.469  19.108  0.00  0.00    +0.000 A 
ATOM      7  C   UNL     1       3.242   7.362  17.856  0.00  0.00    +0.000 A 
ATOM      8  O   UNL     1       2.758   8.367  17.079  0.00  0.00    +0.000 OA
ATOM      9  N   UNL     1       1.906   9.160  17.821  0.00  0.00    +0.000 NA
BRANCH   5  14
ATOM     10  C   UNL     1      -1.442  10.980  23.134  0.00  0.00    +0.000 C 
ATOM     11  C   UNL     1      -0.524  10.368  22.120  0.00  0.00    +0.000 A 
ATOM     12  C   UNL     1      -0.179   9.013  22.182  0.00  0.00    +0.000 A 
ATOM     13  C   UNL     1       0.643   8.449  21.204  0.00  0.00    +0.000 A 
ATOM     14  C   UNL     1       1.120   9.230  20.141  0.00  0.00    +0.000 A 
ATOM     15  C   UNL     1       0.806  10.595  20.108  0.00  0.00    +0.000 A 
ATOM     16  C   UNL     1      -0.014  11.157  21.085  0.00  0.00    +0.000 A 
ENDBRANCH   5  14
ENDBRANCH   1   7
BRANCH   2  17
ATOM     17  C   UNL     1       6.275   5.589  16.576  0.00  0.00    +0.000 C 
BRANCH  17  18
ATOM     18  N   UNL     1       5.421   4.703  15.736  0.00  0.00    +0.000 NA
ATOM     19  C   UNL     1       6.056   4.520  14.414  0.00  0.00    +0.000 C 
BRANCH  18  20
ATOM     20  C   UNL     1       5.322   3.361  16.377  0.00  0.00    +0.000 C 
BRANCH  20  21
ATOM     21  C   UNL     1       4.173   3.316  17.378  0.00  0.00    +0.000 A 
ATOM     22  N   UNL     1       4.390   3.010  18.616  0.00  0.00    +0.000 NA
ATOM     23  C   UNL     1       3.294   3.014  19.496  0.00  0.00    +0.000 A 
ATOM     24  C   UNL     1       3.494   2.623  20.821  0.00  0.00    +0.000 A 
ATOM     25  C   UNL     1       2.438   2.638  21.736  0.00  0.00    +0.000 A 
ATOM     26  C   UNL     1       1.169   3.061  21.334  0.00  0.00    +0.000 A 
ATOM     27  C   UNL     1       0.951   3.446  20.011  0.00  0.00    +0.000 A 
ATOM     28  C   UNL     1       2.012   3.407  19.101  0.00  0.00    +0.000 A 
ATOM     29  C   UNL     1       1.821   3.754  17.681  0.00  0.00    +0.000 A 
ATOM     30  O   UNL     1       0.746   4.139  17.237  0.00  0.00    +0.000 OA
ATOM     31  N   UNL     1       2.934   3.632  16.888  0.00  0.00    +0.000 N 
ATOM     32  H   UNL     1       2.833   3.880  15.913  0.00  0.00    +0.000 HD
ENDBRANCH  20  21
ENDBRANCH  18  20
ENDBRANCH  17  18
ENDBRANCH   2  17
TORSDOF 6
ENDMDL
MODEL 3
REMARK VINA RESULT:      -8.4      1.039      1.055
REMARK  Name = 
REMARK  8 active torsions:
REMARK  status: ('A' for Active; 'I' for Inactive)
REMARK    1  A    between atoms: C_1  and  C_2
REMARK    2  A    between atoms: C_5  and  C_6
REMARK    3  A    between atoms: C_8  and  N_9
REMARK    4  A    between atoms: C_10  and  C_12
REMARK    5  A    between atoms: C_12  and  N_13
REMARK    6  A    between atoms: N_13  and  C_14
REMARK    7  A    between atoms: N_13  and  C_15
REMARK    8  A    between atoms: C_15  and  C_16
REMARK                            x       y       z     vdW  Elec       q    Type
REMARK                         _______ _______ _______ _____ _____    ______ ____
ROOT
ATOM      1  N   UNL     1       3.546   6.811  17.065  0.00  0.00    +0.000 N 
ATOM      2  C   UNL     1       4.920   6.791  16.964  0.00  0.00    +0.000 C 
ATOM      3  O   UNL     1       5.722   7.123  17.836  0.00  0.00    +0.000 OA
ATOM      4  H   UNL     1       2.992   6.540  16.263  0.00  0.00    +0.000 HD
ENDROOT
BRANCH   1   7
ATOM      5  C   UNL     1       1.742   8.267  19.779  0.00  0.00    +0.000 A 
ATOM      6  C   UNL     1       2.167   8.377  18.427  0.00  0.00    +0.000 A 
ATOM      7  C   UNL     1       2.906   7.249  18.200  0.00  0.00    +0.000 A 
ATOM      8  O   UNL     1       2.953   6.515  19.342  0.00  0.00    +0.000 OA
ATOM      9  N   UNL     1       2.225   7.146  20.332  0.00  0.00    +0.000 NA
BRANCH   5  14
ATOM     10  C   UNL     1      -1.399  11.984  22.870  0.00  0.00    +0.000 C 
ATOM     11  C   UNL     1      -0.642  11.005  22.026  0.00  0.00    +0.000 A 
ATOM     12  C   UNL     1      -0.202  11.346  20.742  0.00  0.00    +0.000 A 
ATOM     13  C   UNL     1       0.541  10.437  19.986  0.00  0.00    +0.000 A 
ATOM     14  C   UNL     1       0.865   9.177  20.509  0.00  0.00    +0.000 A 
ATOM     15  C   UNL     1       0.386   8.826  21.778  0.00  0.00    +0.000 A 
ATOM     16  C   UNL     1      -0.355   9.734  22.532  0.00  0.00    +0.000 A 
ENDBRANCH   5  14
ENDBRANCH   1   7
BRANCH   2  17
ATOM     17  C   UNL     1       5.424   6.287  15.609  0.00  0.00    +0.000 C 
BRANCH  17  18
ATOM     18  N   UNL     1       5.114   4.844  15.408  0.00  0.00    +0.000 NA
ATOM     19  C   UNL     1       5.658   4.402  14.105  0.00  0.00    +0.000 C 
BRANCH  18  20
ATOM     20  C   UNL     1       5.785   4.042  16.470  0.00  0.00    +0.000 C 
BRANCH  20  21
ATOM     21  C   UNL     1       4.804   3.671  17.577  0.00  0.00    +0.000 A 
ATOM     22  N   UNL     1       3.529   3.780  17.390  0.00  0.00    +0.000 NA
ATOM     23  C   UNL     1       2.676   3.395  18.438  0.00  0.00    +0.000 A 
ATOM     24  C   UNL     1       1.299   3.567  18.283  0.00  0.00    +0.000 A 
ATOM     25  C   UNL     1       0.414   3.173  19.290  0.00  0.00    +0.000 A 
ATOM     26  C   UNL     1       0.899   2.586  20.460  0.00  0.00    +0.000 A 
ATOM     27  C   UNL     1       2.273   2.416  20.635  0.00  0.00    +0.000 A 
ATOM     28  C   UNL     1       3.150   2.834  19.628  0.00  0.00    +0.000 A 
ATOM     29  C   UNL     1       4.612   2.724  19.786  0.00  0.00    +0.000 A 
ATOM     30  O   UNL     1       5.129   2.220  20.776  0.00  0.00    +0.000 OA
ATOM     31  N   UNL     1       5.357   3.210  18.742  0.00  0.00    +0.000 N 
ATOM     32  H   UNL     1       6.361   3.131  18.820  0.00  0.00    +0.000 HD
ENDBRANCH  20  21
ENDBRANCH  18  20
ENDBRANCH  17  18
ENDBRANCH   2  17
TORSDOF 6
ENDMDL
MODEL 4
REMARK VINA RESULT:      -8.3      1.065      1.466
REMARK  Name = 
REMARK  8 active torsions:
REMARK  status: ('A' for Active; 'I' for Inactive)
REMARK    1  A    between atoms: C_1  and  C_2
REMARK    2  A    between atoms: C_5  and  C_6
REMARK    3  A    between atoms: C_8  and  N_9
REMARK    4  A    between atoms: C_10  and  C_12
REMARK    5  A    between atoms: C_12  and  N_13
REMARK    6  A    between atoms: N_13  and  C_14
REMARK    7  A    between atoms: N_13  and  C_15
REMARK    8  A    between atoms: C_15  and  C_16
REMARK                            x       y       z     vdW  Elec       q    Type
REMARK                         _______ _______ _______ _____ _____    ______ ____
ROOT
ATOM      1  N   UNL     1       3.945   6.611  17.134  0.00  0.00    +0.000 N 
ATOM      2  C   UNL     1       5.312   6.580  17.304  0.00  0.00    +0.000 C 
ATOM      3  O   UNL     1       5.948   7.107  18.215  0.00  0.00    +0.000 OA
ATOM      4  H   UNL     1       3.542   6.162  16.323  0.00  0.00    +0.000 HD
ENDROOT
BRANCH   1   7
ATOM      5  C   UNL     1       1.722   8.634  19.060  0.00  0.00    +0.000 A 
ATOM      6  C   UNL     1       2.403   8.442  17.827  0.00  0.00    +0.000 A 
ATOM      7  C   UNL     1       3.120   7.291  17.999  0.00  0.00    +0.000 A 
ATOM      8  O   UNL     1       2.914   6.826  19.260  0.00  0.00    +0.000 OA
ATOM      9  N   UNL     1       2.040   7.662  19.926  0.00  0.00    +0.000 NA
BRANCH   5  14
ATOM     10  C   UNL     1      -2.346  12.497  20.385  0.00  0.00    +0.000 C 
ATOM     11  C   UNL     1      -1.239  11.547  20.046  0.00  0.00    +0.000 A 
ATOM     12  C   UNL     1      -0.375  11.062  21.034  0.00  0.00    +0.000 A 
ATOM     13  C   UNL     1       0.624  10.142  20.708  0.00  0.00    +0.000 A 
ATOM     14  C   UNL     1       0.764   9.684  19.389  0.00  0.00    +0.000 A 
ATOM     15  C   UNL     1      -0.077  10.205  18.398  0.00  0.00    +0.000 A 
ATOM     16  C   UNL     1      -1.074  11.123  18.724  0.00  0.00    +0.000 A 
ENDBRANCH   5  14
ENDBRANCH   1   7
BRANCH   2  17
ATOM     17  C   UNL     1       6.042   5.785  16.217  0.00  0.00    +0.000 C 
BRANCH  17  18
ATOM     18  N   UNL     1       5.191   4.694  15.667  0.00  0.00    +0.000 NA
ATOM     19  C   UNL     1       5.526   4.483  14.241  0.00  0.00    +0.000 C 
BRANCH  18  20
ATOM     20  C   UNL     1       5.487   3.424  16.390  0.00  0.00    +0.000 C 
BRANCH  20  21
ATOM     21  C   UNL     1       4.634   3.299  17.647  0.00  0.00    +0.000 A 
ATOM     22  N   UNL     1       3.370   3.575  17.615  0.00  0.00    +0.000 NA
ATOM     23  C   UNL     1       2.632   3.412  18.799  0.00  0.00    +0.000 A 
ATOM     24  C   UNL     1       1.282   3.768  18.805  0.00  0.00    +0.000 A 
ATOM     25  C   UNL     1       0.505   3.597  19.953  0.00  0.00    +0.000 A 
ATOM     26  C   UNL     1       1.070   3.052  21.107  0.00  0.00    +0.000 A 
ATOM     27  C   UNL     1       2.420   2.699  21.121  0.00  0.00    +0.000 A 
ATOM     28  C   UNL     1       3.192   2.895  19.972  0.00  0.00    +0.000 A 
ATOM     29  C   UNL     1       4.634   2.588  19.951  0.00  0.00    +0.000 A 
ATOM     30  O   UNL     1       5.216   2.104  20.914  0.00  0.00    +0.000 OA
ATOM     31  N   UNL     1       5.281   2.867  18.774  0.00  0.00    +0.000 N 
ATOM     32  H   UNL     1       6.267   2.650  18.730  0.00  0.00    +0.000 HD
ENDBRANCH  20  21
ENDBRANCH  18  20
ENDBRANCH  17  18
ENDBRANCH   2  17
TORSDOF 6
ENDMDL
MODEL 5
REMARK VINA RESULT:      -8.3      1.106      1.255
REMARK  Name = 
REMARK  8 active torsions:
REMARK  status: ('A' for Active; 'I' for Inactive)
REMARK    1  A    between atoms: C_1  and  C_2
REMARK    2  A    between atoms: C_5  and  C_6
REMARK    3  A    between atoms: C_8  and  N_9
REMARK    4  A    between atoms: C_10  and  C_12
REMARK    5  A    between atoms: C_12  and  N_13
REMARK    6  A    between atoms: N_13  and  C_14
REMARK    7  A    between atoms: N_13  and  C_15
REMARK    8  A    between atoms: C_15  and  C_16
REMARK                            x       y       z     vdW  Elec       q    Type
REMARK                         _______ _______ _______ _____ _____    ______ ____
ROOT
ATOM      1  N   UNL     1       3.374   7.062  17.001  0.00  0.00    +0.000 N 
ATOM      2  C   UNL     1       4.750   7.126  16.956  0.00  0.00    +0.000 C 
ATOM      3  O   UNL     1       5.480   7.725  17.744  0.00  0.00    +0.000 OA
ATOM      4  H   UNL     1       2.883   6.560  16.274  0.00  0.00    +0.000 HD
ENDROOT
BRANCH   1   7
ATOM      5  C   UNL     1       1.346   9.010  19.201  0.00  0.00    +0.000 A 
ATOM      6  C   UNL     1       1.852   8.827  17.885  0.00  0.00    +0.000 A 
ATOM      7  C   UNL     1       2.647   7.717  17.967  0.00  0.00    +0.000 A 
ATOM      8  O   UNL     1       2.648   7.268  19.250  0.00  0.00    +0.000 OA
ATOM      9  N   UNL     1       1.835   8.072  20.025  0.00  0.00    +0.000 NA
BRANCH   5  14
ATOM     10  C   UNL     1      -2.115  13.221  21.078  0.00  0.00    +0.000 C 
ATOM     11  C   UNL     1      -1.275  12.091  20.566  0.00  0.00    +0.000 A 
ATOM     12  C   UNL     1      -1.003  11.954  19.200  0.00  0.00    +0.000 A 
ATOM     13  C   UNL     1      -0.182  10.920  18.744  0.00  0.00    +0.000 A 
ATOM     14  C   UNL     1       0.391  10.017  19.652  0.00  0.00    +0.000 A 
ATOM     15  C   UNL     1       0.082  10.134  21.013  0.00  0.00    +0.000 A 
ATOM     16  C   UNL     1      -0.738  11.166  21.467  0.00  0.00    +0.000 A 
ENDBRANCH   5  14
ENDBRANCH   1   7
BRANCH   2  17
ATOM     17  C   UNL     1       5.358   6.343  15.789  0.00  0.00    +0.000 C 
BRANCH  17  18
ATOM     18  N   UNL     1       5.047   4.889  15.880  0.00  0.00    +0.000 NA
ATOM     19  C   UNL     1       5.488   4.215  14.639  0.00  0.00    +0.000 C 
BRANCH  18  20
ATOM     20  C   UNL     1       5.811   4.291  17.012  0.00  0.00    +0.000 C 
BRANCH  20  21
ATOM     21  C   UNL     1       4.877   3.867  18.139  0.00  0.00    +0.000 A 
ATOM     22  N   UNL     1       3.626   4.196  18.116  0.00  0.00    +0.000 NA
ATOM     23  C   UNL     1       2.810   3.750  19.170  0.00  0.00    +0.000 A 
ATOM     24  C   UNL     1       1.473   4.150  19.200  0.00  0.00    +0.000 A 
ATOM     25  C   UNL     1       0.619   3.708  20.215  0.00  0.00    +0.000 A 
ATOM     26  C   UNL     1       1.095   2.846  21.205  0.00  0.00    +0.000 A 
ATOM     27  C   UNL     1       2.432   2.445  21.194  0.00  0.00    +0.000 A 
ATOM     28  C   UNL     1       3.280   2.911  20.185  0.00  0.00    +0.000 A 
ATOM     29  C   UNL     1       4.712   2.559  20.158  0.00  0.00    +0.000 A 
ATOM     30  O   UNL     1       5.218   1.807  20.982  0.00  0.00    +0.000 OA
ATOM     31  N   UNL     1       5.439   3.118  19.139  0.00  0.00    +0.000 N 
ATOM     32  H   UNL     1       6.420   2.879  19.089  0.00  0.00    +0.000 HD
ENDBRANCH  20  21
ENDBRANCH  18  20
ENDBRANCH  17  18
ENDBRANCH   2  17
TORSDOF 6
ENDMDL
MODEL 6
REMARK VINA RESULT:      -8.0      1.763      4.861
REMARK  Name = 
REMARK  8 active torsions:
REMARK  status: ('A' for Active; 'I' for Inactive)
REMARK    1  A    between atoms: C_1  and  C_2
REMARK    2  A    between atoms: C_5  and  C_6
REMARK    3  A    between atoms: C_8  and  N_9
REMARK    4  A    between atoms: C_10  and  C_12
REMARK    5  A    between atoms: C_12  and  N_13
REMARK    6  A    between atoms: N_13  and  C_14
REMARK    7  A    between atoms: N_13  and  C_15
REMARK    8  A    between atoms: C_15  and  C_16
REMARK                            x       y       z     vdW  Elec       q    Type
REMARK                         _______ _______ _______ _____ _____    ______ ____
ROOT
ATOM      1  N   UNL     1       2.948   5.943  20.102  0.00  0.00    +0.000 N 
ATOM      2  C   UNL     1       2.384   4.716  19.827  0.00  0.00    +0.000 C 
ATOM      3  O   UNL     1       1.207   4.499  19.543  0.00  0.00    +0.000 OA
ATOM      4  H   UNL     1       3.926   5.988  20.352  0.00  0.00    +0.000 HD
ENDROOT
BRANCH   1   7
ATOM      5  C   UNL     1       0.930   8.859  20.522  0.00  0.00    +0.000 A 
ATOM      6  C   UNL     1       1.420   7.648  21.086  0.00  0.00    +0.000 A 
ATOM      7  C   UNL     1       2.204   7.099  20.109  0.00  0.00    +0.000 A 
ATOM      8  O   UNL     1       2.174   7.905  19.014  0.00  0.00    +0.000 OA
ATOM      9  N   UNL     1       1.381   9.006  19.268  0.00  0.00    +0.000 NA
BRANCH   5  14
ATOM     10  C   UNL     1      -2.677  12.618  22.989  0.00  0.00    +0.000 C 
ATOM     11  C   UNL     1      -1.683  11.679  22.375  0.00  0.00    +0.000 A 
ATOM     12  C   UNL     1      -1.014  10.727  23.151  0.00  0.00    +0.000 A 
ATOM     13  C   UNL     1      -0.124   9.831  22.556  0.00  0.00    +0.000 A 
ATOM     14  C   UNL     1       0.099   9.866  21.172  0.00  0.00    +0.000 A 
ATOM     15  C   UNL     1      -0.543  10.848  20.406  0.00  0.00    +0.000 A 
ATOM     16  C   UNL     1      -1.431  11.743  21.001  0.00  0.00    +0.000 A 
ENDBRANCH   5  14
ENDBRANCH   1   7
BRANCH   2  17
ATOM     17  C   UNL     1       3.385   3.558  19.892  0.00  0.00    +0.000 C 
BRANCH  17  18
ATOM     18  N   UNL     1       3.914   3.210  18.544  0.00  0.00    +0.000 NA
ATOM     19  C   UNL     1       3.268   1.967  18.070  0.00  0.00    +0.000 C 
BRANCH  18  20
ATOM     20  C   UNL     1       3.563   4.294  17.581  0.00  0.00    +0.000 C 
BRANCH  20  21
ATOM     21  C   UNL     1       4.670   4.490  16.552  0.00  0.00    +0.000 A 
ATOM     22  N   UNL     1       4.580   3.954  15.378  0.00  0.00    +0.000 NA
ATOM     23  C   UNL     1       5.618   4.196  14.463  0.00  0.00    +0.000 A 
ATOM     24  C   UNL     1       5.574   3.572  13.215  0.00  0.00    +0.000 A 
ATOM     25  C   UNL     1       6.573   3.806  12.266  0.00  0.00    +0.000 A 
ATOM     26  C   UNL     1       7.622   4.681  12.553  0.00  0.00    +0.000 A 
ATOM     27  C   UNL     1       7.686   5.305  13.799  0.00  0.00    +0.000 A 
ATOM     28  C   UNL     1       6.691   5.046  14.748  0.00  0.00    +0.000 A 
ATOM     29  C   UNL     1       6.740   5.639  16.097  0.00  0.00    +0.000 A 
ATOM     30  O   UNL     1       7.620   6.420  16.440  0.00  0.00    +0.000 OA
ATOM     31  N   UNL     1       5.726   5.269  16.943  0.00  0.00    +0.000 N 
ATOM     32  H   UNL     1       5.729   5.674  17.869  0.00  0.00    +0.000 HD
ENDBRANCH  20  21
ENDBRANCH  18  20
ENDBRANCH  17  18
ENDBRANCH   2  17
TORSDOF 6
ENDMDL
MODEL 7
REMARK VINA RESULT:      -7.8      1.599      2.363
REMARK  Name = 
REMARK  8 active torsions:
REMARK  status: ('A' for Active; 'I' for Inactive)
REMARK    1  A    between atoms: C_1  and  C_2
REMARK    2  A    between atoms: C_5  and  C_6
REMARK    3  A    between atoms: C_8  and  N_9
REMARK    4  A    between atoms: C_10  and  C_12
REMARK    5  A    between atoms: C_12  and  N_13
REMARK    6  A    between atoms: N_13  and  C_14
REMARK    7  A    between atoms: N_13  and  C_15
REMARK    8  A    between atoms: C_15  and  C_16
REMARK                            x       y       z     vdW  Elec       q    Type
REMARK                         _______ _______ _______ _____ _____    ______ ____
ROOT
ATOM      1  N   UNL     1       4.206   6.204  17.834  0.00  0.00    +0.000 N 
ATOM      2  C   UNL     1       5.369   6.714  17.297  0.00  0.00    +0.000 C 
ATOM      3  O   UNL     1       5.739   7.887  17.334  0.00  0.00    +0.000 OA
ATOM      4  H   UNL     1       3.999   5.222  17.710  0.00  0.00    +0.000 HD
ENDROOT
BRANCH   1   7
ATOM      5  C   UNL     1       1.774   8.474  19.128  0.00  0.00    +0.000 A 
ATOM      6  C   UNL     1       2.579   8.081  18.023  0.00  0.00    +0.000 A 
ATOM      7  C   UNL     1       3.290   7.004  18.474  0.00  0.00    +0.000 A 
ATOM      8  O   UNL     1       2.963   6.771  19.773  0.00  0.00    +0.000 OA
ATOM      9  N   UNL     1       2.015   7.686  20.186  0.00  0.00    +0.000 NA
BRANCH   5  14
ATOM     10  C   UNL     1      -2.455  12.386  19.342  0.00  0.00    +0.000 C 
ATOM     11  C   UNL     1      -1.308  11.424  19.282  0.00  0.00    +0.000 A 
ATOM     12  C   UNL     1      -0.489  11.205  20.395  0.00  0.00    +0.000 A 
ATOM     13  C   UNL     1       0.549  10.272  20.335  0.00  0.00    +0.000 A 
ATOM     14  C   UNL     1       0.774   9.536  19.163  0.00  0.00    +0.000 A 
ATOM     15  C   UNL     1      -0.023   9.789  18.039  0.00  0.00    +0.000 A 
ATOM     16  C   UNL     1      -1.058  10.720  18.099  0.00  0.00    +0.000 A 
ENDBRANCH   5  14
ENDBRANCH   1   7
BRANCH   2  17
ATOM     17  C   UNL     1       6.238   5.656  16.611  0.00  0.00    +0.000 C 
BRANCH  17  18
ATOM     18  N   UNL     1       5.437   4.791  15.700  0.00  0.00    +0.000 NA
ATOM     19  C   UNL     1       6.133   4.671  14.400  0.00  0.00    +0.000 C 
BRANCH  18  20
ATOM     20  C   UNL     1       5.333   3.423  16.282  0.00  0.00    +0.000 C 
BRANCH  20  21
ATOM     21  C   UNL     1       4.198   3.345  17.297  0.00  0.00    +0.000 A 
ATOM     22  N   UNL     1       4.435   3.022  18.527  0.00  0.00    +0.000 NA
ATOM     23  C   UNL     1       3.351   2.996  19.420  0.00  0.00    +0.000 A 
ATOM     24  C   UNL     1       3.573   2.585  20.736  0.00  0.00    +0.000 A 
ATOM     25  C   UNL     1       2.529   2.570  21.664  0.00  0.00    +0.000 A 
ATOM     26  C   UNL     1       1.250   2.983  21.287  0.00  0.00    +0.000 A 
ATOM     27  C   UNL     1       1.009   3.388  19.974  0.00  0.00    +0.000 A 
ATOM     28  C   UNL     1       2.058   3.378  19.049  0.00  0.00    +0.000 A 
ATOM     29  C   UNL     1       1.845   3.747  17.637  0.00  0.00    +0.000 A 
ATOM     30  O   UNL     1       0.759   4.125  17.215  0.00  0.00    +0.000 OA
ATOM     31  N   UNL     1       2.948   3.653  16.828  0.00  0.00    +0.000 N 
ATOM     32  H   UNL     1       2.831   3.916  15.860  0.00  0.00    +0.000 HD
ENDBRANCH  20  21
ENDBRANCH  18  20
ENDBRANCH  17  18
ENDBRANCH   2  17
TORSDOF 6
ENDMDL
MODEL 8
REMARK VINA RESULT:      -7.7      5.824      6.975
REMARK  Name = 
REMARK  8 active torsions:
REMARK  status: ('A' for Active; 'I' for Inactive)
REMARK    1  A    between atoms: C_1  and  C_2
REMARK    2  A    between atoms: C_5  and  C_6
REMARK    3  A    between atoms: C_8  and  N_9
REMARK    4  A    between atoms: C_10  and  C_12
REMARK    5  A    between atoms: C_12  and  N_13
REMARK    6  A    between atoms: N_13  and  C_14
REMARK    7  A    between atoms: N_13  and  C_15
REMARK    8  A    between atoms: C_15  and  C_16
REMARK                            x       y       z     vdW  Elec       q    Type
REMARK                         _______ _______ _______ _____ _____    ______ ____
ROOT
ATOM      1  N   UNL     1       8.902   8.740  18.868  0.00  0.00    +0.000 N 
ATOM      2  C   UNL     1       7.989   8.371  17.904  0.00  0.00    +0.000 C 
ATOM      3  O   UNL     1       7.336   9.128  17.188  0.00  0.00    +0.000 OA
ATOM      4  H   UNL     1       9.355   8.019  19.415  0.00  0.00    +0.000 HD
ENDROOT
BRANCH   1   7
ATOM      5  C   UNL     1       9.599  12.226  19.195  0.00  0.00    +0.000 A 
ATOM      6  C   UNL     1       9.451  11.109  18.327  0.00  0.00    +0.000 A 
ATOM      7  C   UNL     1       9.165  10.058  19.154  0.00  0.00    +0.000 A 
ATOM      8  O   UNL     1       9.165  10.497  20.440  0.00  0.00    +0.000 OA
ATOM      9  N   UNL     1       9.434  11.851  20.471  0.00  0.00    +0.000 NA
BRANCH   5  14
ATOM     10  C   UNL     1      10.422  17.623  17.344  0.00  0.00    +0.000 C 
ATOM     11  C   UNL     1      10.226  16.242  17.892  0.00  0.00    +0.000 A 
ATOM     12  C   UNL     1       9.087  15.915  18.636  0.00  0.00    +0.000 A 
ATOM     13  C   UNL     1       8.899  14.612  19.102  0.00  0.00    +0.000 A 
ATOM     14  C   UNL     1       9.843  13.614  18.819  0.00  0.00    +0.000 A 
ATOM     15  C   UNL     1      11.001  13.958  18.110  0.00  0.00    +0.000 A 
ATOM     16  C   UNL     1      11.188  15.258  17.645  0.00  0.00    +0.000 A 
ENDBRANCH   5  14
ENDBRANCH   1   7
BRANCH   2  17
ATOM     17  C   UNL     1       7.833   6.854  17.762  0.00  0.00    +0.000 C 
BRANCH  17  18
ATOM     18  N   UNL     1       6.491   6.393  18.216  0.00  0.00    +0.000 NA
ATOM     19  C   UNL     1       5.658   6.074  17.036  0.00  0.00    +0.000 C 
BRANCH  18  20
ATOM     20  C   UNL     1       6.643   5.141  19.011  0.00  0.00    +0.000 C 
BRANCH  20  21
ATOM     21  C   UNL     1       5.295   4.462  19.225  0.00  0.00    +0.000 A 
ATOM     22  N   UNL     1       4.283   5.134  19.672  0.00  0.00    +0.000 NA
ATOM     23  C   UNL     1       3.060   4.458  19.820  0.00  0.00    +0.000 A 
ATOM     24  C   UNL     1       1.973   5.146  20.364  0.00  0.00    +0.000 A 
ATOM     25  C   UNL     1       0.731   4.520  20.503  0.00  0.00    +0.000 A 
ATOM     26  C   UNL     1       0.561   3.199  20.085  0.00  0.00    +0.000 A 
ATOM     27  C   UNL     1       1.639   2.495  19.548  0.00  0.00    +0.000 A 
ATOM     28  C   UNL     1       2.882   3.127  19.433  0.00  0.00    +0.000 A 
ATOM     29  C   UNL     1       4.065   2.411  18.921  0.00  0.00    +0.000 A 
ATOM     30  O   UNL     1       4.012   1.252  18.527  0.00  0.00    +0.000 OA
ATOM     31  N   UNL     1       5.230   3.134  18.900  0.00  0.00    +0.000 N 
ATOM     32  H   UNL     1       6.052   2.670  18.538  0.00  0.00    +0.000 HD
ENDBRANCH  20  21
ENDBRANCH  18  20
ENDBRANCH  17  18
ENDBRANCH   2  17
TORSDOF 6
ENDMDL
MODEL 9
REMARK VINA RESULT:      -7.7      4.616      6.230
REMARK  Name = 
REMARK  8 active torsions:
REMARK  status: ('A' for Active; 'I' for Inactive)
REMARK    1  A    between atoms: C_1  and  C_2
REMARK    2  A    between atoms: C_5  and  C_6
REMARK    3  A    between atoms: C_8  and  N_9
REMARK    4  A    between atoms: C_10  and  C_12
REMARK    5  A    between atoms: C_12  and  N_13
REMARK    6  A    between atoms: N_13  and  C_14
REMARK    7  A    between atoms: N_13  and  C_15
REMARK    8  A    between atoms: C_15  and  C_16
REMARK                            x       y       z     vdW  Elec       q    Type
REMARK                         _______ _______ _______ _____ _____    ______ ____
ROOT
ATOM      1  N   UNL     1       7.420   7.198  17.491  0.00  0.00    +0.000 N 
ATOM      2  C   UNL     1       7.537   6.001  18.164  0.00  0.00    +0.000 C 
ATOM      3  O   UNL     1       8.154   5.807  19.210  0.00  0.00    +0.000 OA
ATOM      4  H   UNL     1       6.906   7.223  16.621  0.00  0.00    +0.000 HD
ENDROOT
BRANCH   1   7
ATOM      5  C   UNL     1       8.824  10.372  18.329  0.00  0.00    +0.000 A 
ATOM      6  C   UNL     1       8.038   9.611  17.420  0.00  0.00    +0.000 A 
ATOM      7  C   UNL     1       8.035   8.345  17.936  0.00  0.00    +0.000 A 
ATOM      8  O   UNL     1       8.790   8.326  19.066  0.00  0.00    +0.000 OA
ATOM      9  N   UNL     1       9.284   9.591  19.317  0.00  0.00    +0.000 NA
BRANCH   5  14
ATOM     10  C   UNL     1       9.616  16.080  18.457  0.00  0.00    +0.000 C 
ATOM     11  C   UNL     1       9.465  14.592  18.375  0.00  0.00    +0.000 A 
ATOM     12  C   UNL     1      10.369  13.737  19.015  0.00  0.00    +0.000 A 
ATOM     13  C   UNL     1      10.188  12.353  18.966  0.00  0.00    +0.000 A 
ATOM     14  C   UNL     1       9.091  11.806  18.285  0.00  0.00    +0.000 A 
ATOM     15  C   UNL     1       8.213  12.664  17.612  0.00  0.00    +0.000 A 
ATOM     16  C   UNL     1       8.394  14.045  17.661  0.00  0.00    +0.000 A 
ENDBRANCH   5  14
ENDBRANCH   1   7
BRANCH   2  17
ATOM     17  C   UNL     1       6.790   4.847  17.487  0.00  0.00    +0.000 C 
BRANCH  17  18
ATOM     18  N   UNL     1       6.246   5.247  16.159  0.00  0.00    +0.000 NA
ATOM     19  C   UNL     1       7.227   4.908  15.106  0.00  0.00    +0.000 C 
BRANCH  18  20
ATOM     20  C   UNL     1       5.003   4.472  15.882  0.00  0.00    +0.000 C 
BRANCH  20  21
ATOM     21  C   UNL     1       4.057   4.509  17.077  0.00  0.00    +0.000 A 
ATOM     22  N   UNL     1       3.682   3.413  17.653  0.00  0.00    +0.000 NA
ATOM     23  C   UNL     1       2.833   3.514  18.768  0.00  0.00    +0.000 A 
ATOM     24  C   UNL     1       2.362   2.343  19.364  0.00  0.00    +0.000 A 
ATOM     25  C   UNL     1       1.537   2.398  20.490  0.00  0.00    +0.000 A 
ATOM     26  C   UNL     1       1.185   3.631  21.042  0.00  0.00    +0.000 A 
ATOM     27  C   UNL     1       1.640   4.811  20.453  0.00  0.00    +0.000 A 
ATOM     28  C   UNL     1       2.448   4.743  19.313  0.00  0.00    +0.000 A 
ATOM     29  C   UNL     1       2.911   5.961  18.623  0.00  0.00    +0.000 A 
ATOM     30  O   UNL     1       2.656   7.086  19.035  0.00  0.00    +0.000 OA
ATOM     31  N   UNL     1       3.661   5.751  17.494  0.00  0.00    +0.000 N 
ATOM     32  H   UNL     1       4.003   6.571  17.012  0.00  0.00    +0.000 HD
ENDBRANCH  20  21
ENDBRANCH  18  20
ENDBRANCH  17  18
ENDBRANCH   2  17
TORSDOF 6
ENDMDL
