MODEL 1
REMARK VINA RESULT:      -9.1      0.000      0.000
REMARK  Name = 
REMARK  9 active torsions:
REMARK  status: ('A' for Active; 'I' for Inactive)
REMARK    1  A    between atoms: C_1  and  C_2
REMARK    2  A    between atoms: C_4  and  C_5
REMARK    3  A    between atoms: N_7  and  C_8
REMARK    4  A    between atoms: C_12  and  C_13
REMARK    5  A    between atoms: C_13  and  C_14
REMARK    6  A    between atoms: C_14  and  C_15
REMARK    7  A    between atoms: C_14  and  C_16
REMARK    8  A    between atoms: N_20  and  C_21
REMARK    9  A    between atoms: C_27  and  C_28
REMARK                            x       y       z     vdW  Elec       q    Type
REMARK                         _______ _______ _______ _____ _____    ______ ____
ROOT
ATOM      1  C   UNL     1       6.761   6.319  16.707  0.00  0.00    +0.000 A 
ATOM      2  C   UNL     1       7.238   5.599  15.616  0.00  0.00    +0.000 A 
ATOM      3  C   UNL     1       6.636   4.404  15.256  0.00  0.00    +0.000 A 
ATOM      4  C   UNL     1       5.554   3.924  15.989  0.00  0.00    +0.000 A 
ATOM      5  C   UNL     1       5.102   4.539  17.175  0.00  0.00    +0.000 A 
ATOM      6  C   UNL     1       5.751   5.753  17.509  0.00  0.00    +0.000 A 
ENDROOT
BRANCH   1   9
ATOM      7  C   UNL     1       8.033   7.943  18.108  0.00  0.00    +0.000 C 
ATOM      8  O   UNL     1       8.487   7.165  18.940  0.00  0.00    +0.000 OA
ATOM      9  N   UNL     1       7.223   7.619  17.026  0.00  0.00    +0.000 N 
ATOM     10  H   UNL     1       7.094   8.317  16.307  0.00  0.00    +0.000 HD
BRANCH   7  14
ATOM     11  C   UNL     1       7.524  12.823  17.021  0.00  0.00    +0.000 C 
ATOM     12  C   UNL     1       8.195  11.672  17.713  0.00  0.00    +0.000 A 
ATOM     13  C   UNL     1       7.791  10.365  17.499  0.00  0.00    +0.000 A 
ATOM     14  C   UNL     1       8.438   9.368  18.219  0.00  0.00    +0.000 A 
ATOM     15  C   UNL     1       9.441   9.706  19.134  0.00  0.00    +0.000 A 
ATOM     16  C   UNL     1       9.795  11.038  19.297  0.00  0.00    +0.000 A 
ATOM     17  N   UNL     1       9.176  12.005  18.576  0.00  0.00    +0.000 NA
BRANCH  16  18
ATOM     18  C   UNL     1      10.817  11.503  20.303  0.00  0.00    +0.000 C 
ATOM     19  C   UNL     1      11.119  12.989  20.339  0.00  0.00    +0.000 C 
ATOM     20  C   UNL     1      12.191  12.017  19.951  0.00  0.00    +0.000 C 
ENDBRANCH  16  18
ENDBRANCH   7  14
ENDBRANCH   1   9
BRANCH   5  21
ATOM     21  C   UNL     1       3.841   3.924  18.030  0.00  0.00    +0.000 C 
ATOM     22  C   UNL     1       4.269   3.582  19.521  0.00  0.00    +0.000 C 
ATOM     23  C   UNL     1       3.412   2.313  19.448  0.00  0.00    +0.000 C 
ATOM     24  C   UNL     1       3.558   2.369  17.918  0.00  0.00    +0.000 C 
BRANCH  21  25
ATOM     25  C   UNL     1       2.507   4.754  17.887  0.00  0.00    +0.000 C 
ATOM     26  C   UNL     1       1.275   3.853  17.734  0.00  0.00    +0.000 C 
BRANCH  25  27
ATOM     27  C   UNL     1       2.273   5.742  19.001  0.00  0.00    +0.000 A 
ATOM     28  N   UNL     1       1.843   5.471  20.219  0.00  0.00    +0.000 NA
ATOM     29  N   UNL     1       1.664   6.649  20.898  0.00  0.00    +0.000 NA
ATOM     30  C   UNL     1       2.005   7.623  20.092  0.00  0.00    +0.000 A 
ATOM     31  N   UNL     1       2.427   7.107  18.904  0.00  0.00    +0.000 N 
ATOM     32  C   UNL     1       2.935   7.887  17.807  0.00  0.00    +0.000 C 
ENDBRANCH  25  27
ENDBRANCH  21  25
ENDBRANCH   5  21
TORSDOF 6
ENDMDL
MODEL 2
REMARK VINA RESULT:      -8.7      1.370      2.468
REMARK  Name = 
REMARK  9 active torsions:
REMARK  status: ('A' for Active; 'I' for Inactive)
REMARK    1  A    between atoms: C_1  and  C_2
REMARK    2  A    between atoms: C_4  and  C_5
REMARK    3  A    between atoms: N_7  and  C_8
REMARK    4  A    between atoms: C_12  and  C_13
REMARK    5  A    between atoms: C_13  and  C_14
REMARK    6  A    between atoms: C_14  and  C_15
REMARK    7  A    between atoms: C_14  and  C_16
REMARK    8  A    between atoms: N_20  and  C_21
REMARK    9  A    between atoms: C_27  and  C_28
REMARK                            x       y       z     vdW  Elec       q    Type
REMARK                         _______ _______ _______ _____ _____    ______ ____
ROOT
ATOM      1  C   UNL     1       6.657   6.751  16.990  0.00  0.00    +0.000 A 
ATOM      2  C   UNL     1       7.240   5.754  16.215  0.00  0.00    +0.000 A 
ATOM      3  C   UNL     1       6.583   4.549  16.022  0.00  0.00    +0.000 A 
ATOM      4  C   UNL     1       5.338   4.338  16.607  0.00  0.00    +0.000 A 
ATOM      5  C   UNL     1       4.749   5.255  17.502  0.00  0.00    +0.000 A 
ATOM      6  C   UNL     1       5.458   6.468  17.676  0.00  0.00    +0.000 A 
ENDROOT
BRANCH   1   9
ATOM      7  C   UNL     1       8.112   8.477  18.050  0.00  0.00    +0.000 C 
ATOM      8  O   UNL     1       8.606   7.793  18.938  0.00  0.00    +0.000 OA
ATOM      9  N   UNL     1       7.196   8.056  17.092  0.00  0.00    +0.000 N 
ATOM     10  H   UNL     1       7.032   8.659  16.298  0.00  0.00    +0.000 HD
BRANCH   7  14
ATOM     11  C   UNL     1       7.349  13.390  17.317  0.00  0.00    +0.000 C 
ATOM     12  C   UNL     1       8.222  12.201  17.595  0.00  0.00    +0.000 A 
ATOM     13  C   UNL     1       7.708  10.916  17.621  0.00  0.00    +0.000 A 
ATOM     14  C   UNL     1       8.582   9.881  17.933  0.00  0.00    +0.000 A 
ATOM     15  C   UNL     1       9.921  10.163  18.227  0.00  0.00    +0.000 A 
ATOM     16  C   UNL     1      10.368  11.476  18.181  0.00  0.00    +0.000 A 
ATOM     17  N   UNL     1       9.516  12.479  17.855  0.00  0.00    +0.000 NA
BRANCH  16  18
ATOM     18  C   UNL     1      11.773  11.881  18.545  0.00  0.00    +0.000 C 
ATOM     19  C   UNL     1      12.114  11.929  20.022  0.00  0.00    +0.000 C 
ATOM     20  C   UNL     1      12.142  13.186  19.207  0.00  0.00    +0.000 C 
ENDBRANCH  16  18
ENDBRANCH   7  14
ENDBRANCH   1   9
BRANCH   5  21
ATOM     21  C   UNL     1       3.290   4.955  18.197  0.00  0.00    +0.000 C 
ATOM     22  C   UNL     1       2.678   3.585  17.677  0.00  0.00    +0.000 C 
ATOM     23  C   UNL     1       1.294   4.244  17.647  0.00  0.00    +0.000 C 
ATOM     24  C   UNL     1       2.006   5.603  17.532  0.00  0.00    +0.000 C 
BRANCH  21  25
ATOM     25  C   UNL     1       3.276   5.147  19.762  0.00  0.00    +0.000 C 
ATOM     26  C   UNL     1       2.575   6.446  20.182  0.00  0.00    +0.000 C 
BRANCH  25  27
ATOM     27  C   UNL     1       2.681   3.987  20.520  0.00  0.00    +0.000 A 
ATOM     28  N   UNL     1       1.510   3.957  21.126  0.00  0.00    +0.000 NA
ATOM     29  N   UNL     1       1.383   2.761  21.786  0.00  0.00    +0.000 NA
ATOM     30  C   UNL     1       2.472   2.069  21.559  0.00  0.00    +0.000 A 
ATOM     31  N   UNL     1       3.301   2.778  20.743  0.00  0.00    +0.000 N 
ATOM     32  C   UNL     1       4.559   2.296  20.237  0.00  0.00    +0.000 C 
ENDBRANCH  25  27
ENDBRANCH  21  25
ENDBRANCH   5  21
TORSDOF 6
ENDMDL
MODEL 3
REMARK VINA RESULT:      -8.4      4.357      8.493
REMARK  Name = 
REMARK  9 active torsions:
REMARK  status: ('A' for Active; 'I' for Inactive)
REMARK    1  A    between atoms: C_1  and  C_2
REMARK    2  A    between atoms: C_4  and  C_5
REMARK    3  A    between atoms: N_7  and  C_8
REMARK    4  A    between atoms: C_12  and  C_13
REMARK    5  A    between atoms: C_13  and  C_14
REMARK    6  A    between atoms: C_14  and  C_15
REMARK    7  A    between atoms: C_14  and  C_16
REMARK    8  A    between atoms: N_20  and  C_21
REMARK    9  A    between atoms: C_27  and  C_28
REMARK                            x       y       z     vdW  Elec       q    Type
REMARK                         _______ _______ _______ _____ _____    ______ ____
ROOT
ATOM      1  C   UNL     1       1.419   8.562  20.620  0.00  0.00    +0.000 A 
ATOM      2  C   UNL     1       1.159   8.568  21.987  0.00  0.00    +0.000 A 
ATOM      3  C   UNL     1       0.237   9.457  22.515  0.00  0.00    +0.000 A 
ATOM      4  C   UNL     1      -0.427  10.347  21.676  0.00  0.00    +0.000 A 
ATOM      5  C   UNL     1      -0.120  10.478  20.305  0.00  0.00    +0.000 A 
ATOM      6  C   UNL     1       0.832   9.555  19.810  0.00  0.00    +0.000 A 
ENDROOT
BRANCH   1   9
ATOM      7  C   UNL     1       2.052   6.202  20.122  0.00  0.00    +0.000 C 
ATOM      8  O   UNL     1       1.181   5.629  20.766  0.00  0.00    +0.000 OA
ATOM      9  N   UNL     1       2.222   7.576  19.998  0.00  0.00    +0.000 N 
ATOM     10  H   UNL     1       2.844   7.912  19.275  0.00  0.00    +0.000 HD
BRANCH   7  14
ATOM     11  C   UNL     1       3.455   1.833  18.073  0.00  0.00    +0.000 C 
ATOM     12  C   UNL     1       3.643   3.294  18.361  0.00  0.00    +0.000 A 
ATOM     13  C   UNL     1       2.756   3.993  19.162  0.00  0.00    +0.000 A 
ATOM     14  C   UNL     1       2.983   5.353  19.335  0.00  0.00    +0.000 A 
ATOM     15  C   UNL     1       4.064   5.968  18.692  0.00  0.00    +0.000 A 
ATOM     16  C   UNL     1       4.913   5.205  17.904  0.00  0.00    +0.000 A 
ATOM     17  N   UNL     1       4.699   3.874  17.757  0.00  0.00    +0.000 NA
BRANCH  16  18
ATOM     18  C   UNL     1       6.062   5.790  17.124  0.00  0.00    +0.000 C 
ATOM     19  C   UNL     1       7.384   5.936  17.852  0.00  0.00    +0.000 C 
ATOM     20  C   UNL     1       6.657   7.154  17.372  0.00  0.00    +0.000 C 
ENDBRANCH  16  18
ENDBRANCH   7  14
ENDBRANCH   1   9
BRANCH   5  21
ATOM     21  C   UNL     1      -0.907  11.562  19.353  0.00  0.00    +0.000 C 
ATOM     22  C   UNL     1      -2.451  11.211  19.236  0.00  0.00    +0.000 C 
ATOM     23  C   UNL     1      -2.403  11.606  17.755  0.00  0.00    +0.000 C 
ATOM     24  C   UNL     1      -0.891  11.322  17.787  0.00  0.00    +0.000 C 
BRANCH  21  25
ATOM     25  C   UNL     1      -0.584  13.067  19.698  0.00  0.00    +0.000 C 
ATOM     26  C   UNL     1      -1.623  13.683  20.643  0.00  0.00    +0.000 C 
BRANCH  25  27
ATOM     27  C   UNL     1       0.798  13.288  20.258  0.00  0.00    +0.000 A 
ATOM     28  N   UNL     1       1.114  13.499  21.521  0.00  0.00    +0.000 NA
ATOM     29  N   UNL     1       2.459  13.755  21.605  0.00  0.00    +0.000 NA
ATOM     30  C   UNL     1       2.950  13.679  20.393  0.00  0.00    +0.000 A 
ATOM     31  N   UNL     1       1.958  13.354  19.518  0.00  0.00    +0.000 N 
ATOM     32  C   UNL     1       2.152  13.126  18.111  0.00  0.00    +0.000 C 
ENDBRANCH  25  27
ENDBRANCH  21  25
ENDBRANCH   5  21
TORSDOF 6
ENDMDL
MODEL 4
REMARK VINA RESULT:      -8.4      4.417      8.940
REMARK  Name = 
REMARK  9 active torsions:
REMARK  status: ('A' for Active; 'I' for Inactive)
REMARK    1  A    between atoms: C_1  and  C_2
REMARK    2  A    between atoms: C_4  and  C_5
REMARK    3  A    between atoms: N_7  and  C_8
REMARK    4  A    between atoms: C_12  and  C_13
REMARK    5  A    between atoms: C_13  and  C_14
REMARK    6  A    between atoms: C_14  and  C_15
REMARK    7  A    between atoms: C_14  and  C_16
REMARK    8  A    between atoms: N_20  and  C_21
REMARK    9  A    between atoms: C_27  and  C_28
REMARK                            x       y       z     vdW  Elec       q    Type
REMARK                         _______ _______ _______ _____ _____    ______ ____
ROOT
ATOM      1  C   UNL     1       1.226   8.727  20.512  0.00  0.00    +0.000 A 
ATOM      2  C   UNL     1       1.164   8.715  21.901  0.00  0.00    +0.000 A 
ATOM      3  C   UNL     1       0.370   9.634  22.569  0.00  0.00    +0.000 A 
ATOM      4  C   UNL     1      -0.365  10.569  21.847  0.00  0.00    +0.000 A 
ATOM      5  C   UNL     1      -0.251  10.715  20.448  0.00  0.00    +0.000 A 
ATOM      6  C   UNL     1       0.577   9.761  19.808  0.00  0.00    +0.000 A 
ENDROOT
BRANCH   1   9
ATOM      7  C   UNL     1       2.461   7.890  18.513  0.00  0.00    +0.000 C 
ATOM      8  O   UNL     1       2.507   8.930  17.866  0.00  0.00    +0.000 OA
ATOM      9  N   UNL     1       1.885   7.719  19.767  0.00  0.00    +0.000 N 
ATOM     10  H   UNL     1       2.100   6.872  20.274  0.00  0.00    +0.000 HD
BRANCH   7  14
ATOM     11  C   UNL     1       6.375   5.626  16.321  0.00  0.00    +0.000 C 
ATOM     12  C   UNL     1       4.996   5.631  16.913  0.00  0.00    +0.000 A 
ATOM     13  C   UNL     1       4.408   6.801  17.364  0.00  0.00    +0.000 A 
ATOM     14  C   UNL     1       3.147   6.704  17.940  0.00  0.00    +0.000 A 
ATOM     15  C   UNL     1       2.531   5.453  18.065  0.00  0.00    +0.000 A 
ATOM     16  C   UNL     1       3.179   4.322  17.590  0.00  0.00    +0.000 A 
ATOM     17  N   UNL     1       4.400   4.426  17.009  0.00  0.00    +0.000 NA
BRANCH  16  18
ATOM     18  C   UNL     1       2.623   2.929  17.739  0.00  0.00    +0.000 C 
ATOM     19  C   UNL     1       2.446   2.407  19.151  0.00  0.00    +0.000 C 
ATOM     20  C   UNL     1       3.416   1.741  18.224  0.00  0.00    +0.000 C 
ENDBRANCH  16  18
ENDBRANCH   7  14
ENDBRANCH   1   9
BRANCH   5  21
ATOM     21  C   UNL     1      -1.113  11.854  19.634  0.00  0.00    +0.000 C 
ATOM     22  C   UNL     1      -2.673  11.574  19.735  0.00  0.00    +0.000 C 
ATOM     23  C   UNL     1      -2.817  11.997  18.268  0.00  0.00    +0.000 C 
ATOM     24  C   UNL     1      -1.331  11.646  18.079  0.00  0.00    +0.000 C 
BRANCH  21  25
ATOM     25  C   UNL     1      -0.673  13.335  19.951  0.00  0.00    +0.000 C 
ATOM     26  C   UNL     1      -1.596  14.010  20.973  0.00  0.00    +0.000 C 
BRANCH  25  27
ATOM     27  C   UNL     1       0.759  13.470  20.401  0.00  0.00    +0.000 A 
ATOM     28  N   UNL     1       1.184  13.667  21.634  0.00  0.00    +0.000 NA
ATOM     29  N   UNL     1       2.546  13.837  21.612  0.00  0.00    +0.000 NA
ATOM     30  C   UNL     1       2.936  13.723  20.367  0.00  0.00    +0.000 A 
ATOM     31  N   UNL     1       1.860  13.458  19.574  0.00  0.00    +0.000 N 
ATOM     32  C   UNL     1       1.930  13.210  18.158  0.00  0.00    +0.000 C 
ENDBRANCH  25  27
ENDBRANCH  21  25
ENDBRANCH   5  21
TORSDOF 6
ENDMDL
MODEL 5
REMARK VINA RESULT:      -8.4      5.155      8.967
REMARK  Name = 
REMARK  9 active torsions:
REMARK  status: ('A' for Active; 'I' for Inactive)
REMARK    1  A    between atoms: C_1  and  C_2
REMARK    2  A    between atoms: C_4  and  C_5
REMARK    3  A    between atoms: N_7  and  C_8
REMARK    4  A    between atoms: C_12  and  C_13
REMARK    5  A    between atoms: C_13  and  C_14
REMARK    6  A    between atoms: C_14  and  C_15
REMARK    7  A    between atoms: C_14  and  C_16
REMARK    8  A    between atoms: N_20  and  C_21
REMARK    9  A    between atoms: C_27  and  C_28
REMARK                            x       y       z     vdW  Elec       q    Type
REMARK                         _______ _______ _______ _____ _____    ______ ____
ROOT
ATOM      1  C   UNL     1       0.510   9.839  18.145  0.00  0.00    +0.000 A 
ATOM      2  C   UNL     1      -0.836   9.819  17.791  0.00  0.00    +0.000 A 
ATOM      3  C   UNL     1      -1.604  10.966  17.914  0.00  0.00    +0.000 A 
ATOM      4  C   UNL     1      -1.027  12.138  18.394  0.00  0.00    +0.000 A 
ATOM      5  C   UNL     1       0.295  12.194  18.886  0.00  0.00    +0.000 A 
ATOM      6  C   UNL     1       1.039  10.997  18.748  0.00  0.00    +0.000 A 
ENDROOT
BRANCH   1   9
ATOM      7  C   UNL     1       1.978   7.954  18.859  0.00  0.00    +0.000 C 
ATOM      8  O   UNL     1       1.830   8.044  20.073  0.00  0.00    +0.000 OA
ATOM      9  N   UNL     1       1.384   8.755  17.891  0.00  0.00    +0.000 N 
ATOM     10  H   UNL     1       1.425   8.443  16.930  0.00  0.00    +0.000 HD
BRANCH   7  14
ATOM     11  C   UNL     1       2.675   3.192  17.415  0.00  0.00    +0.000 C 
ATOM     12  C   UNL     1       3.149   4.592  17.670  0.00  0.00    +0.000 A 
ATOM     13  C   UNL     1       2.308   5.555  18.201  0.00  0.00    +0.000 A 
ATOM     14  C   UNL     1       2.820   6.838  18.360  0.00  0.00    +0.000 A 
ATOM     15  C   UNL     1       4.134   7.119  17.966  0.00  0.00    +0.000 A 
ATOM     16  C   UNL     1       4.921   6.104  17.442  0.00  0.00    +0.000 A 
ATOM     17  N   UNL     1       4.423   4.849  17.310  0.00  0.00    +0.000 NA
BRANCH  16  18
ATOM     18  C   UNL     1       6.322   6.326  16.932  0.00  0.00    +0.000 C 
ATOM     19  C   UNL     1       7.459   5.962  17.868  0.00  0.00    +0.000 C 
ATOM     20  C   UNL     1       7.261   7.387  17.450  0.00  0.00    +0.000 C 
ENDBRANCH  16  18
ENDBRANCH   7  14
ENDBRANCH   1   9
BRANCH   5  21
ATOM     21  C   UNL     1       0.930  13.590  19.474  0.00  0.00    +0.000 C 
ATOM     22  C   UNL     1      -0.018  14.827  19.166  0.00  0.00    +0.000 C 
ATOM     23  C   UNL     1       1.225  15.674  18.872  0.00  0.00    +0.000 C 
ATOM     24  C   UNL     1       1.977  14.365  18.573  0.00  0.00    +0.000 C 
BRANCH  21  25
ATOM     25  C   UNL     1       1.435  13.485  20.965  0.00  0.00    +0.000 C 
ATOM     26  C   UNL     1       2.816  14.124  21.158  0.00  0.00    +0.000 C 
BRANCH  25  27
ATOM     27  C   UNL     1       0.474  14.046  21.982  0.00  0.00    +0.000 A 
ATOM     28  N   UNL     1       0.552  15.220  22.577  0.00  0.00    +0.000 NA
ATOM     29  N   UNL     1      -0.452  15.313  23.508  0.00  0.00    +0.000 NA
ATOM     30  C   UNL     1      -1.141  14.201  23.456  0.00  0.00    +0.000 A 
ATOM     31  N   UNL     1      -0.624  13.389  22.491  0.00  0.00    +0.000 N 
ATOM     32  C   UNL     1      -1.172  12.112  22.117  0.00  0.00    +0.000 C 
ENDBRANCH  25  27
ENDBRANCH  21  25
ENDBRANCH   5  21
TORSDOF 6
ENDMDL
MODEL 6
REMARK VINA RESULT:      -8.3      4.978      9.505
REMARK  Name = 
REMARK  9 active torsions:
REMARK  status: ('A' for Active; 'I' for Inactive)
REMARK    1  A    between atoms: C_1  and  C_2
REMARK    2  A    between atoms: C_4  and  C_5
REMARK    3  A    between atoms: N_7  and  C_8
REMARK    4  A    between atoms: C_12  and  C_13
REMARK    5  A    between atoms: C_13  and  C_14
REMARK    6  A    between atoms: C_14  and  C_15
REMARK    7  A    between atoms: C_14  and  C_16
REMARK    8  A    between atoms: N_20  and  C_21
REMARK    9  A    between atoms: C_27  and  C_28
REMARK                            x       y       z     vdW  Elec       q    Type
REMARK                         _______ _______ _______ _____ _____    ______ ____
ROOT
ATOM      1  C   UNL     1       0.724   9.324  21.588  0.00  0.00    +0.000 A 
ATOM      2  C   UNL     1      -0.188   9.166  22.627  0.00  0.00    +0.000 A 
ATOM      3  C   UNL     1      -0.892  10.260  23.106  0.00  0.00    +0.000 A 
ATOM      4  C   UNL     1      -0.683  11.517  22.547  0.00  0.00    +0.000 A 
ATOM      5  C   UNL     1       0.313  11.767  21.579  0.00  0.00    +0.000 A 
ATOM      6  C   UNL     1       1.013  10.623  21.125  0.00  0.00    +0.000 A 
ENDROOT
BRANCH   1   9
ATOM      7  C   UNL     1       1.713   8.178  19.606  0.00  0.00    +0.000 C 
ATOM      8  O   UNL     1       1.567   9.069  18.777  0.00  0.00    +0.000 OA
ATOM      9  N   UNL     1       1.351   8.228  20.947  0.00  0.00    +0.000 N 
ATOM     10  H   UNL     1       1.714   7.513  21.562  0.00  0.00    +0.000 HD
BRANCH   7  14
ATOM     11  C   UNL     1       4.878   5.673  16.613  0.00  0.00    +0.000 C 
ATOM     12  C   UNL     1       3.907   5.761  17.754  0.00  0.00    +0.000 A 
ATOM     13  C   UNL     1       3.254   6.943  18.058  0.00  0.00    +0.000 A 
ATOM     14  C   UNL     1       2.408   6.943  19.161  0.00  0.00    +0.000 A 
ATOM     15  C   UNL     1       2.262   5.783  19.929  0.00  0.00    +0.000 A 
ATOM     16  C   UNL     1       2.948   4.633  19.565  0.00  0.00    +0.000 A 
ATOM     17  N   UNL     1       3.754   4.632  18.475  0.00  0.00    +0.000 NA
BRANCH  16  18
ATOM     18  C   UNL     1       2.902   3.357  20.367  0.00  0.00    +0.000 C 
ATOM     19  C   UNL     1       1.635   2.530  20.271  0.00  0.00    +0.000 C 
ATOM     20  C   UNL     1       2.032   3.140  21.580  0.00  0.00    +0.000 C 
ENDBRANCH  16  18
ENDBRANCH   7  14
ENDBRANCH   1   9
BRANCH   5  21
ATOM     21  C   UNL     1       0.549  13.273  20.966  0.00  0.00    +0.000 C 
ATOM     22  C   UNL     1       2.072  13.709  21.083  0.00  0.00    +0.000 C 
ATOM     23  C   UNL     1       1.612  15.125  21.449  0.00  0.00    +0.000 C 
ATOM     24  C   UNL     1       0.281  14.511  21.917  0.00  0.00    +0.000 C 
BRANCH  21  25
ATOM     25  C   UNL     1      -0.107  13.496  19.549  0.00  0.00    +0.000 C 
ATOM     26  C   UNL     1       0.894  13.287  18.405  0.00  0.00    +0.000 C 
BRANCH  25  27
ATOM     27  C   UNL     1      -1.336  12.659  19.301  0.00  0.00    +0.000 A 
ATOM     28  N   UNL     1      -1.428  11.608  18.509  0.00  0.00    +0.000 NA
ATOM     29  N   UNL     1      -2.735  11.190  18.477  0.00  0.00    +0.000 NA
ATOM     30  C   UNL     1      -3.420  11.982  19.265  0.00  0.00    +0.000 A 
ATOM     31  N   UNL     1      -2.584  12.896  19.832  0.00  0.00    +0.000 N 
ATOM     32  C   UNL     1      -2.986  13.882  20.800  0.00  0.00    +0.000 C 
ENDBRANCH  25  27
ENDBRANCH  21  25
ENDBRANCH   5  21
TORSDOF 6
ENDMDL
MODEL 7
REMARK VINA RESULT:      -8.3      4.911      9.073
REMARK  Name = 
REMARK  9 active torsions:
REMARK  status: ('A' for Active; 'I' for Inactive)
REMARK    1  A    between atoms: C_1  and  C_2
REMARK    2  A    between atoms: C_4  and  C_5
REMARK    3  A    between atoms: N_7  and  C_8
REMARK    4  A    between atoms: C_12  and  C_13
REMARK    5  A    between atoms: C_13  and  C_14
REMARK    6  A    between atoms: C_14  and  C_15
REMARK    7  A    between atoms: C_14  and  C_16
REMARK    8  A    between atoms: N_20  and  C_21
REMARK    9  A    between atoms: C_27  and  C_28
REMARK                            x       y       z     vdW  Elec       q    Type
REMARK                         _______ _______ _______ _____ _____    ______ ____
ROOT
ATOM      1  C   UNL     1       0.958   8.840  21.133  0.00  0.00    +0.000 A 
ATOM      2  C   UNL     1       0.564   9.008  22.456  0.00  0.00    +0.000 A 
ATOM      3  C   UNL     1      -0.225  10.090  22.815  0.00  0.00    +0.000 A 
ATOM      4  C   UNL     1      -0.621  11.009  21.848  0.00  0.00    +0.000 A 
ATOM      5  C   UNL     1      -0.156  10.966  20.517  0.00  0.00    +0.000 A 
ATOM      6  C   UNL     1       0.653   9.849  20.197  0.00  0.00    +0.000 A 
ENDROOT
BRANCH   1   9
ATOM      7  C   UNL     1       2.191   7.517  19.415  0.00  0.00    +0.000 C 
ATOM      8  O   UNL     1       2.225   8.351  18.518  0.00  0.00    +0.000 OA
ATOM      9  N   UNL     1       1.622   7.677  20.674  0.00  0.00    +0.000 N 
ATOM     10  H   UNL     1       1.845   6.993  21.384  0.00  0.00    +0.000 HD
BRANCH   7  14
ATOM     11  C   UNL     1       3.279   2.748  20.567  0.00  0.00    +0.000 C 
ATOM     12  C   UNL     1       3.392   3.973  19.707  0.00  0.00    +0.000 A 
ATOM     13  C   UNL     1       2.762   5.157  20.049  0.00  0.00    +0.000 A 
ATOM     14  C   UNL     1       2.883   6.227  19.169  0.00  0.00    +0.000 A 
ATOM     15  C   UNL     1       3.604   6.073  17.979  0.00  0.00    +0.000 A 
ATOM     16  C   UNL     1       4.210   4.856  17.701  0.00  0.00    +0.000 A 
ATOM     17  N   UNL     1       4.107   3.824  18.574  0.00  0.00    +0.000 NA
BRANCH  16  18
ATOM     18  C   UNL     1       4.950   4.578  16.418  0.00  0.00    +0.000 C 
ATOM     19  C   UNL     1       6.431   4.906  16.393  0.00  0.00    +0.000 C 
ATOM     20  C   UNL     1       5.487   5.642  15.493  0.00  0.00    +0.000 C 
ENDBRANCH  16  18
ENDBRANCH   7  14
ENDBRANCH   1   9
BRANCH   5  21
ATOM     21  C   UNL     1      -0.622  12.089  19.411  0.00  0.00    +0.000 C 
ATOM     22  C   UNL     1       0.625  12.666  18.616  0.00  0.00    +0.000 C 
ATOM     23  C   UNL     1      -0.015  14.058  18.673  0.00  0.00    +0.000 C 
ATOM     24  C   UNL     1      -0.804  13.584  19.905  0.00  0.00    +0.000 C 
BRANCH  21  25
ATOM     25  C   UNL     1      -1.840  11.637  18.516  0.00  0.00    +0.000 C 
ATOM     26  C   UNL     1      -1.813  10.133  18.215  0.00  0.00    +0.000 C 
BRANCH  25  27
ATOM     27  C   UNL     1      -3.188  12.015  19.075  0.00  0.00    +0.000 A 
ATOM     28  N   UNL     1      -3.450  12.412  20.304  0.00  0.00    +0.000 NA
ATOM     29  N   UNL     1      -4.807  12.559  20.444  0.00  0.00    +0.000 NA
ATOM     30  C   UNL     1      -5.355  12.266  19.291  0.00  0.00    +0.000 A 
ATOM     31  N   UNL     1      -4.381  11.953  18.390  0.00  0.00    +0.000 N 
ATOM     32  C   UNL     1      -4.619  11.641  17.006  0.00  0.00    +0.000 C 
ENDBRANCH  25  27
ENDBRANCH  21  25
ENDBRANCH   5  21
TORSDOF 6
ENDMDL
MODEL 8
REMARK VINA RESULT:      -8.2      5.159      9.481
REMARK  Name = 
REMARK  9 active torsions:
REMARK  status: ('A' for Active; 'I' for Inactive)
REMARK    1  A    between atoms: C_1  and  C_2
REMARK    2  A    between atoms: C_4  and  C_5
REMARK    3  A    between atoms: N_7  and  C_8
REMARK    4  A    between atoms: C_12  and  C_13
REMARK    5  A    between atoms: C_13  and  C_14
REMARK    6  A    between atoms: C_14  and  C_15
REMARK    7  A    between atoms: C_14  and  C_16
REMARK    8  A    between atoms: N_20  and  C_21
REMARK    9  A    between atoms: C_27  and  C_28
REMARK                            x       y       z     vdW  Elec       q    Type
REMARK                         _______ _______ _______ _____ _____    ______ ____
ROOT
ATOM      1  C   UNL     1       0.755   9.896  18.134  0.00  0.00    +0.000 A 
ATOM      2  C   UNL     1      -0.622   9.912  17.938  0.00  0.00    +0.000 A 
ATOM      3  C   UNL     1      -1.341  11.078  18.151  0.00  0.00    +0.000 A 
ATOM      4  C   UNL     1      -0.682  12.233  18.563  0.00  0.00    +0.000 A 
ATOM      5  C   UNL     1       0.689  12.252  18.898  0.00  0.00    +0.000 A 
ATOM      6  C   UNL     1       1.381  11.037  18.673  0.00  0.00    +0.000 A 
ENDROOT
BRANCH   1   9
ATOM      7  C   UNL     1       2.100   7.865  18.668  0.00  0.00    +0.000 C 
ATOM      8  O   UNL     1       1.945   7.846  19.884  0.00  0.00    +0.000 OA
ATOM      9  N   UNL     1       1.565   8.790  17.779  0.00  0.00    +0.000 N 
ATOM     10  H   UNL     1       1.597   8.571  16.793  0.00  0.00    +0.000 HD
BRANCH   7  14
ATOM     11  C   UNL     1       6.233   5.956  16.540  0.00  0.00    +0.000 C 
ATOM     12  C   UNL     1       4.832   5.849  17.068  0.00  0.00    +0.000 A 
ATOM     13  C   UNL     1       4.155   6.955  17.553  0.00  0.00    +0.000 A 
ATOM     14  C   UNL     1       2.879   6.753  18.065  0.00  0.00    +0.000 A 
ATOM     15  C   UNL     1       2.335   5.464  18.096  0.00  0.00    +0.000 A 
ATOM     16  C   UNL     1       3.070   4.401  17.592  0.00  0.00    +0.000 A 
ATOM     17  N   UNL     1       4.306   4.608  17.073  0.00  0.00    +0.000 NA
BRANCH  16  18
ATOM     18  C   UNL     1       2.594   2.972  17.641  0.00  0.00    +0.000 C 
ATOM     19  C   UNL     1       2.426   2.351  19.015  0.00  0.00    +0.000 C 
ATOM     20  C   UNL     1       3.447   1.802  18.066  0.00  0.00    +0.000 C 
ENDBRANCH  16  18
ENDBRANCH   7  14
ENDBRANCH   1   9
BRANCH   5  21
ATOM     21  C   UNL     1       1.424  13.629  19.410  0.00  0.00    +0.000 C 
ATOM     22  C   UNL     1       0.581  14.914  19.009  0.00  0.00    +0.000 C 
ATOM     23  C   UNL     1       1.891  15.641  18.685  0.00  0.00    +0.000 C 
ATOM     24  C   UNL     1       2.542  14.262  18.482  0.00  0.00    +0.000 C 
BRANCH  21  25
ATOM     25  C   UNL     1       1.899  13.579  20.913  0.00  0.00    +0.000 C 
ATOM     26  C   UNL     1       3.372  13.978  21.072  0.00  0.00    +0.000 C 
BRANCH  25  27
ATOM     27  C   UNL     1       1.052  14.397  21.855  0.00  0.00    +0.000 A 
ATOM     28  N   UNL     1       1.353  15.574  22.367  0.00  0.00    +0.000 NA
ATOM     29  N   UNL     1       0.371  15.936  23.254  0.00  0.00    +0.000 NA
ATOM     30  C   UNL     1      -0.526  14.982  23.259  0.00  0.00    +0.000 A 
ATOM     31  N   UNL     1      -0.165  14.012  22.373  0.00  0.00    +0.000 N 
ATOM     32  C   UNL     1      -0.950  12.844  22.074  0.00  0.00    +0.000 C 
ENDBRANCH  25  27
ENDBRANCH  21  25
ENDBRANCH   5  21
TORSDOF 6
ENDMDL
MODEL 9
REMARK VINA RESULT:      -8.2      4.812      9.188
REMARK  Name = 
REMARK  9 active torsions:
REMARK  status: ('A' for Active; 'I' for Inactive)
REMARK    1  A    between atoms: C_1  and  C_2
REMARK    2  A    between atoms: C_4  and  C_5
REMARK    3  A    between atoms: N_7  and  C_8
REMARK    4  A    between atoms: C_12  and  C_13
REMARK    5  A    between atoms: C_13  and  C_14
REMARK    6  A    between atoms: C_14  and  C_15
REMARK    7  A    between atoms: C_14  and  C_16
REMARK    8  A    between atoms: N_20  and  C_21
REMARK    9  A    between atoms: C_27  and  C_28
REMARK                            x       y       z     vdW  Elec       q    Type
REMARK                         _______ _______ _______ _____ _____    ______ ____
ROOT
ATOM      1  C   UNL     1       1.894  10.006  18.026  0.00  0.00    +0.000 A 
ATOM      2  C   UNL     1       2.689  11.126  17.800  0.00  0.00    +0.000 A 
ATOM      3  C   UNL     1       2.271  12.374  18.234  0.00  0.00    +0.000 A 
ATOM      4  C   UNL     1       1.053  12.505  18.896  0.00  0.00    +0.000 A 
ATOM      5  C   UNL     1       0.146  11.435  19.046  0.00  0.00    +0.000 A 
ATOM      6  C   UNL     1       0.611  10.181  18.581  0.00  0.00    +0.000 A 
ENDROOT
BRANCH   1   9
ATOM      7  C   UNL     1       2.469   7.674  18.697  0.00  0.00    +0.000 C 
ATOM      8  O   UNL     1       2.216   7.750  19.893  0.00  0.00    +0.000 OA
ATOM      9  N   UNL     1       2.335   8.688  17.755  0.00  0.00    +0.000 N 
ATOM     10  H   UNL     1       2.378   8.434  16.778  0.00  0.00    +0.000 HD
BRANCH   7  14
ATOM     11  C   UNL     1       5.445   4.726  15.921  0.00  0.00    +0.000 C 
ATOM     12  C   UNL     1       4.308   4.957  16.873  0.00  0.00    +0.000 A 
ATOM     13  C   UNL     1       3.933   6.234  17.254  0.00  0.00    +0.000 A 
ATOM     14  C   UNL     1       2.900   6.351  18.177  0.00  0.00    +0.000 A 
ATOM     15  C   UNL     1       2.296   5.201  18.698  0.00  0.00    +0.000 A 
ATOM     16  C   UNL     1       2.723   3.952  18.270  0.00  0.00    +0.000 A 
ATOM     17  N   UNL     1       3.717   3.845  17.353  0.00  0.00    +0.000 NA
BRANCH  16  18
ATOM     18  C   UNL     1       2.178   2.660  18.823  0.00  0.00    +0.000 C 
ATOM     19  C   UNL     1       0.671   2.493  18.819  0.00  0.00    +0.000 C 
ATOM     20  C   UNL     1       1.415   2.539  20.118  0.00  0.00    +0.000 C 
ENDBRANCH  16  18
ENDBRANCH   7  14
ENDBRANCH   1   9
BRANCH   5  21
ATOM     21  C   UNL     1      -1.297  11.638  19.806  0.00  0.00    +0.000 C 
ATOM     22  C   UNL     1      -2.466  10.895  19.028  0.00  0.00    +0.000 C 
ATOM     23  C   UNL     1      -3.387  12.083  19.330  0.00  0.00    +0.000 C 
ATOM     24  C   UNL     1      -2.125  12.950  19.485  0.00  0.00    +0.000 C 
BRANCH  21  25
ATOM     25  C   UNL     1      -1.245  11.367  21.359  0.00  0.00    +0.000 C 
ATOM     26  C   UNL     1      -0.130  10.385  21.741  0.00  0.00    +0.000 C 
BRANCH  25  27
ATOM     27  C   UNL     1      -1.125  12.614  22.198  0.00  0.00    +0.000 A 
ATOM     28  N   UNL     1      -0.076  13.409  22.285  0.00  0.00    +0.000 NA
ATOM     29  N   UNL     1      -0.328  14.373  23.230  0.00  0.00    +0.000 NA
ATOM     30  C   UNL     1      -1.535  14.163  23.693  0.00  0.00    +0.000 A 
ATOM     31  N   UNL     1      -2.091  13.096  23.054  0.00  0.00    +0.000 N 
ATOM     32  C   UNL     1      -3.432  12.622  23.268  0.00  0.00    +0.000 C 
ENDBRANCH  25  27
ENDBRANCH  21  25
ENDBRANCH   5  21
TORSDOF 6
ENDMDL
