MODEL 1
REMARK VINA RESULT:      -9.8      0.000      0.000
REMARK  Name = 
REMARK  8 active torsions:
REMARK  status: ('A' for Active; 'I' for Inactive)
REMARK    1  A    between atoms: C_1  and  C_2
REMARK    2  A    between atoms: N_5  and  C_6
REMARK    3  A    between atoms: C_10  and  C_11
REMARK    4  A    between atoms: C_11  and  C_12
REMARK    5  A    between atoms: C_11  and  C_13
REMARK    6  A    between atoms: C_11  and  C_14
REMARK    7  A    between atoms: C_14  and  C_17
REMARK    8  A    between atoms: N_21  and  C_22
REMARK                            x       y       z     vdW  Elec       q    Type
REMARK                         _______ _______ _______ _____ _____    ______ ____
ROOT
ATOM      1  C   UNL     1       2.720   6.327  19.042  0.00  0.00    +0.000 A 
ATOM      2  C   UNL     1       2.183   5.101  19.408  0.00  0.00    +0.000 A 
ATOM      3  C   UNL     1       2.837   3.909  19.063  0.00  0.00    +0.000 A 
ATOM      4  C   UNL     1       4.032   3.922  18.334  0.00  0.00    +0.000 A 
ATOM      5  C   UNL     1       4.599   5.132  17.929  0.00  0.00    +0.000 A 
ATOM      6  C   UNL     1       3.920   6.316  18.315  0.00  0.00    +0.000 A 
ENDROOT
BRANCH   1  11
ATOM      7  C   UNL     1       0.142   9.477  22.956  0.00  0.00    +0.000 C 
ATOM      8  C   UNL     1       0.337   9.942  21.543  0.00  0.00    +0.000 C 
ATOM      9  C   UNL     1       0.952   9.209  20.600  0.00  0.00    +0.000 C 
ATOM     10  C   UNL     1       1.543   7.839  20.676  0.00  0.00    +0.000 C 
ATOM     11  N   UNL     1       2.082   7.571  19.346  0.00  0.00    +0.000 N 
ATOM     12  C   UNL     1       1.899   8.650  18.469  0.00  0.00    +0.000 C 
ATOM     13  O   UNL     1       2.232   8.800  17.307  0.00  0.00    +0.000 OA
ATOM     14  C   UNL     1       1.165   9.672  19.262  0.00  0.00    +0.000 C 
ATOM     15  C   UNL     1       0.731  10.860  18.829  0.00  0.00    +0.000 C 
ATOM     16  C   UNL     1      -0.030  11.787  19.736  0.00  0.00    +0.000 C 
ATOM     17  C   UNL     1      -0.194  11.321  21.205  0.00  0.00    +0.000 C 
ENDBRANCH   1  11
BRANCH   5  18
ATOM     18  C   UNL     1       5.796   5.231  16.927  0.00  0.00    +0.000 C 
ATOM     19  C   UNL     1       5.754   6.725  16.494  0.00  0.00    +0.000 C 
ATOM     20  C   UNL     1       7.101   4.892  17.711  0.00  0.00    +0.000 C 
BRANCH  18  21
ATOM     21  C   UNL     1       5.752   4.313  15.641  0.00  0.00    +0.000 C 
ATOM     22  F   UNL     1       6.009   3.020  16.002  0.00  0.00    +0.000 F 
ATOM     23  F   UNL     1       4.492   4.298  15.117  0.00  0.00    +0.000 F 
BRANCH  21  24
ATOM     24  C   UNL     1       6.717   4.727  14.546  0.00  0.00    +0.000 A 
ATOM     25  N   UNL     1       7.752   5.545  14.666  0.00  0.00    +0.000 NA
ATOM     26  N   UNL     1       8.371   5.669  13.458  0.00  0.00    +0.000 NA
ATOM     27  C   UNL     1       7.709   4.933  12.602  0.00  0.00    +0.000 A 
ATOM     28  N   UNL     1       6.660   4.328  13.233  0.00  0.00    +0.000 N 
ATOM     29  C   UNL     1       5.712   3.463  12.585  0.00  0.00    +0.000 C 
ENDBRANCH  21  24
ENDBRANCH  18  21
ENDBRANCH   5  18
TORSDOF 4
ENDMDL
MODEL 2
REMARK VINA RESULT:      -9.8      1.926      2.842
REMARK  Name = 
REMARK  8 active torsions:
REMARK  status: ('A' for Active; 'I' for Inactive)
REMARK    1  A    between atoms: C_1  and  C_2
REMARK    2  A    between atoms: N_5  and  C_6
REMARK    3  A    between atoms: C_10  and  C_11
REMARK    4  A    between atoms: C_11  and  C_12
REMARK    5  A    between atoms: C_11  and  C_13
REMARK    6  A    between atoms: C_11  and  C_14
REMARK    7  A    between atoms: C_14  and  C_17
REMARK    8  A    between atoms: N_21  and  C_22
REMARK                            x       y       z     vdW  Elec       q    Type
REMARK                         _______ _______ _______ _____ _____    ______ ____
ROOT
ATOM      1  C   UNL     1       2.832   6.515  19.242  0.00  0.00    +0.000 A 
ATOM      2  C   UNL     1       2.693   5.357  19.993  0.00  0.00    +0.000 A 
ATOM      3  C   UNL     1       3.456   4.220  19.692  0.00  0.00    +0.000 A 
ATOM      4  C   UNL     1       4.362   4.216  18.625  0.00  0.00    +0.000 A 
ATOM      5  C   UNL     1       4.521   5.353  17.830  0.00  0.00    +0.000 A 
ATOM      6  C   UNL     1       3.748   6.490  18.180  0.00  0.00    +0.000 A 
ENDROOT
BRANCH   1  11
ATOM      7  C   UNL     1      -0.124   9.517  23.003  0.00  0.00    +0.000 C 
ATOM      8  C   UNL     1       0.042   9.946  21.575  0.00  0.00    +0.000 C 
ATOM      9  C   UNL     1       0.745   9.248  20.668  0.00  0.00    +0.000 C 
ATOM     10  C   UNL     1       1.477   7.953  20.803  0.00  0.00    +0.000 C 
ATOM     11  N   UNL     1       2.061   7.695  19.490  0.00  0.00    +0.000 N 
ATOM     12  C   UNL     1       1.777   8.714  18.570  0.00  0.00    +0.000 C 
ATOM     13  O   UNL     1       2.109   8.854  17.407  0.00  0.00    +0.000 OA
ATOM     14  C   UNL     1       0.927   9.681  19.315  0.00  0.00    +0.000 C 
ATOM     15  C   UNL     1       0.375  10.798  18.831  0.00  0.00    +0.000 C 
ATOM     16  C   UNL     1      -0.493  11.672  19.693  0.00  0.00    +0.000 C 
ATOM     17  C   UNL     1      -0.628  11.247  21.178  0.00  0.00    +0.000 C 
ENDBRANCH   1  11
BRANCH   5  18
ATOM     18  C   UNL     1       5.332   5.364  16.493  0.00  0.00    +0.000 C 
ATOM     19  C   UNL     1       4.875   4.045  15.806  0.00  0.00    +0.000 C 
ATOM     20  C   UNL     1       4.894   6.622  15.680  0.00  0.00    +0.000 C 
BRANCH  18  21
ATOM     21  C   UNL     1       6.910   5.381  16.594  0.00  0.00    +0.000 C 
ATOM     22  F   UNL     1       7.335   4.227  17.192  0.00  0.00    +0.000 F 
ATOM     23  F   UNL     1       7.460   5.364  15.345  0.00  0.00    +0.000 F 
BRANCH  21  24
ATOM     24  C   UNL     1       7.475   6.571  17.346  0.00  0.00    +0.000 A 
ATOM     25  N   UNL     1       7.666   7.793  16.871  0.00  0.00    +0.000 NA
ATOM     26  N   UNL     1       8.193   8.580  17.852  0.00  0.00    +0.000 NA
ATOM     27  C   UNL     1       8.329   7.835  18.919  0.00  0.00    +0.000 A 
ATOM     28  N   UNL     1       7.900   6.567  18.652  0.00  0.00    +0.000 N 
ATOM     29  C   UNL     1       7.927   5.484  19.597  0.00  0.00    +0.000 C 
ENDBRANCH  21  24
ENDBRANCH  18  21
ENDBRANCH   5  18
TORSDOF 4
ENDMDL
MODEL 3
REMARK VINA RESULT:      -9.7      1.932      2.803
REMARK  Name = 
REMARK  8 active torsions:
REMARK  status: ('A' for Active; 'I' for Inactive)
REMARK    1  A    between atoms: C_1  and  C_2
REMARK    2  A    between atoms: N_5  and  C_6
REMARK    3  A    between atoms: C_10  and  C_11
REMARK    4  A    between atoms: C_11  and  C_12
REMARK    5  A    between atoms: C_11  and  C_13
REMARK    6  A    between atoms: C_11  and  C_14
REMARK    7  A    between atoms: C_14  and  C_17
REMARK    8  A    between atoms: N_21  and  C_22
REMARK                            x       y       z     vdW  Elec       q    Type
REMARK                         _______ _______ _______ _____ _____    ______ ____
ROOT
ATOM      1  C   UNL     1       2.792   6.432  19.101  0.00  0.00    +0.000 A 
ATOM      2  C   UNL     1       2.604   5.250  19.802  0.00  0.00    +0.000 A 
ATOM      3  C   UNL     1       3.294   4.087  19.432  0.00  0.00    +0.000 A 
ATOM      4  C   UNL     1       4.177   4.083  18.345  0.00  0.00    +0.000 A 
ATOM      5  C   UNL     1       4.384   5.245  17.599  0.00  0.00    +0.000 A 
ATOM      6  C   UNL     1       3.684   6.406  18.018  0.00  0.00    +0.000 A 
ENDROOT
BRANCH   1  11
ATOM      7  C   UNL     1       0.070   9.405  23.057  0.00  0.00    +0.000 C 
ATOM      8  C   UNL     1       0.240   9.896  21.648  0.00  0.00    +0.000 C 
ATOM      9  C   UNL     1       0.888   9.205  20.696  0.00  0.00    +0.000 C 
ATOM     10  C   UNL     1       1.546   7.865  20.755  0.00  0.00    +0.000 C 
ATOM     11  N   UNL     1       2.095   7.640  19.421  0.00  0.00    +0.000 N 
ATOM     12  C   UNL     1       1.857   8.719  18.557  0.00  0.00    +0.000 C 
ATOM     13  O   UNL     1       2.180   8.898  17.397  0.00  0.00    +0.000 OA
ATOM     14  C   UNL     1       1.075   9.694  19.363  0.00  0.00    +0.000 C 
ATOM     15  C   UNL     1       0.583  10.864  18.945  0.00  0.00    +0.000 C 
ATOM     16  C   UNL     1      -0.221  11.742  19.864  0.00  0.00    +0.000 C 
ATOM     17  C   UNL     1      -0.359  11.251  21.328  0.00  0.00    +0.000 C 
ENDBRANCH   1  11
BRANCH   5  18
ATOM     18  C   UNL     1       5.167   5.274  16.246  0.00  0.00    +0.000 C 
ATOM     19  C   UNL     1       4.512   4.109  15.449  0.00  0.00    +0.000 C 
ATOM     20  C   UNL     1       4.903   6.656  15.572  0.00  0.00    +0.000 C 
BRANCH  18  21
ATOM     21  C   UNL     1       6.731   5.054  16.300  0.00  0.00    +0.000 C 
ATOM     22  F   UNL     1       7.015   3.755  15.986  0.00  0.00    +0.000 F 
ATOM     23  F   UNL     1       7.344   5.801  15.336  0.00  0.00    +0.000 F 
BRANCH  21  24
ATOM     24  C   UNL     1       7.363   5.395  17.637  0.00  0.00    +0.000 A 
ATOM     25  N   UNL     1       7.708   4.544  18.593  0.00  0.00    +0.000 NA
ATOM     26  N   UNL     1       8.241   5.235  19.640  0.00  0.00    +0.000 NA
ATOM     27  C   UNL     1       8.214   6.505  19.324  0.00  0.00    +0.000 A 
ATOM     28  N   UNL     1       7.667   6.658  18.083  0.00  0.00    +0.000 N 
ATOM     29  C   UNL     1       7.467   7.925  17.434  0.00  0.00    +0.000 C 
ENDBRANCH  21  24
ENDBRANCH  18  21
ENDBRANCH   5  18
TORSDOF 4
ENDMDL
MODEL 4
REMARK VINA RESULT:      -9.2      2.162      3.395
REMARK  Name = 
REMARK  8 active torsions:
REMARK  status: ('A' for Active; 'I' for Inactive)
REMARK    1  A    between atoms: C_1  and  C_2
REMARK    2  A    between atoms: N_5  and  C_6
REMARK    3  A    between atoms: C_10  and  C_11
REMARK    4  A    between atoms: C_11  and  C_12
REMARK    5  A    between atoms: C_11  and  C_13
REMARK    6  A    between atoms: C_11  and  C_14
REMARK    7  A    between atoms: C_14  and  C_17
REMARK    8  A    between atoms: N_21  and  C_22
REMARK                            x       y       z     vdW  Elec       q    Type
REMARK                         _______ _______ _______ _____ _____    ______ ____
ROOT
ATOM      1  C   UNL     1       2.804   5.653  18.418  0.00  0.00    +0.000 A 
ATOM      2  C   UNL     1       2.326   4.354  18.512  0.00  0.00    +0.000 A 
ATOM      3  C   UNL     1       2.906   3.328  17.754  0.00  0.00    +0.000 A 
ATOM      4  C   UNL     1       3.968   3.584  16.877  0.00  0.00    +0.000 A 
ATOM      5  C   UNL     1       4.470   4.880  16.736  0.00  0.00    +0.000 A 
ATOM      6  C   UNL     1       3.871   5.887  17.536  0.00  0.00    +0.000 A 
ENDROOT
BRANCH   1  11
ATOM      7  C   UNL     1       1.344  11.108  18.389  0.00  0.00    +0.000 C 
ATOM      8  C   UNL     1       1.160  10.227  19.590  0.00  0.00    +0.000 C 
ATOM      9  C   UNL     1       1.497   8.927  19.613  0.00  0.00    +0.000 C 
ATOM     10  C   UNL     1       2.114   8.071  18.556  0.00  0.00    +0.000 C 
ATOM     11  N   UNL     1       2.233   6.742  19.150  0.00  0.00    +0.000 N 
ATOM     12  C   UNL     1       1.730   6.695  20.457  0.00  0.00    +0.000 C 
ATOM     13  O   UNL     1       1.640   5.770  21.245  0.00  0.00    +0.000 OA
ATOM     14  C   UNL     1       1.287   8.084  20.752  0.00  0.00    +0.000 C 
ATOM     15  C   UNL     1       0.775   8.533  21.902  0.00  0.00    +0.000 C 
ATOM     16  C   UNL     1       0.396   9.979  22.072  0.00  0.00    +0.000 C 
ATOM     17  C   UNL     1       0.550  10.876  20.817  0.00  0.00    +0.000 C 
ENDBRANCH   1  11
BRANCH   5  18
ATOM     18  C   UNL     1       5.488   5.294  15.625  0.00  0.00    +0.000 C 
ATOM     19  C   UNL     1       5.112   4.348  14.448  0.00  0.00    +0.000 C 
ATOM     20  C   UNL     1       5.225   6.790  15.271  0.00  0.00    +0.000 C 
BRANCH  18  21
ATOM     21  C   UNL     1       7.028   5.138  15.948  0.00  0.00    +0.000 C 
ATOM     22  F   UNL     1       7.437   3.883  15.596  0.00  0.00    +0.000 F 
ATOM     23  F   UNL     1       7.759   5.988  15.169  0.00  0.00    +0.000 F 
BRANCH  21  24
ATOM     24  C   UNL     1       7.390   5.394  17.399  0.00  0.00    +0.000 A 
ATOM     25  N   UNL     1       7.525   4.488  18.356  0.00  0.00    +0.000 NA
ATOM     26  N   UNL     1       7.854   5.110  19.523  0.00  0.00    +0.000 NA
ATOM     27  C   UNL     1       7.910   6.394  19.278  0.00  0.00    +0.000 A 
ATOM     28  N   UNL     1       7.621   6.625  17.964  0.00  0.00    +0.000 N 
ATOM     29  C   UNL     1       7.574   7.927  17.359  0.00  0.00    +0.000 C 
ENDBRANCH  21  24
ENDBRANCH  18  21
ENDBRANCH   5  18
TORSDOF 4
ENDMDL
MODEL 5
REMARK VINA RESULT:      -8.9      2.249      3.818
REMARK  Name = 
REMARK  8 active torsions:
REMARK  status: ('A' for Active; 'I' for Inactive)
REMARK    1  A    between atoms: C_1  and  C_2
REMARK    2  A    between atoms: N_5  and  C_6
REMARK    3  A    between atoms: C_10  and  C_11
REMARK    4  A    between atoms: C_11  and  C_12
REMARK    5  A    between atoms: C_11  and  C_13
REMARK    6  A    between atoms: C_11  and  C_14
REMARK    7  A    between atoms: C_14  and  C_17
REMARK    8  A    between atoms: N_21  and  C_22
REMARK                            x       y       z     vdW  Elec       q    Type
REMARK                         _______ _______ _______ _____ _____    ______ ____
ROOT
ATOM      1  C   UNL     1       2.098   8.035  18.819  0.00  0.00    +0.000 A 
ATOM      2  C   UNL     1       2.943   8.553  17.848  0.00  0.00    +0.000 A 
ATOM      3  C   UNL     1       3.758   7.701  17.089  0.00  0.00    +0.000 A 
ATOM      4  C   UNL     1       3.752   6.316  17.296  0.00  0.00    +0.000 A 
ATOM      5  C   UNL     1       2.931   5.753  18.275  0.00  0.00    +0.000 A 
ATOM      6  C   UNL     1       2.105   6.645  19.007  0.00  0.00    +0.000 A 
ENDROOT
BRANCH   1  11
ATOM      7  C   UNL     1      -1.506  12.379  19.019  0.00  0.00    +0.000 C 
ATOM      8  C   UNL     1      -1.079  11.623  20.244  0.00  0.00    +0.000 C 
ATOM      9  C   UNL     1      -0.227  10.585  20.214  0.00  0.00    +0.000 C 
ATOM     10  C   UNL     1       0.490   9.958  19.064  0.00  0.00    +0.000 C 
ATOM     11  N   UNL     1       1.264   8.861  19.638  0.00  0.00    +0.000 N 
ATOM     12  C   UNL     1       1.076   8.741  21.022  0.00  0.00    +0.000 C 
ATOM     13  O   UNL     1       1.529   7.944  21.824  0.00  0.00    +0.000 OA
ATOM     14  C   UNL     1       0.150   9.847  21.383  0.00  0.00    +0.000 C 
ATOM     15  C   UNL     1      -0.286  10.159  22.608  0.00  0.00    +0.000 C 
ATOM     16  C   UNL     1      -1.201  11.331  22.833  0.00  0.00    +0.000 C 
ATOM     17  C   UNL     1      -1.671  12.083  21.562  0.00  0.00    +0.000 C 
ENDBRANCH   1  11
BRANCH   5  18
ATOM     18  C   UNL     1       3.027   4.259  18.726  0.00  0.00    +0.000 C 
ATOM     19  C   UNL     1       2.820   4.354  20.265  0.00  0.00    +0.000 C 
ATOM     20  C   UNL     1       1.868   3.477  18.033  0.00  0.00    +0.000 C 
BRANCH  18  21
ATOM     21  C   UNL     1       4.375   3.489  18.427  0.00  0.00    +0.000 C 
ATOM     22  F   UNL     1       4.408   2.337  19.162  0.00  0.00    +0.000 F 
ATOM     23  F   UNL     1       4.406   3.087  17.123  0.00  0.00    +0.000 F 
BRANCH  21  24
ATOM     24  C   UNL     1       5.629   4.295  18.706  0.00  0.00    +0.000 A 
ATOM     25  N   UNL     1       5.999   4.813  19.868  0.00  0.00    +0.000 NA
ATOM     26  N   UNL     1       7.184   5.469  19.713  0.00  0.00    +0.000 NA
ATOM     27  C   UNL     1       7.530   5.357  18.455  0.00  0.00    +0.000 A 
ATOM     28  N   UNL     1       6.586   4.637  17.782  0.00  0.00    +0.000 N 
ATOM     29  C   UNL     1       6.641   4.341  16.376  0.00  0.00    +0.000 C 
ENDBRANCH  21  24
ENDBRANCH  18  21
ENDBRANCH   5  18
TORSDOF 4
ENDMDL
MODEL 6
REMARK VINA RESULT:      -8.7      2.145      3.481
REMARK  Name = 
REMARK  8 active torsions:
REMARK  status: ('A' for Active; 'I' for Inactive)
REMARK    1  A    between atoms: C_1  and  C_2
REMARK    2  A    between atoms: N_5  and  C_6
REMARK    3  A    between atoms: C_10  and  C_11
REMARK    4  A    between atoms: C_11  and  C_12
REMARK    5  A    between atoms: C_11  and  C_13
REMARK    6  A    between atoms: C_11  and  C_14
REMARK    7  A    between atoms: C_14  and  C_17
REMARK    8  A    between atoms: N_21  and  C_22
REMARK                            x       y       z     vdW  Elec       q    Type
REMARK                         _______ _______ _______ _____ _____    ______ ____
ROOT
ATOM      1  C   UNL     1       2.117   8.024  18.744  0.00  0.00    +0.000 A 
ATOM      2  C   UNL     1       2.985   8.511  17.777  0.00  0.00    +0.000 A 
ATOM      3  C   UNL     1       3.799   7.633  17.048  0.00  0.00    +0.000 A 
ATOM      4  C   UNL     1       3.770   6.253  17.282  0.00  0.00    +0.000 A 
ATOM      5  C   UNL     1       2.926   5.720  18.258  0.00  0.00    +0.000 A 
ATOM      6  C   UNL     1       2.102   6.638  18.959  0.00  0.00    +0.000 A 
ENDROOT
BRANCH   1  11
ATOM      7  C   UNL     1       0.250   9.332  23.910  0.00  0.00    +0.000 C 
ATOM      8  C   UNL     1      -0.212  10.051  22.677  0.00  0.00    +0.000 C 
ATOM      9  C   UNL     1       0.225   9.757  21.441  0.00  0.00    +0.000 C 
ATOM     10  C   UNL     1       1.189   8.712  20.981  0.00  0.00    +0.000 C 
ATOM     11  N   UNL     1       1.282   8.877  19.533  0.00  0.00    +0.000 N 
ATOM     12  C   UNL     1       0.488   9.932  19.063  0.00  0.00    +0.000 C 
ATOM     13  O   UNL     1       0.331  10.375  17.940  0.00  0.00    +0.000 OA
ATOM     14  C   UNL     1      -0.195  10.470  20.271  0.00  0.00    +0.000 C 
ATOM     15  C   UNL     1      -1.089  11.462  20.310  0.00  0.00    +0.000 C 
ATOM     16  C   UNL     1      -1.726  11.884  21.605  0.00  0.00    +0.000 C 
ATOM     17  C   UNL     1      -1.217  11.167  22.881  0.00  0.00    +0.000 C 
ENDBRANCH   1  11
BRANCH   5  18
ATOM     18  C   UNL     1       2.994   4.234  18.740  0.00  0.00    +0.000 C 
ATOM     19  C   UNL     1       2.735   4.360  20.269  0.00  0.00    +0.000 C 
ATOM     20  C   UNL     1       1.854   3.448  18.022  0.00  0.00    +0.000 C 
BRANCH  18  21
ATOM     21  C   UNL     1       4.346   3.449  18.503  0.00  0.00    +0.000 C 
ATOM     22  F   UNL     1       4.374   2.347  19.312  0.00  0.00    +0.000 F 
ATOM     23  F   UNL     1       4.388   2.962  17.228  0.00  0.00    +0.000 F 
BRANCH  21  24
ATOM     24  C   UNL     1       5.597   4.274  18.738  0.00  0.00    +0.000 A 
ATOM     25  N   UNL     1       5.975   4.838  19.876  0.00  0.00    +0.000 NA
ATOM     26  N   UNL     1       7.153   5.496  19.683  0.00  0.00    +0.000 NA
ATOM     27  C   UNL     1       7.487   5.339  18.428  0.00  0.00    +0.000 A 
ATOM     28  N   UNL     1       6.542   4.587  17.791  0.00  0.00    +0.000 N 
ATOM     29  C   UNL     1       6.585   4.238  16.398  0.00  0.00    +0.000 C 
ENDBRANCH  21  24
ENDBRANCH  18  21
ENDBRANCH   5  18
TORSDOF 4
ENDMDL
MODEL 7
REMARK VINA RESULT:      -8.6      2.067      3.314
REMARK  Name = 
REMARK  8 active torsions:
REMARK  status: ('A' for Active; 'I' for Inactive)
REMARK    1  A    between atoms: C_1  and  C_2
REMARK    2  A    between atoms: N_5  and  C_6
REMARK    3  A    between atoms: C_10  and  C_11
REMARK    4  A    between atoms: C_11  and  C_12
REMARK    5  A    between atoms: C_11  and  C_13
REMARK    6  A    between atoms: C_11  and  C_14
REMARK    7  A    between atoms: C_14  and  C_17
REMARK    8  A    between atoms: N_21  and  C_22
REMARK                            x       y       z     vdW  Elec       q    Type
REMARK                         _______ _______ _______ _____ _____    ______ ____
ROOT
ATOM      1  C   UNL     1       2.694   5.645  18.420  0.00  0.00    +0.000 A 
ATOM      2  C   UNL     1       2.142   4.373  18.448  0.00  0.00    +0.000 A 
ATOM      3  C   UNL     1       2.693   3.343  17.673  0.00  0.00    +0.000 A 
ATOM      4  C   UNL     1       3.800   3.570  16.846  0.00  0.00    +0.000 A 
ATOM      5  C   UNL     1       4.377   4.839  16.772  0.00  0.00    +0.000 A 
ATOM      6  C   UNL     1       3.804   5.849  17.587  0.00  0.00    +0.000 A 
ENDROOT
BRANCH   1  11
ATOM      7  C   UNL     1       1.299  11.117  18.450  0.00  0.00    +0.000 C 
ATOM      8  C   UNL     1       1.137  10.234  19.652  0.00  0.00    +0.000 C 
ATOM      9  C   UNL     1       1.458   8.930  19.662  0.00  0.00    +0.000 C 
ATOM     10  C   UNL     1       2.037   8.070  18.586  0.00  0.00    +0.000 C 
ATOM     11  N   UNL     1       2.156   6.738  19.171  0.00  0.00    +0.000 N 
ATOM     12  C   UNL     1       1.688   6.691  20.492  0.00  0.00    +0.000 C 
ATOM     13  O   UNL     1       1.607   5.765  21.278  0.00  0.00    +0.000 OA
ATOM     14  C   UNL     1       1.269   8.084  20.803  0.00  0.00    +0.000 C 
ATOM     15  C   UNL     1       0.794   8.536  21.968  0.00  0.00    +0.000 C 
ATOM     16  C   UNL     1       0.437   9.985  22.153  0.00  0.00    +0.000 C 
ATOM     17  C   UNL     1       0.568  10.885  20.898  0.00  0.00    +0.000 C 
ENDBRANCH   1  11
BRANCH   5  18
ATOM     18  C   UNL     1       5.458   5.235  15.714  0.00  0.00    +0.000 C 
ATOM     19  C   UNL     1       5.199   4.217  14.566  0.00  0.00    +0.000 C 
ATOM     20  C   UNL     1       5.171   6.701  15.264  0.00  0.00    +0.000 C 
BRANCH  18  21
ATOM     21  C   UNL     1       6.975   5.153  16.152  0.00  0.00    +0.000 C 
ATOM     22  F   UNL     1       7.196   3.966  16.791  0.00  0.00    +0.000 F 
ATOM     23  F   UNL     1       7.781   5.125  15.050  0.00  0.00    +0.000 F 
BRANCH  21  24
ATOM     24  C   UNL     1       7.429   6.293  17.044  0.00  0.00    +0.000 A 
ATOM     25  N   UNL     1       7.903   7.467  16.654  0.00  0.00    +0.000 NA
ATOM     26  N   UNL     1       8.203   8.219  17.751  0.00  0.00    +0.000 NA
ATOM     27  C   UNL     1       7.919   7.500  18.807  0.00  0.00    +0.000 A 
ATOM     28  N   UNL     1       7.438   6.283  18.418  0.00  0.00    +0.000 N 
ATOM     29  C   UNL     1       7.046   5.238  19.323  0.00  0.00    +0.000 C 
ENDBRANCH  21  24
ENDBRANCH  18  21
ENDBRANCH   5  18
TORSDOF 4
ENDMDL
MODEL 8
REMARK VINA RESULT:      -8.6      2.101      3.031
REMARK  Name = 
REMARK  8 active torsions:
REMARK  status: ('A' for Active; 'I' for Inactive)
REMARK    1  A    between atoms: C_1  and  C_2
REMARK    2  A    between atoms: N_5  and  C_6
REMARK    3  A    between atoms: C_10  and  C_11
REMARK    4  A    between atoms: C_11  and  C_12
REMARK    5  A    between atoms: C_11  and  C_13
REMARK    6  A    between atoms: C_11  and  C_14
REMARK    7  A    between atoms: C_14  and  C_17
REMARK    8  A    between atoms: N_21  and  C_22
REMARK                            x       y       z     vdW  Elec       q    Type
REMARK                         _______ _______ _______ _____ _____    ______ ____
ROOT
ATOM      1  C   UNL     1       2.077   6.246  20.093  0.00  0.00    +0.000 A 
ATOM      2  C   UNL     1       1.769   5.459  21.194  0.00  0.00    +0.000 A 
ATOM      3  C   UNL     1       2.167   4.115  21.239  0.00  0.00    +0.000 A 
ATOM      4  C   UNL     1       2.869   3.530  20.178  0.00  0.00    +0.000 A 
ATOM      5  C   UNL     1       3.184   4.279  19.042  0.00  0.00    +0.000 A 
ATOM      6  C   UNL     1       2.784   5.640  19.043  0.00  0.00    +0.000 A 
ENDROOT
BRANCH   1  11
ATOM      7  C   UNL     1      -0.463  10.630  22.587  0.00  0.00    +0.000 C 
ATOM      8  C   UNL     1       0.091  10.700  21.193  0.00  0.00    +0.000 C 
ATOM      9  C   UNL     1       0.702   9.670  20.587  0.00  0.00    +0.000 C 
ATOM     10  C   UNL     1       0.962   8.281  21.071  0.00  0.00    +0.000 C 
ATOM     11  N   UNL     1       1.674   7.614  19.984  0.00  0.00    +0.000 N 
ATOM     12  C   UNL     1       1.894   8.463  18.891  0.00  0.00    +0.000 C 
ATOM     13  O   UNL     1       2.465   8.271  17.832  0.00  0.00    +0.000 OA
ATOM     14  C   UNL     1       1.259   9.754  19.269  0.00  0.00    +0.000 C 
ATOM     15  C   UNL     1       1.178  10.857  18.518  0.00  0.00    +0.000 C 
ATOM     16  C   UNL     1       0.475  12.088  19.018  0.00  0.00    +0.000 C 
ATOM     17  C   UNL     1      -0.060  12.025  20.472  0.00  0.00    +0.000 C 
ENDBRANCH   1  11
BRANCH   5  18
ATOM     18  C   UNL     1       3.757   3.653  17.729  0.00  0.00    +0.000 C 
ATOM     19  C   UNL     1       4.137   2.212  18.175  0.00  0.00    +0.000 C 
ATOM     20  C   UNL     1       2.614   3.647  16.666  0.00  0.00    +0.000 C 
BRANCH  18  21
ATOM     21  C   UNL     1       5.018   4.348  17.077  0.00  0.00    +0.000 C 
ATOM     22  F   UNL     1       5.627   3.468  16.225  0.00  0.00    +0.000 F 
ATOM     23  F   UNL     1       4.626   5.395  16.294  0.00  0.00    +0.000 F 
BRANCH  21  24
ATOM     24  C   UNL     1       6.037   4.860  18.078  0.00  0.00    +0.000 A 
ATOM     25  N   UNL     1       6.198   4.449  19.327  0.00  0.00    +0.000 NA
ATOM     26  N   UNL     1       7.213   5.152  19.906  0.00  0.00    +0.000 NA
ATOM     27  C   UNL     1       7.662   5.995  19.011  0.00  0.00    +0.000 A 
ATOM     28  N   UNL     1       6.954   5.856  17.852  0.00  0.00    +0.000 N 
ATOM     29  C   UNL     1       7.172   6.641  16.668  0.00  0.00    +0.000 C 
ENDBRANCH  21  24
ENDBRANCH  18  21
ENDBRANCH   5  18
TORSDOF 4
ENDMDL
MODEL 9
REMARK VINA RESULT:      -8.5      1.237      1.942
REMARK  Name = 
REMARK  8 active torsions:
REMARK  status: ('A' for Active; 'I' for Inactive)
REMARK    1  A    between atoms: C_1  and  C_2
REMARK    2  A    between atoms: N_5  and  C_6
REMARK    3  A    between atoms: C_10  and  C_11
REMARK    4  A    between atoms: C_11  and  C_12
REMARK    5  A    between atoms: C_11  and  C_13
REMARK    6  A    between atoms: C_11  and  C_14
REMARK    7  A    between atoms: C_14  and  C_17
REMARK    8  A    between atoms: N_21  and  C_22
REMARK                            x       y       z     vdW  Elec       q    Type
REMARK                         _______ _______ _______ _____ _____    ______ ____
ROOT
ATOM      1  C   UNL     1       2.612   5.644  18.590  0.00  0.00    +0.000 A 
ATOM      2  C   UNL     1       1.931   4.439  18.494  0.00  0.00    +0.000 A 
ATOM      3  C   UNL     1       2.493   3.360  17.797  0.00  0.00    +0.000 A 
ATOM      4  C   UNL     1       3.741   3.470  17.172  0.00  0.00    +0.000 A 
ATOM      5  C   UNL     1       4.454   4.670  17.227  0.00  0.00    +0.000 A 
ATOM      6  C   UNL     1       3.863   5.731  17.959  0.00  0.00    +0.000 A 
ENDROOT
BRANCH   1  11
ATOM      7  C   UNL     1       1.268  11.120  18.276  0.00  0.00    +0.000 C 
ATOM      8  C   UNL     1       1.082  10.311  19.526  0.00  0.00    +0.000 C 
ATOM      9  C   UNL     1       1.391   9.007  19.618  0.00  0.00    +0.000 C 
ATOM     10  C   UNL     1       1.976   8.080  18.603  0.00  0.00    +0.000 C 
ATOM     11  N   UNL     1       2.075   6.784  19.267  0.00  0.00    +0.000 N 
ATOM     12  C   UNL     1       1.589   6.820  20.582  0.00  0.00    +0.000 C 
ATOM     13  O   UNL     1       1.490   5.943  21.421  0.00  0.00    +0.000 OA
ATOM     14  C   UNL     1       1.180   8.233  20.805  0.00  0.00    +0.000 C 
ATOM     15  C   UNL     1       0.694   8.756  21.934  0.00  0.00    +0.000 C 
ATOM     16  C   UNL     1       0.348  10.217  22.028  0.00  0.00    +0.000 C 
ATOM     17  C   UNL     1       0.503  11.039  20.723  0.00  0.00    +0.000 C 
ENDBRANCH   1  11
BRANCH   5  18
ATOM     18  C   UNL     1       5.734   4.952  16.374  0.00  0.00    +0.000 C 
ATOM     19  C   UNL     1       5.614   6.474  16.074  0.00  0.00    +0.000 C 
ATOM     20  C   UNL     1       6.977   4.633  17.262  0.00  0.00    +0.000 C 
BRANCH  18  21
ATOM     21  C   UNL     1       5.897   4.162  15.015  0.00  0.00    +0.000 C 
ATOM     22  F   UNL     1       6.181   2.853  15.286  0.00  0.00    +0.000 F 
ATOM     23  F   UNL     1       4.712   4.142  14.339  0.00  0.00    +0.000 F 
BRANCH  21  24
ATOM     24  C   UNL     1       6.961   4.724  14.091  0.00  0.00    +0.000 A 
ATOM     25  N   UNL     1       7.877   5.633  14.392  0.00  0.00    +0.000 NA
ATOM     26  N   UNL     1       8.648   5.878  13.295  0.00  0.00    +0.000 NA
ATOM     27  C   UNL     1       8.197   5.123  12.325  0.00  0.00    +0.000 A 
ATOM     28  N   UNL     1       7.137   4.387  12.770  0.00  0.00    +0.000 N 
ATOM     29  C   UNL     1       6.390   3.466  11.959  0.00  0.00    +0.000 C 
ENDBRANCH  21  24
ENDBRANCH  18  21
ENDBRANCH   5  18
TORSDOF 4
ENDMDL
