MODEL 1
REMARK VINA RESULT:      -9.9      0.000      0.000
REMARK  Name = 
REMARK  9 active torsions:
REMARK  status: ('A' for Active; 'I' for Inactive)
REMARK    1  A    between atoms: C_1  and  C_2
REMARK    2  A    between atoms: C_2  and  C_3
REMARK    3  A    between atoms: C_2  and  C_4
REMARK    4  A    between atoms: C_4  and  C_5
REMARK    5  A    between atoms: C_9  and  C_10
REMARK    6  A    between atoms: N_16  and  C_17
REMARK    7  A    between atoms: C_21  and  C_22
REMARK    8  A    between atoms: C_22  and  C_23
REMARK    9  A    between atoms: N_26  and  C_27
REMARK                            x       y       z     vdW  Elec       q    Type
REMARK                         _______ _______ _______ _____ _____    ______ ____
ROOT
ATOM      1  C   UNL     1       3.961   4.725  17.574  0.00  0.00    +0.000 A 
ATOM      2  C   UNL     1       3.618   6.082  17.618  0.00  0.00    +0.000 A 
ATOM      3  C   UNL     1       2.834   6.518  18.667  0.00  0.00    +0.000 A 
ATOM      4  C   UNL     1       2.374   5.668  19.667  0.00  0.00    +0.000 A 
ATOM      5  C   UNL     1       2.684   4.311  19.645  0.00  0.00    +0.000 A 
ATOM      6  C   UNL     1       3.495   3.855  18.587  0.00  0.00    +0.000 A 
ATOM      7  C   UNL     1       1.566   6.454  20.645  0.00  0.00    +0.000 C 
ATOM      8  N   UNL     1       1.580   7.806  20.097  0.00  0.00    +0.000 N 
ATOM      9  C   UNL     1       2.336   7.874  18.929  0.00  0.00    +0.000 C 
ATOM     10  O   UNL     1       2.587   8.811  18.191  0.00  0.00    +0.000 OA
ENDROOT
BRANCH   8  11
ATOM     11  C   UNL     1       0.860   8.866  20.704  0.00  0.00    +0.000 A 
ATOM     12  C   UNL     1       0.703   8.981  22.083  0.00  0.00    +0.000 A 
ATOM     13  C   UNL     1       0.001  10.058  22.630  0.00  0.00    +0.000 A 
ATOM     14  C   UNL     1      -0.553  11.041  21.806  0.00  0.00    +0.000 A 
ATOM     15  C   UNL     1      -0.418  10.981  20.413  0.00  0.00    +0.000 A 
ATOM     16  C   UNL     1       0.288   9.865  19.904  0.00  0.00    +0.000 A 
BRANCH  15  17
ATOM     17  C   UNL     1      -1.001  12.071  19.388  0.00  0.00    +0.000 C 
ATOM     18  C   UNL     1       0.059  12.774  18.493  0.00  0.00    +0.000 C 
ATOM     19  O   UNL     1      -0.517  14.074  18.766  0.00  0.00    +0.000 OA
ATOM     20  C   UNL     1      -1.266  13.517  19.871  0.00  0.00    +0.000 C 
BRANCH  17  21
ATOM     21  C   UNL     1      -2.172  11.355  18.622  0.00  0.00    +0.000 C 
ATOM     22  N   UNL     1      -3.403  11.767  18.708  0.00  0.00    +0.000 NA
ATOM     23  C   UNL     1      -4.122  10.913  17.747  0.00  0.00    +0.000 C 
ATOM     24  N   UNL     1      -3.168  10.191  16.893  0.00  0.00    +0.000 NA
ATOM     25  C   UNL     1      -2.950  10.930  15.645  0.00  0.00    +0.000 C 
ATOM     26  C   UNL     1      -1.947  10.189  17.702  0.00  0.00    +0.000 C 
ENDBRANCH  17  21
ENDBRANCH  15  17
ENDBRANCH   8  11
BRANCH   5  27
ATOM     27  C   UNL     1       2.188   3.340  20.685  0.00  0.00    +0.000 C 
ATOM     28  F   UNL     1       0.841   3.152  20.658  0.00  0.00    +0.000 F 
ATOM     29  F   UNL     1       2.738   2.104  20.544  0.00  0.00    +0.000 F 
ATOM     30  F   UNL     1       2.484   3.742  21.954  0.00  0.00    +0.000 F 
ENDBRANCH   5  27
BRANCH   1  31
ATOM     31  C   UNL     1       4.824   4.205  16.447  0.00  0.00    +0.000 C 
BRANCH  31  33
ATOM     32  C   UNL     1       7.126   4.700  17.421  0.00  0.00    +0.000 C 
ATOM     33  C   UNL     1       6.153   4.964  16.268  0.00  0.00    +0.000 C 
ATOM     34  C   UNL     1       6.798   4.561  14.941  0.00  0.00    +0.000 C 
ENDBRANCH  31  33
ENDBRANCH   1  31
TORSDOF 6
ENDMDL
MODEL 2
REMARK VINA RESULT:      -9.7      1.594      2.563
REMARK  Name = 
REMARK  9 active torsions:
REMARK  status: ('A' for Active; 'I' for Inactive)
REMARK    1  A    between atoms: C_1  and  C_2
REMARK    2  A    between atoms: C_2  and  C_3
REMARK    3  A    between atoms: C_2  and  C_4
REMARK    4  A    between atoms: C_4  and  C_5
REMARK    5  A    between atoms: C_9  and  C_10
REMARK    6  A    between atoms: N_16  and  C_17
REMARK    7  A    between atoms: C_21  and  C_22
REMARK    8  A    between atoms: C_22  and  C_23
REMARK    9  A    between atoms: N_26  and  C_27
REMARK                            x       y       z     vdW  Elec       q    Type
REMARK                         _______ _______ _______ _____ _____    ______ ____
ROOT
ATOM      1  C   UNL     1       3.891   4.323  17.681  0.00  0.00    +0.000 A 
ATOM      2  C   UNL     1       3.637   5.700  17.662  0.00  0.00    +0.000 A 
ATOM      3  C   UNL     1       2.870   6.230  18.680  0.00  0.00    +0.000 A 
ATOM      4  C   UNL     1       2.342   5.456  19.708  0.00  0.00    +0.000 A 
ATOM      5  C   UNL     1       2.564   4.082  19.748  0.00  0.00    +0.000 A 
ATOM      6  C   UNL     1       3.357   3.530  18.723  0.00  0.00    +0.000 A 
ATOM      7  C   UNL     1       1.574   6.334  20.638  0.00  0.00    +0.000 C 
ATOM      8  N   UNL     1       1.683   7.657  20.034  0.00  0.00    +0.000 N 
ATOM      9  C   UNL     1       2.457   7.626  18.876  0.00  0.00    +0.000 C 
ATOM     10  O   UNL     1       2.778   8.512  18.104  0.00  0.00    +0.000 OA
ENDROOT
BRANCH   8  11
ATOM     11  C   UNL     1       1.025   8.786  20.584  0.00  0.00    +0.000 A 
ATOM     12  C   UNL     1       1.044   9.084  21.945  0.00  0.00    +0.000 A 
ATOM     13  C   UNL     1       0.397  10.222  22.432  0.00  0.00    +0.000 A 
ATOM     14  C   UNL     1      -0.278  11.085  21.564  0.00  0.00    +0.000 A 
ATOM     15  C   UNL     1      -0.322  10.839  20.185  0.00  0.00    +0.000 A 
ATOM     16  C   UNL     1       0.335   9.668  19.741  0.00  0.00    +0.000 A 
BRANCH  15  17
ATOM     17  C   UNL     1      -1.053  11.781  19.110  0.00  0.00    +0.000 C 
ATOM     18  C   UNL     1      -2.538  12.119  19.424  0.00  0.00    +0.000 C 
ATOM     19  O   UNL     1      -2.934  11.822  18.064  0.00  0.00    +0.000 OA
ATOM     20  C   UNL     1      -1.669  11.158  17.834  0.00  0.00    +0.000 C 
BRANCH  17  21
ATOM     21  C   UNL     1      -0.103  13.016  18.906  0.00  0.00    +0.000 C 
ATOM     22  N   UNL     1      -0.497  14.234  19.141  0.00  0.00    +0.000 NA
ATOM     23  C   UNL     1       0.725  15.035  18.954  0.00  0.00    +0.000 C 
ATOM     24  N   UNL     1       1.904  14.160  18.888  0.00  0.00    +0.000 NA
ATOM     25  C   UNL     1       2.520  14.044  20.213  0.00  0.00    +0.000 C 
ATOM     26  C   UNL     1       1.331  12.875  18.480  0.00  0.00    +0.000 C 
ENDBRANCH  17  21
ENDBRANCH  15  17
ENDBRANCH   8  11
BRANCH   5  27
ATOM     27  C   UNL     1       1.992   3.191  20.820  0.00  0.00    +0.000 C 
ATOM     28  F   UNL     1       0.649   3.329  20.987  0.00  0.00    +0.000 F 
ATOM     29  F   UNL     1       2.201   1.872  20.563  0.00  0.00    +0.000 F 
ATOM     30  F   UNL     1       2.547   3.428  22.043  0.00  0.00    +0.000 F 
ENDBRANCH   5  27
BRANCH   1  31
ATOM     31  C   UNL     1       4.734   3.701  16.592  0.00  0.00    +0.000 C 
BRANCH  31  33
ATOM     32  C   UNL     1       7.053   4.745  16.449  0.00  0.00    +0.000 C 
ATOM     33  C   UNL     1       5.645   4.697  15.850  0.00  0.00    +0.000 C 
ATOM     34  C   UNL     1       5.722   4.319  14.370  0.00  0.00    +0.000 C 
ENDBRANCH  31  33
ENDBRANCH   1  31
TORSDOF 6
ENDMDL
MODEL 3
REMARK VINA RESULT:      -9.6      1.567      2.635
REMARK  Name = 
REMARK  9 active torsions:
REMARK  status: ('A' for Active; 'I' for Inactive)
REMARK    1  A    between atoms: C_1  and  C_2
REMARK    2  A    between atoms: C_2  and  C_3
REMARK    3  A    between atoms: C_2  and  C_4
REMARK    4  A    between atoms: C_4  and  C_5
REMARK    5  A    between atoms: C_9  and  C_10
REMARK    6  A    between atoms: N_16  and  C_17
REMARK    7  A    between atoms: C_21  and  C_22
REMARK    8  A    between atoms: C_22  and  C_23
REMARK    9  A    between atoms: N_26  and  C_27
REMARK                            x       y       z     vdW  Elec       q    Type
REMARK                         _______ _______ _______ _____ _____    ______ ____
ROOT
ATOM      1  C   UNL     1       4.008   4.500  17.407  0.00  0.00    +0.000 A 
ATOM      2  C   UNL     1       3.724   5.869  17.488  0.00  0.00    +0.000 A 
ATOM      3  C   UNL     1       2.953   6.308  18.545  0.00  0.00    +0.000 A 
ATOM      4  C   UNL     1       2.449   5.450  19.518  0.00  0.00    +0.000 A 
ATOM      5  C   UNL     1       2.701   4.082  19.459  0.00  0.00    +0.000 A 
ATOM      6  C   UNL     1       3.499   3.623  18.392  0.00  0.00    +0.000 A 
ATOM      7  C   UNL     1       1.669   6.242  20.513  0.00  0.00    +0.000 C 
ATOM      8  N   UNL     1       1.745   7.607  20.005  0.00  0.00    +0.000 N 
ATOM      9  C   UNL     1       2.511   7.676  18.843  0.00  0.00    +0.000 C 
ATOM     10  O   UNL     1       2.807   8.622  18.134  0.00  0.00    +0.000 OA
ENDROOT
BRANCH   8  11
ATOM     11  C   UNL     1       1.067   8.680  20.638  0.00  0.00    +0.000 A 
ATOM     12  C   UNL     1       1.030   8.840  22.021  0.00  0.00    +0.000 A 
ATOM     13  C   UNL     1       0.365   9.927  22.593  0.00  0.00    +0.000 A 
ATOM     14  C   UNL     1      -0.272  10.876  21.789  0.00  0.00    +0.000 A 
ATOM     15  C   UNL     1      -0.260  10.770  20.392  0.00  0.00    +0.000 A 
ATOM     16  C   UNL     1       0.414   9.645  19.860  0.00  0.00    +0.000 A 
BRANCH  15  17
ATOM     17  C   UNL     1      -0.945  11.819  19.387  0.00  0.00    +0.000 C 
ATOM     18  C   UNL     1      -2.445  12.119  19.663  0.00  0.00    +0.000 C 
ATOM     19  O   UNL     1      -2.772  11.967  18.261  0.00  0.00    +0.000 OA
ATOM     20  C   UNL     1      -1.494  11.332  18.024  0.00  0.00    +0.000 C 
BRANCH  17  21
ATOM     21  C   UNL     1       0.006  13.069  19.360  0.00  0.00    +0.000 C 
ATOM     22  N   UNL     1       1.026  13.141  18.555  0.00  0.00    +0.000 NA
ATOM     23  C   UNL     1       1.539  14.506  18.766  0.00  0.00    +0.000 C 
ATOM     24  N   UNL     1       0.567  15.305  19.525  0.00  0.00    +0.000 NA
ATOM     25  C   UNL     1      -0.283  16.069  18.606  0.00  0.00    +0.000 C 
ATOM     26  C   UNL     1      -0.223  14.283  20.217  0.00  0.00    +0.000 C 
ENDBRANCH  17  21
ENDBRANCH  15  17
ENDBRANCH   8  11
BRANCH   5  27
ATOM     27  C   UNL     1       2.156   3.105  20.467  0.00  0.00    +0.000 C 
ATOM     28  F   UNL     1       2.676   3.258  21.715  0.00  0.00    +0.000 F 
ATOM     29  F   UNL     1       0.807   3.206  20.611  0.00  0.00    +0.000 F 
ATOM     30  F   UNL     1       2.400   1.808  20.118  0.00  0.00    +0.000 F 
ENDBRANCH   5  27
BRANCH   1  31
ATOM     31  C   UNL     1       4.856   3.976  16.271  0.00  0.00    +0.000 C 
BRANCH  31  33
ATOM     32  C   UNL     1       7.231   4.613  16.938  0.00  0.00    +0.000 C 
ATOM     33  C   UNL     1       6.087   4.845  15.948  0.00  0.00    +0.000 C 
ATOM     34  C   UNL     1       6.563   4.550  14.524  0.00  0.00    +0.000 C 
ENDBRANCH  31  33
ENDBRANCH   1  31
TORSDOF 6
ENDMDL
MODEL 4
REMARK VINA RESULT:      -9.3      1.376      2.492
REMARK  Name = 
REMARK  9 active torsions:
REMARK  status: ('A' for Active; 'I' for Inactive)
REMARK    1  A    between atoms: C_1  and  C_2
REMARK    2  A    between atoms: C_2  and  C_3
REMARK    3  A    between atoms: C_2  and  C_4
REMARK    4  A    between atoms: C_4  and  C_5
REMARK    5  A    between atoms: C_9  and  C_10
REMARK    6  A    between atoms: N_16  and  C_17
REMARK    7  A    between atoms: C_21  and  C_22
REMARK    8  A    between atoms: C_22  and  C_23
REMARK    9  A    between atoms: N_26  and  C_27
REMARK                            x       y       z     vdW  Elec       q    Type
REMARK                         _______ _______ _______ _____ _____    ______ ____
ROOT
ATOM      1  C   UNL     1       3.901   4.630  17.446  0.00  0.00    +0.000 A 
ATOM      2  C   UNL     1       3.605   5.993  17.572  0.00  0.00    +0.000 A 
ATOM      3  C   UNL     1       2.837   6.392  18.647  0.00  0.00    +0.000 A 
ATOM      4  C   UNL     1       2.349   5.500  19.596  0.00  0.00    +0.000 A 
ATOM      5  C   UNL     1       2.613   4.137  19.493  0.00  0.00    +0.000 A 
ATOM      6  C   UNL     1       3.407   3.718  18.407  0.00  0.00    +0.000 A 
ATOM      7  C   UNL     1       1.568   6.253  20.621  0.00  0.00    +0.000 C 
ATOM      8  N   UNL     1       1.628   7.633  20.154  0.00  0.00    +0.000 N 
ATOM      9  C   UNL     1       2.384   7.746  18.990  0.00  0.00    +0.000 C 
ATOM     10  O   UNL     1       2.666   8.716  18.309  0.00  0.00    +0.000 OA
ENDROOT
BRANCH   8  11
ATOM     11  C   UNL     1       0.944   8.679  20.825  0.00  0.00    +0.000 A 
ATOM     12  C   UNL     1       0.971   8.835  22.209  0.00  0.00    +0.000 A 
ATOM     13  C   UNL     1       0.297   9.896  22.818  0.00  0.00    +0.000 A 
ATOM     14  C   UNL     1      -0.413  10.823  22.051  0.00  0.00    +0.000 A 
ATOM     15  C   UNL     1      -0.468  10.721  20.655  0.00  0.00    +0.000 A 
ATOM     16  C   UNL     1       0.218   9.622  20.085  0.00  0.00    +0.000 A 
BRANCH  15  17
ATOM     17  C   UNL     1      -1.240  11.746  19.690  0.00  0.00    +0.000 C 
ATOM     18  C   UNL     1      -2.167  11.089  18.629  0.00  0.00    +0.000 C 
ATOM     19  O   UNL     1      -1.639  11.941  17.584  0.00  0.00    +0.000 OA
ATOM     20  C   UNL     1      -0.528  12.307  18.435  0.00  0.00    +0.000 C 
BRANCH  17  21
ATOM     21  C   UNL     1      -1.927  12.793  20.640  0.00  0.00    +0.000 C 
ATOM     22  N   UNL     1      -3.097  12.579  21.168  0.00  0.00    +0.000 NA
ATOM     23  C   UNL     1      -3.284  13.728  22.072  0.00  0.00    +0.000 C 
ATOM     24  N   UNL     1      -2.017  14.452  22.245  0.00  0.00    +0.000 NA
ATOM     25  C   UNL     1      -1.326  13.978  23.448  0.00  0.00    +0.000 C 
ATOM     26  C   UNL     1      -1.264  14.079  21.046  0.00  0.00    +0.000 C 
ENDBRANCH  17  21
ENDBRANCH  15  17
ENDBRANCH   8  11
BRANCH   5  27
ATOM     27  C   UNL     1       2.085   3.123  20.474  0.00  0.00    +0.000 C 
ATOM     28  F   UNL     1       0.883   3.460  21.016  0.00  0.00    +0.000 F 
ATOM     29  F   UNL     1       1.907   1.898  19.909  0.00  0.00    +0.000 F 
ATOM     30  F   UNL     1       2.929   2.932  21.529  0.00  0.00    +0.000 F 
ENDBRANCH   5  27
BRANCH   1  31
ATOM     31  C   UNL     1       4.746   4.150  16.289  0.00  0.00    +0.000 C 
BRANCH  31  33
ATOM     32  C   UNL     1       7.096   4.590  17.167  0.00  0.00    +0.000 C 
ATOM     33  C   UNL     1       6.058   4.933  16.095  0.00  0.00    +0.000 C 
ATOM     34  C   UNL     1       6.629   4.644  14.706  0.00  0.00    +0.000 C 
ENDBRANCH  31  33
ENDBRANCH   1  31
TORSDOF 6
ENDMDL
MODEL 5
REMARK VINA RESULT:      -9.2      1.455      2.301
REMARK  Name = 
REMARK  9 active torsions:
REMARK  status: ('A' for Active; 'I' for Inactive)
REMARK    1  A    between atoms: C_1  and  C_2
REMARK    2  A    between atoms: C_2  and  C_3
REMARK    3  A    between atoms: C_2  and  C_4
REMARK    4  A    between atoms: C_4  and  C_5
REMARK    5  A    between atoms: C_9  and  C_10
REMARK    6  A    between atoms: N_16  and  C_17
REMARK    7  A    between atoms: C_21  and  C_22
REMARK    8  A    between atoms: C_22  and  C_23
REMARK    9  A    between atoms: N_26  and  C_27
REMARK                            x       y       z     vdW  Elec       q    Type
REMARK                         _______ _______ _______ _____ _____    ______ ____
ROOT
ATOM      1  C   UNL     1       3.859   4.824  17.595  0.00  0.00    +0.000 A 
ATOM      2  C   UNL     1       3.530   6.182  17.692  0.00  0.00    +0.000 A 
ATOM      3  C   UNL     1       2.750   6.584  18.756  0.00  0.00    +0.000 A 
ATOM      4  C   UNL     1       2.280   5.701  19.723  0.00  0.00    +0.000 A 
ATOM      5  C   UNL     1       2.578   4.342  19.649  0.00  0.00    +0.000 A 
ATOM      6  C   UNL     1       3.385   3.920  18.574  0.00  0.00    +0.000 A 
ATOM      7  C   UNL     1       1.479   6.456  20.730  0.00  0.00    +0.000 C 
ATOM      8  N   UNL     1       1.507   7.827  20.235  0.00  0.00    +0.000 N 
ATOM      9  C   UNL     1       2.264   7.934  19.070  0.00  0.00    +0.000 C 
ATOM     10  O   UNL     1       2.524   8.896  18.370  0.00  0.00    +0.000 OA
ENDROOT
BRANCH   8  11
ATOM     11  C   UNL     1       0.796   8.870  20.882  0.00  0.00    +0.000 A 
ATOM     12  C   UNL     1       0.813   9.053  22.263  0.00  0.00    +0.000 A 
ATOM     13  C   UNL     1       0.111  10.110  22.848  0.00  0.00    +0.000 A 
ATOM     14  C   UNL     1      -0.616  11.006  22.060  0.00  0.00    +0.000 A 
ATOM     15  C   UNL     1      -0.660  10.876  20.666  0.00  0.00    +0.000 A 
ATOM     16  C   UNL     1       0.053   9.782  20.120  0.00  0.00    +0.000 A 
BRANCH  15  17
ATOM     17  C   UNL     1      -1.450  11.865  19.678  0.00  0.00    +0.000 C 
ATOM     18  C   UNL     1      -2.287  11.167  18.569  0.00  0.00    +0.000 C 
ATOM     19  O   UNL     1      -1.766  12.063  17.558  0.00  0.00    +0.000 OA
ATOM     20  C   UNL     1      -0.718  12.485  18.463  0.00  0.00    +0.000 C 
BRANCH  17  21
ATOM     21  C   UNL     1      -2.241  12.855  20.606  0.00  0.00    +0.000 C 
ATOM     22  N   UNL     1      -1.758  14.015  20.945  0.00  0.00    +0.000 NA
ATOM     23  C   UNL     1      -2.863  14.648  21.687  0.00  0.00    +0.000 C 
ATOM     24  N   UNL     1      -4.107  13.890  21.492  0.00  0.00    +0.000 NA
ATOM     25  C   UNL     1      -4.885  14.472  20.394  0.00  0.00    +0.000 C 
ATOM     26  C   UNL     1      -3.621  12.559  21.121  0.00  0.00    +0.000 C 
ENDBRANCH  17  21
ENDBRANCH  15  17
ENDBRANCH   8  11
BRANCH   5  27
ATOM     27  C   UNL     1       2.071   3.337  20.650  0.00  0.00    +0.000 C 
ATOM     28  F   UNL     1       2.498   3.567  21.921  0.00  0.00    +0.000 F 
ATOM     29  F   UNL     1       0.713   3.309  20.714  0.00  0.00    +0.000 F 
ATOM     30  F   UNL     1       2.460   2.064  20.350  0.00  0.00    +0.000 F 
ENDBRANCH   5  27
BRANCH   1  31
ATOM     31  C   UNL     1       4.718   4.340  16.450  0.00  0.00    +0.000 C 
BRANCH  31  33
ATOM     32  C   UNL     1       7.098   4.705  17.281  0.00  0.00    +0.000 C 
ATOM     33  C   UNL     1       6.031   5.126  16.268  0.00  0.00    +0.000 C 
ATOM     34  C   UNL     1       6.556   4.926  14.845  0.00  0.00    +0.000 C 
ENDBRANCH  31  33
ENDBRANCH   1  31
TORSDOF 6
ENDMDL
MODEL 6
REMARK VINA RESULT:      -9.1      1.842      2.954
REMARK  Name = 
REMARK  9 active torsions:
REMARK  status: ('A' for Active; 'I' for Inactive)
REMARK    1  A    between atoms: C_1  and  C_2
REMARK    2  A    between atoms: C_2  and  C_3
REMARK    3  A    between atoms: C_2  and  C_4
REMARK    4  A    between atoms: C_4  and  C_5
REMARK    5  A    between atoms: C_9  and  C_10
REMARK    6  A    between atoms: N_16  and  C_17
REMARK    7  A    between atoms: C_21  and  C_22
REMARK    8  A    between atoms: C_22  and  C_23
REMARK    9  A    between atoms: N_26  and  C_27
REMARK                            x       y       z     vdW  Elec       q    Type
REMARK                         _______ _______ _______ _____ _____    ______ ____
ROOT
ATOM      1  C   UNL     1       3.726   4.988  17.596  0.00  0.00    +0.000 A 
ATOM      2  C   UNL     1       3.382   6.339  17.725  0.00  0.00    +0.000 A 
ATOM      3  C   UNL     1       2.649   6.717  18.832  0.00  0.00    +0.000 A 
ATOM      4  C   UNL     1       2.241   5.815  19.809  0.00  0.00    +0.000 A 
ATOM      5  C   UNL     1       2.554   4.463  19.704  0.00  0.00    +0.000 A 
ATOM      6  C   UNL     1       3.313   4.066  18.585  0.00  0.00    +0.000 A 
ATOM      7  C   UNL     1       1.480   6.547  20.864  0.00  0.00    +0.000 C 
ATOM      8  N   UNL     1       1.462   7.924  20.385  0.00  0.00    +0.000 N 
ATOM      9  C   UNL     1       2.159   8.056  19.186  0.00  0.00    +0.000 C 
ATOM     10  O   UNL     1       2.371   9.030  18.486  0.00  0.00    +0.000 OA
ENDROOT
BRANCH   8  11
ATOM     11  C   UNL     1       0.769   8.948  21.080  0.00  0.00    +0.000 A 
ATOM     12  C   UNL     1       0.284   8.788  22.376  0.00  0.00    +0.000 A 
ATOM     13  C   UNL     1      -0.374   9.838  23.022  0.00  0.00    +0.000 A 
ATOM     14  C   UNL     1      -0.553  11.068  22.384  0.00  0.00    +0.000 A 
ATOM     15  C   UNL     1      -0.078  11.287  21.084  0.00  0.00    +0.000 A 
ATOM     16  C   UNL     1       0.569  10.191  20.465  0.00  0.00    +0.000 A 
BRANCH  15  17
ATOM     17  C   UNL     1      -0.218  12.669  20.278  0.00  0.00    +0.000 C 
ATOM     18  C   UNL     1      -0.877  13.835  21.069  0.00  0.00    +0.000 C 
ATOM     19  O   UNL     1      -1.735  14.160  19.950  0.00  0.00    +0.000 OA
ATOM     20  C   UNL     1      -1.424  12.889  19.333  0.00  0.00    +0.000 C 
BRANCH  17  21
ATOM     21  C   UNL     1       1.207  12.967  19.687  0.00  0.00    +0.000 C 
ATOM     22  N   UNL     1       1.455  12.879  18.413  0.00  0.00    +0.000 NA
ATOM     23  C   UNL     1       2.841  13.365  18.295  0.00  0.00    +0.000 C 
ATOM     24  N   UNL     1       3.261  14.014  19.545  0.00  0.00    +0.000 NA
ATOM     25  C   UNL     1       3.044  15.461  19.459  0.00  0.00    +0.000 C 
ATOM     26  C   UNL     1       2.359  13.422  20.536  0.00  0.00    +0.000 C 
ENDBRANCH  17  21
ENDBRANCH  15  17
ENDBRANCH   8  11
BRANCH   5  27
ATOM     27  C   UNL     1       2.113   3.438  20.716  0.00  0.00    +0.000 C 
ATOM     28  F   UNL     1       2.549   2.178  20.446  0.00  0.00    +0.000 F 
ATOM     29  F   UNL     1       2.556   3.724  21.970  0.00  0.00    +0.000 F 
ATOM     30  F   UNL     1       0.754   3.350  20.808  0.00  0.00    +0.000 F 
ENDBRANCH   5  27
BRANCH   1  31
ATOM     31  C   UNL     1       4.534   4.531  16.404  0.00  0.00    +0.000 C 
BRANCH  31  33
ATOM     32  C   UNL     1       6.828   4.720  17.496  0.00  0.00    +0.000 C 
ATOM     33  C   UNL     1       5.943   5.148  16.321  0.00  0.00    +0.000 C 
ATOM     34  C   UNL     1       6.603   4.747  15.000  0.00  0.00    +0.000 C 
ENDBRANCH  31  33
ENDBRANCH   1  31
TORSDOF 6
ENDMDL
MODEL 7
REMARK VINA RESULT:      -9.1      1.502      2.371
REMARK  Name = 
REMARK  9 active torsions:
REMARK  status: ('A' for Active; 'I' for Inactive)
REMARK    1  A    between atoms: C_1  and  C_2
REMARK    2  A    between atoms: C_2  and  C_3
REMARK    3  A    between atoms: C_2  and  C_4
REMARK    4  A    between atoms: C_4  and  C_5
REMARK    5  A    between atoms: C_9  and  C_10
REMARK    6  A    between atoms: N_16  and  C_17
REMARK    7  A    between atoms: C_21  and  C_22
REMARK    8  A    between atoms: C_22  and  C_23
REMARK    9  A    between atoms: N_26  and  C_27
REMARK                            x       y       z     vdW  Elec       q    Type
REMARK                         _______ _______ _______ _____ _____    ______ ____
ROOT
ATOM      1  C   UNL     1       3.787   5.759  17.668  0.00  0.00    +0.000 A 
ATOM      2  C   UNL     1       3.321   7.075  17.781  0.00  0.00    +0.000 A 
ATOM      3  C   UNL     1       2.522   7.388  18.862  0.00  0.00    +0.000 A 
ATOM      4  C   UNL     1       2.162   6.454  19.828  0.00  0.00    +0.000 A 
ATOM      5  C   UNL     1       2.596   5.134  19.738  0.00  0.00    +0.000 A 
ATOM      6  C   UNL     1       3.424   4.805  18.646  0.00  0.00    +0.000 A 
ATOM      7  C   UNL     1       1.305   7.116  20.855  0.00  0.00    +0.000 C 
ATOM      8  N   UNL     1       1.183   8.486  20.371  0.00  0.00    +0.000 N 
ATOM      9  C   UNL     1       1.905   8.678  19.195  0.00  0.00    +0.000 C 
ATOM     10  O   UNL     1       2.054   9.667  18.499  0.00  0.00    +0.000 OA
ENDROOT
BRANCH   8  11
ATOM     11  C   UNL     1       0.380   9.446  21.039  0.00  0.00    +0.000 A 
ATOM     12  C   UNL     1       0.017   9.329  22.378  0.00  0.00    +0.000 A 
ATOM     13  C   UNL     1      -0.758  10.315  22.993  0.00  0.00    +0.000 A 
ATOM     14  C   UNL     1      -1.181  11.438  22.279  0.00  0.00    +0.000 A 
ATOM     15  C   UNL     1      -0.838  11.613  20.931  0.00  0.00    +0.000 A 
ATOM     16  C   UNL     1      -0.064  10.582  20.348  0.00  0.00    +0.000 A 
BRANCH  15  17
ATOM     17  C   UNL     1      -1.259  12.877  20.035  0.00  0.00    +0.000 C 
ATOM     18  C   UNL     1      -0.862  12.789  18.534  0.00  0.00    +0.000 C 
ATOM     19  O   UNL     1      -0.343  14.140  18.553  0.00  0.00    +0.000 OA
ATOM     20  C   UNL     1      -0.353  14.131  20.000  0.00  0.00    +0.000 C 
BRANCH  17  21
ATOM     21  C   UNL     1      -2.786  13.116  20.323  0.00  0.00    +0.000 C 
ATOM     22  N   UNL     1      -3.710  12.363  19.801  0.00  0.00    +0.000 NA
ATOM     23  C   UNL     1      -4.950  12.848  20.433  0.00  0.00    +0.000 C 
ATOM     24  N   UNL     1      -4.633  13.725  21.569  0.00  0.00    +0.000 NA
ATOM     25  C   UNL     1      -4.631  12.954  22.816  0.00  0.00    +0.000 C 
ATOM     26  C   UNL     1      -3.279  14.187  21.255  0.00  0.00    +0.000 C 
ENDBRANCH  17  21
ENDBRANCH  15  17
ENDBRANCH   8  11
BRANCH   5  27
ATOM     27  C   UNL     1       2.212   4.075  20.738  0.00  0.00    +0.000 C 
ATOM     28  F   UNL     1       2.789   2.866  20.503  0.00  0.00    +0.000 F 
ATOM     29  F   UNL     1       2.561   4.412  22.009  0.00  0.00    +0.000 F 
ATOM     30  F   UNL     1       0.868   3.849  20.765  0.00  0.00    +0.000 F 
ENDBRANCH   5  27
BRANCH   1  31
ATOM     31  C   UNL     1       4.672   5.374  16.505  0.00  0.00    +0.000 C 
BRANCH  31  33
ATOM     32  C   UNL     1       6.898   4.402  15.739  0.00  0.00    +0.000 C 
ATOM     33  C   UNL     1       6.120   5.029  16.900  0.00  0.00    +0.000 C 
ATOM     34  C   UNL     1       6.835   6.292  17.383  0.00  0.00    +0.000 C 
ENDBRANCH  31  33
ENDBRANCH   1  31
TORSDOF 6
ENDMDL
MODEL 8
REMARK VINA RESULT:      -9.1      2.165      3.335
REMARK  Name = 
REMARK  9 active torsions:
REMARK  status: ('A' for Active; 'I' for Inactive)
REMARK    1  A    between atoms: C_1  and  C_2
REMARK    2  A    between atoms: C_2  and  C_3
REMARK    3  A    between atoms: C_2  and  C_4
REMARK    4  A    between atoms: C_4  and  C_5
REMARK    5  A    between atoms: C_9  and  C_10
REMARK    6  A    between atoms: N_16  and  C_17
REMARK    7  A    between atoms: C_21  and  C_22
REMARK    8  A    between atoms: C_22  and  C_23
REMARK    9  A    between atoms: N_26  and  C_27
REMARK                            x       y       z     vdW  Elec       q    Type
REMARK                         _______ _______ _______ _____ _____    ______ ____
ROOT
ATOM      1  C   UNL     1       3.796   4.628  17.759  0.00  0.00    +0.000 A 
ATOM      2  C   UNL     1       3.486   5.994  17.786  0.00  0.00    +0.000 A 
ATOM      3  C   UNL     1       2.734   6.466  18.842  0.00  0.00    +0.000 A 
ATOM      4  C   UNL     1       2.275   5.645  19.867  0.00  0.00    +0.000 A 
ATOM      5  C   UNL     1       2.554   4.281  19.864  0.00  0.00    +0.000 A 
ATOM      6  C   UNL     1       3.332   3.788  18.797  0.00  0.00    +0.000 A 
ATOM      7  C   UNL     1       1.506   6.467  20.847  0.00  0.00    +0.000 C 
ATOM      8  N   UNL     1       1.540   7.807  20.274  0.00  0.00    +0.000 N 
ATOM      9  C   UNL     1       2.272   7.838  19.090  0.00  0.00    +0.000 C 
ATOM     10  O   UNL     1       2.529   8.755  18.331  0.00  0.00    +0.000 OA
ENDROOT
BRANCH   8  11
ATOM     11  C   UNL     1       0.857   8.895  20.877  0.00  0.00    +0.000 A 
ATOM     12  C   UNL     1       0.162   8.779  22.078  0.00  0.00    +0.000 A 
ATOM     13  C   UNL     1      -0.476   9.888  22.639  0.00  0.00    +0.000 A 
ATOM     14  C   UNL     1      -0.426  11.134  22.009  0.00  0.00    +0.000 A 
ATOM     15  C   UNL     1       0.266  11.311  20.803  0.00  0.00    +0.000 A 
ATOM     16  C   UNL     1       0.884  10.156  20.267  0.00  0.00    +0.000 A 
BRANCH  15  17
ATOM     17  C   UNL     1       0.396  12.705  20.017  0.00  0.00    +0.000 C 
ATOM     18  C   UNL     1      -0.947  13.325  19.539  0.00  0.00    +0.000 C 
ATOM     19  O   UNL     1      -0.402  13.589  18.225  0.00  0.00    +0.000 OA
ATOM     20  C   UNL     1       0.711  12.706  18.501  0.00  0.00    +0.000 C 
BRANCH  17  21
ATOM     21  C   UNL     1       1.288  13.627  20.925  0.00  0.00    +0.000 C 
ATOM     22  N   UNL     1       2.573  13.452  21.030  0.00  0.00    +0.000 NA
ATOM     23  C   UNL     1       3.012  14.594  21.851  0.00  0.00    +0.000 C 
ATOM     24  N   UNL     1       1.936  15.590  21.956  0.00  0.00    +0.000 NA
ATOM     25  C   UNL     1       2.105  16.623  20.929  0.00  0.00    +0.000 C 
ATOM     26  C   UNL     1       0.734  14.797  21.686  0.00  0.00    +0.000 C 
ENDBRANCH  17  21
ENDBRANCH  15  17
ENDBRANCH   8  11
BRANCH   5  27
ATOM     27  C   UNL     1       2.057   3.340  20.931  0.00  0.00    +0.000 C 
ATOM     28  F   UNL     1       0.702   3.296  21.034  0.00  0.00    +0.000 F 
ATOM     29  F   UNL     1       2.456   2.057  20.717  0.00  0.00    +0.000 F 
ATOM     30  F   UNL     1       2.515   3.674  22.172  0.00  0.00    +0.000 F 
ENDBRANCH   5  27
BRANCH   1  31
ATOM     31  C   UNL     1       4.623   4.069  16.625  0.00  0.00    +0.000 C 
BRANCH  31  33
ATOM     32  C   UNL     1       6.774   5.421  16.436  0.00  0.00    +0.000 C 
ATOM     33  C   UNL     1       5.400   5.132  15.825  0.00  0.00    +0.000 C 
ATOM     34  C   UNL     1       5.562   4.667  14.377  0.00  0.00    +0.000 C 
ENDBRANCH  31  33
ENDBRANCH   1  31
TORSDOF 6
ENDMDL
MODEL 9
REMARK VINA RESULT:      -9.1      1.089      1.587
REMARK  Name = 
REMARK  9 active torsions:
REMARK  status: ('A' for Active; 'I' for Inactive)
REMARK    1  A    between atoms: C_1  and  C_2
REMARK    2  A    between atoms: C_2  and  C_3
REMARK    3  A    between atoms: C_2  and  C_4
REMARK    4  A    between atoms: C_4  and  C_5
REMARK    5  A    between atoms: C_9  and  C_10
REMARK    6  A    between atoms: N_16  and  C_17
REMARK    7  A    between atoms: C_21  and  C_22
REMARK    8  A    between atoms: C_22  and  C_23
REMARK    9  A    between atoms: N_26  and  C_27
REMARK                            x       y       z     vdW  Elec       q    Type
REMARK                         _______ _______ _______ _____ _____    ______ ____
ROOT
ATOM      1  C   UNL     1       3.874   6.039  17.553  0.00  0.00    +0.000 A 
ATOM      2  C   UNL     1       3.369   7.335  17.719  0.00  0.00    +0.000 A 
ATOM      3  C   UNL     1       2.546   7.575  18.800  0.00  0.00    +0.000 A 
ATOM      4  C   UNL     1       2.200   6.589  19.717  0.00  0.00    +0.000 A 
ATOM      5  C   UNL     1       2.672   5.287  19.573  0.00  0.00    +0.000 A 
ATOM      6  C   UNL     1       3.525   5.031  18.481  0.00  0.00    +0.000 A 
ATOM      7  C   UNL     1       1.309   7.179  20.759  0.00  0.00    +0.000 C 
ATOM      8  N   UNL     1       1.155   8.566  20.336  0.00  0.00    +0.000 N 
ATOM      9  C   UNL     1       1.888   8.831  19.182  0.00  0.00    +0.000 C 
ATOM     10  O   UNL     1       2.018   9.855  18.534  0.00  0.00    +0.000 OA
ENDROOT
BRANCH   8  11
ATOM     11  C   UNL     1       0.316   9.471  21.035  0.00  0.00    +0.000 A 
ATOM     12  C   UNL     1      -0.019   9.310  22.377  0.00  0.00    +0.000 A 
ATOM     13  C   UNL     1      -0.833  10.244  23.023  0.00  0.00    +0.000 A 
ATOM     14  C   UNL     1      -1.323  11.358  22.337  0.00  0.00    +0.000 A 
ATOM     15  C   UNL     1      -1.011  11.575  20.988  0.00  0.00    +0.000 A 
ATOM     16  C   UNL     1      -0.196  10.596  20.373  0.00  0.00    +0.000 A 
BRANCH  15  17
ATOM     17  C   UNL     1      -1.510  12.833  20.123  0.00  0.00    +0.000 C 
ATOM     18  C   UNL     1      -0.448  13.946  19.897  0.00  0.00    +0.000 C 
ATOM     19  O   UNL     1      -1.401  14.979  20.245  0.00  0.00    +0.000 OA
ATOM     20  C   UNL     1      -2.283  13.983  20.813  0.00  0.00    +0.000 C 
BRANCH  17  21
ATOM     21  C   UNL     1      -2.152  12.230  18.822  0.00  0.00    +0.000 C 
ATOM     22  N   UNL     1      -1.473  12.093  17.720  0.00  0.00    +0.000 NA
ATOM     23  C   UNL     1      -2.404  11.379  16.827  0.00  0.00    +0.000 C 
ATOM     24  N   UNL     1      -3.546  10.859  17.591  0.00  0.00    +0.000 NA
ATOM     25  C   UNL     1      -3.298   9.468  17.982  0.00  0.00    +0.000 C 
ATOM     26  C   UNL     1      -3.566  11.723  18.773  0.00  0.00    +0.000 C 
ENDBRANCH  17  21
ENDBRANCH  15  17
ENDBRANCH   8  11
BRANCH   5  27
ATOM     27  C   UNL     1       2.305   4.173  20.519  0.00  0.00    +0.000 C 
ATOM     28  F   UNL     1       3.000   3.023  20.305  0.00  0.00    +0.000 F 
ATOM     29  F   UNL     1       2.525   4.504  21.820  0.00  0.00    +0.000 F 
ATOM     30  F   UNL     1       0.987   3.834  20.435  0.00  0.00    +0.000 F 
ENDBRANCH   5  27
BRANCH   1  31
ATOM     31  C   UNL     1       4.785   5.732  16.387  0.00  0.00    +0.000 C 
BRANCH  31  33
ATOM     32  C   UNL     1       5.986   3.790  15.257  0.00  0.00    +0.000 C 
ATOM     33  C   UNL     1       5.666   4.484  16.584  0.00  0.00    +0.000 C 
ATOM     34  C   UNL     1       6.964   4.878  17.291  0.00  0.00    +0.000 C 
ENDBRANCH  31  33
ENDBRANCH   1  31
TORSDOF 6
ENDMDL
