MODEL 1
REMARK VINA RESULT:      -8.5      0.000      0.000
REMARK  Name = 
REMARK  5 active torsions:
REMARK  status: ('A' for Active; 'I' for Inactive)
REMARK    1  A    between atoms: C_1  and  C_2
REMARK    2  A    between atoms: C_4  and  S_5
REMARK    3  A    between atoms: S_5  and  C_6
REMARK    4  A    between atoms: C_6  and  C_7
REMARK    5  A    between atoms: N_9  and  C_10
REMARK                            x       y       z     vdW  Elec       q    Type
REMARK                         _______ _______ _______ _____ _____    ______ ____
ROOT
ATOM      1  C   UNL     1       8.042   8.091  17.988  0.00  0.00    +0.000 C 
ATOM      2  O   UNL     1       8.570   7.419  18.841  0.00  0.00    +0.000 OA
ATOM      3  N   UNL     1       8.268   9.452  17.877  0.00  0.00    +0.000 N 
ATOM      4  H   UNL     1       7.535   9.968  17.408  0.00  0.00    +0.000 HD
ENDROOT
BRANCH   3   5
ATOM      5  C   UNL     1       9.131  10.204  18.739  0.00  0.00    +0.000 A 
ATOM      6  C   UNL     1       9.176  10.422  20.084  0.00  0.00    +0.000 A 
ATOM      7  C   UNL     1      10.210  11.504  20.630  0.00  0.00    +0.000 A 
ATOM      8  C   UNL     1      11.155  12.459  19.962  0.00  0.00    +0.000 A 
ATOM      9  C   UNL     1      10.556  12.181  18.772  0.00  0.00    +0.000 A 
ATOM     10  C   UNL     1      10.008  11.031  18.119  0.00  0.00    +0.000 A 
ATOM     11  O   UNL     1       9.671  13.286  18.466  0.00  0.00    +0.000 OA
ATOM     12  C   UNL     1      10.420  14.000  17.531  0.00  0.00    +0.000 C 
ATOM     13  C   UNL     1      11.361  15.171  18.412  0.00  0.00    +0.000 C 
ATOM     14  C   UNL     1      12.333  14.215  17.829  0.00  0.00    +0.000 C 
ATOM     15  O   UNL     1      12.062  13.376  19.285  0.00  0.00    +0.000 OA
ENDBRANCH   3   5
BRANCH   1  16
ATOM     16  C   UNL     1       6.980   7.539  16.943  0.00  0.00    +0.000 C 
BRANCH  16  17
ATOM     17  S   UNL     1       6.353   5.944  17.589  0.00  0.00    +0.000 S 
BRANCH  17  21
ATOM     18  C   UNL     1       2.017   8.594  18.339  0.00  0.00    +0.000 C 
ATOM     19  C   UNL     1       2.683   7.281  18.016  0.00  0.00    +0.000 A 
ATOM     20  N   UNL     1       4.023   7.257  17.907  0.00  0.00    +0.000 NA
ATOM     21  C   UNL     1       4.551   6.045  17.757  0.00  0.00    +0.000 A 
ATOM     22  C   UNL     1       3.824   4.847  17.761  0.00  0.00    +0.000 A 
ATOM     23  C   UNL     1       4.423   3.569  17.606  0.00  0.00    +0.000 A 
ATOM     24  C   UNL     1       3.682   2.434  17.844  0.00  0.00    +0.000 A 
ATOM     25  C   UNL     1       2.306   2.552  17.886  0.00  0.00    +0.000 A 
ATOM     26  C   UNL     1       1.706   3.819  17.862  0.00  0.00    +0.000 A 
ATOM     27  C   UNL     1       2.454   4.999  17.875  0.00  0.00    +0.000 A 
ATOM     28  N   UNL     1       1.879   6.186  17.965  0.00  0.00    +0.000 NA
ENDBRANCH  17  21
ENDBRANCH  16  17
ENDBRANCH   1  16
TORSDOF 4
ENDMDL
MODEL 2
REMARK VINA RESULT:      -8.4      2.850     10.127
REMARK  Name = 
REMARK  5 active torsions:
REMARK  status: ('A' for Active; 'I' for Inactive)
REMARK    1  A    between atoms: C_1  and  C_2
REMARK    2  A    between atoms: C_4  and  S_5
REMARK    3  A    between atoms: S_5  and  C_6
REMARK    4  A    between atoms: C_6  and  C_7
REMARK    5  A    between atoms: N_9  and  C_10
REMARK                            x       y       z     vdW  Elec       q    Type
REMARK                         _______ _______ _______ _____ _____    ______ ____
ROOT
ATOM      1  C   UNL     1       7.830   7.867  17.966  0.00  0.00    +0.000 C 
ATOM      2  O   UNL     1       7.154   8.292  17.060  0.00  0.00    +0.000 OA
ATOM      3  N   UNL     1       7.811   6.534  18.339  0.00  0.00    +0.000 N 
ATOM      4  H   UNL     1       8.098   6.354  19.293  0.00  0.00    +0.000 HD
ENDROOT
BRANCH   3   5
ATOM      5  C   UNL     1       7.007   5.528  17.710  0.00  0.00    +0.000 A 
ATOM      6  C   UNL     1       6.981   4.973  16.465  0.00  0.00    +0.000 A 
ATOM      7  C   UNL     1       5.774   3.997  16.109  0.00  0.00    +0.000 A 
ATOM      8  C   UNL     1       4.535   3.576  16.843  0.00  0.00    +0.000 A 
ATOM      9  C   UNL     1       4.773   4.555  17.757  0.00  0.00    +0.000 A 
ATOM     10  C   UNL     1       5.914   5.128  18.405  0.00  0.00    +0.000 A 
ATOM     11  O   UNL     1       3.879   5.654  17.455  0.00  0.00    +0.000 OA
ATOM     12  C   UNL     1       2.880   5.480  18.411  0.00  0.00    +0.000 C 
ATOM     13  C   UNL     1       1.658   4.464  17.699  0.00  0.00    +0.000 C 
ATOM     14  C   UNL     1       2.259   3.674  18.800  0.00  0.00    +0.000 C 
ATOM     15  O   UNL     1       3.340   3.187  17.579  0.00  0.00    +0.000 OA
ENDBRANCH   3   5
BRANCH   1  16
ATOM     16  C   UNL     1       8.760   8.768  18.888  0.00  0.00    +0.000 C 
BRANCH  16  17
ATOM     17  S   UNL     1       8.956  10.386  18.054  0.00  0.00    +0.000 S 
BRANCH  17  21
ATOM     18  C   UNL     1       8.976  12.577  22.700  0.00  0.00    +0.000 C 
ATOM     19  C   UNL     1       9.597  12.455  21.332  0.00  0.00    +0.000 A 
ATOM     20  N   UNL     1       9.086  11.549  20.479  0.00  0.00    +0.000 NA
ATOM     21  C   UNL     1       9.591  11.591  19.249  0.00  0.00    +0.000 A 
ATOM     22  C   UNL     1      10.541  12.520  18.803  0.00  0.00    +0.000 A 
ATOM     23  C   UNL     1      11.052  12.540  17.478  0.00  0.00    +0.000 A 
ATOM     24  C   UNL     1      11.806  13.610  17.053  0.00  0.00    +0.000 A 
ATOM     25  C   UNL     1      12.333  14.457  18.010  0.00  0.00    +0.000 A 
ATOM     26  C   UNL     1      11.957  14.321  19.354  0.00  0.00    +0.000 A 
ATOM     27  C   UNL     1      10.995  13.398  19.771  0.00  0.00    +0.000 A 
ATOM     28  N   UNL     1      10.568  13.354  21.022  0.00  0.00    +0.000 NA
ENDBRANCH  17  21
ENDBRANCH  16  17
ENDBRANCH   1  16
TORSDOF 4
ENDMDL
MODEL 3
REMARK VINA RESULT:      -8.3      2.117      3.035
REMARK  Name = 
REMARK  5 active torsions:
REMARK  status: ('A' for Active; 'I' for Inactive)
REMARK    1  A    between atoms: C_1  and  C_2
REMARK    2  A    between atoms: C_4  and  S_5
REMARK    3  A    between atoms: S_5  and  C_6
REMARK    4  A    between atoms: C_6  and  C_7
REMARK    5  A    between atoms: N_9  and  C_10
REMARK                            x       y       z     vdW  Elec       q    Type
REMARK                         _______ _______ _______ _____ _____    ______ ____
ROOT
ATOM      1  C   UNL     1       8.815   9.623  18.469  0.00  0.00    +0.000 C 
ATOM      2  O   UNL     1       9.051   9.505  19.647  0.00  0.00    +0.000 OA
ATOM      3  N   UNL     1       9.401  10.610  17.695  0.00  0.00    +0.000 N 
ATOM      4  H   UNL     1       8.885  10.859  16.860  0.00  0.00    +0.000 HD
ENDROOT
BRANCH   3   5
ATOM      5  C   UNL     1      10.331  11.582  18.188  0.00  0.00    +0.000 A 
ATOM      6  C   UNL     1      11.099  11.679  19.310  0.00  0.00    +0.000 A 
ATOM      7  C   UNL     1      11.869  13.048  19.571  0.00  0.00    +0.000 A 
ATOM      8  C   UNL     1      11.888  14.373  18.867  0.00  0.00    +0.000 A 
ATOM      9  C   UNL     1      10.818  13.969  18.129  0.00  0.00    +0.000 A 
ATOM     10  C   UNL     1      10.367  12.758  17.515  0.00  0.00    +0.000 A 
ATOM     11  O   UNL     1       9.644  14.605  18.691  0.00  0.00    +0.000 OA
ATOM     12  C   UNL     1       9.431  15.652  17.795  0.00  0.00    +0.000 C 
ATOM     13  C   UNL     1      10.304  17.032  18.399  0.00  0.00    +0.000 C 
ATOM     14  C   UNL     1      10.970  16.646  17.132  0.00  0.00    +0.000 C 
ATOM     15  O   UNL     1      11.886  15.648  18.162  0.00  0.00    +0.000 OA
ENDBRANCH   3   5
BRANCH   1  16
ATOM     16  C   UNL     1       7.767   8.733  17.672  0.00  0.00    +0.000 C 
BRANCH  16  17
ATOM     17  S   UNL     1       7.881   7.029  18.332  0.00  0.00    +0.000 S 
BRANCH  17  21
ATOM     18  C   UNL     1       7.121   4.852  13.742  0.00  0.00    +0.000 C 
ATOM     19  C   UNL     1       6.758   4.935  15.202  0.00  0.00    +0.000 A 
ATOM     20  N   UNL     1       7.448   5.787  15.982  0.00  0.00    +0.000 NA
ATOM     21  C   UNL     1       6.987   5.907  17.224  0.00  0.00    +0.000 A 
ATOM     22  C   UNL     1       5.842   5.269  17.721  0.00  0.00    +0.000 A 
ATOM     23  C   UNL     1       5.374   5.429  19.052  0.00  0.00    +0.000 A 
ATOM     24  C   UNL     1       4.130   4.953  19.399  0.00  0.00    +0.000 A 
ATOM     25  C   UNL     1       3.523   4.040  18.558  0.00  0.00    +0.000 A 
ATOM     26  C   UNL     1       4.088   3.751  17.307  0.00  0.00    +0.000 A 
ATOM     27  C   UNL     1       5.220   4.415  16.828  0.00  0.00    +0.000 A 
ATOM     28  N   UNL     1       5.678   4.215  15.604  0.00  0.00    +0.000 NA
ENDBRANCH  17  21
ENDBRANCH  16  17
ENDBRANCH   1  16
TORSDOF 4
ENDMDL
MODEL 4
REMARK VINA RESULT:      -8.2      6.591     10.105
REMARK  Name = 
REMARK  5 active torsions:
REMARK  status: ('A' for Active; 'I' for Inactive)
REMARK    1  A    between atoms: C_1  and  C_2
REMARK    2  A    between atoms: C_4  and  S_5
REMARK    3  A    between atoms: S_5  and  C_6
REMARK    4  A    between atoms: C_6  and  C_7
REMARK    5  A    between atoms: N_9  and  C_10
REMARK                            x       y       z     vdW  Elec       q    Type
REMARK                         _______ _______ _______ _____ _____    ______ ____
ROOT
ATOM      1  C   UNL     1       1.034   9.454  19.224  0.00  0.00    +0.000 C 
ATOM      2  O   UNL     1       1.245   9.819  18.093  0.00  0.00    +0.000 OA
ATOM      3  N   UNL     1       1.611   8.311  19.750  0.00  0.00    +0.000 N 
ATOM      4  H   UNL     1       1.108   7.899  20.526  0.00  0.00    +0.000 HD
ENDROOT
BRANCH   3   5
ATOM      5  C   UNL     1       2.503   7.449  19.033  0.00  0.00    +0.000 A 
ATOM      6  C   UNL     1       3.229   7.575  17.886  0.00  0.00    +0.000 A 
ATOM      7  C   UNL     1       3.960   6.278  17.320  0.00  0.00    +0.000 A 
ATOM      8  C   UNL     1       3.975   4.837  17.735  0.00  0.00    +0.000 A 
ATOM      9  C   UNL     1       2.940   5.094  18.580  0.00  0.00    +0.000 A 
ATOM     10  C   UNL     1       2.536   6.159  19.447  0.00  0.00    +0.000 A 
ATOM     11  O   UNL     1       1.733   4.605  17.944  0.00  0.00    +0.000 OA
ATOM     12  C   UNL     1       1.529   3.399  18.613  0.00  0.00    +0.000 C 
ATOM     13  C   UNL     1       2.351   2.161  17.705  0.00  0.00    +0.000 C 
ATOM     14  C   UNL     1       3.067   2.267  18.998  0.00  0.00    +0.000 C 
ATOM     15  O   UNL     1       3.969   3.444  18.162  0.00  0.00    +0.000 OA
ENDBRANCH   3   5
BRANCH   1  16
ATOM     16  C   UNL     1       0.029  10.173  20.224  0.00  0.00    +0.000 C 
BRANCH  16  17
ATOM     17  S   UNL     1      -0.345  11.826  19.531  0.00  0.00    +0.000 S 
BRANCH  17  21
ATOM     18  C   UNL     1      -5.014  12.990  21.330  0.00  0.00    +0.000 C 
ATOM     19  C   UNL     1      -4.147  12.588  20.164  0.00  0.00    +0.000 A 
ATOM     20  N   UNL     1      -2.822  12.476  20.364  0.00  0.00    +0.000 NA
ATOM     21  C   UNL     1      -2.139  11.988  19.332  0.00  0.00    +0.000 A 
ATOM     22  C   UNL     1      -2.707  11.552  18.127  0.00  0.00    +0.000 A 
ATOM     23  C   UNL     1      -1.947  11.027  17.049  0.00  0.00    +0.000 A 
ATOM     24  C   UNL     1      -2.588  10.417  15.995  0.00  0.00    +0.000 A 
ATOM     25  C   UNL     1      -3.944  10.635  15.843  0.00  0.00    +0.000 A 
ATOM     26  C   UNL     1      -4.665  11.313  16.837  0.00  0.00    +0.000 A 
ATOM     27  C   UNL     1      -4.078  11.721  18.037  0.00  0.00    +0.000 A 
ATOM     28  N   UNL     1      -4.790  12.260  19.012  0.00  0.00    +0.000 NA
ENDBRANCH  17  21
ENDBRANCH  16  17
ENDBRANCH   1  16
TORSDOF 4
ENDMDL
MODEL 5
REMARK VINA RESULT:      -8.2      6.311      9.373
REMARK  Name = 
REMARK  5 active torsions:
REMARK  status: ('A' for Active; 'I' for Inactive)
REMARK    1  A    between atoms: C_1  and  C_2
REMARK    2  A    between atoms: C_4  and  S_5
REMARK    3  A    between atoms: S_5  and  C_6
REMARK    4  A    between atoms: C_6  and  C_7
REMARK    5  A    between atoms: N_9  and  C_10
REMARK                            x       y       z     vdW  Elec       q    Type
REMARK                         _______ _______ _______ _____ _____    ______ ____
ROOT
ATOM      1  C   UNL     1       0.541   8.501  21.386  0.00  0.00    +0.000 C 
ATOM      2  O   UNL     1      -0.507   7.922  21.230  0.00  0.00    +0.000 OA
ATOM      3  N   UNL     1       1.749   7.961  20.979  0.00  0.00    +0.000 N 
ATOM      4  H   UNL     1       2.561   8.320  21.465  0.00  0.00    +0.000 HD
ENDROOT
BRANCH   3   5
ATOM      5  C   UNL     1       1.894   6.687  20.340  0.00  0.00    +0.000 A 
ATOM      6  C   UNL     1       1.643   5.401  20.717  0.00  0.00    +0.000 A 
ATOM      7  C   UNL     1       2.137   4.232  19.756  0.00  0.00    +0.000 A 
ATOM      8  C   UNL     1       2.936   4.207  18.486  0.00  0.00    +0.000 A 
ATOM      9  C   UNL     1       3.245   5.517  18.683  0.00  0.00    +0.000 A 
ATOM     10  C   UNL     1       2.582   6.687  19.172  0.00  0.00    +0.000 A 
ATOM     11  O   UNL     1       4.598   5.568  19.200  0.00  0.00    +0.000 OA
ATOM     12  C   UNL     1       5.323   5.923  18.064  0.00  0.00    +0.000 C 
ATOM     13  C   UNL     1       5.817   4.445  17.285  0.00  0.00    +0.000 C 
ATOM     14  C   UNL     1       4.860   5.098  16.360  0.00  0.00    +0.000 C 
ATOM     15  O   UNL     1       3.714   4.214  17.255  0.00  0.00    +0.000 OA
ENDBRANCH   3   5
BRANCH   1  16
ATOM     16  C   UNL     1       0.691   9.896  22.132  0.00  0.00    +0.000 C 
BRANCH  16  17
ATOM     17  S   UNL     1       0.752  11.200  20.848  0.00  0.00    +0.000 S 
BRANCH  17  21
ATOM     18  C   UNL     1      -3.664  13.567  21.981  0.00  0.00    +0.000 C 
ATOM     19  C   UNL     1      -2.822  12.827  20.973  0.00  0.00    +0.000 A 
ATOM     20  N   UNL     1      -1.574  12.470  21.326  0.00  0.00    +0.000 NA
ATOM     21  C   UNL     1      -0.940  11.705  20.441  0.00  0.00    +0.000 A 
ATOM     22  C   UNL     1      -1.497  11.229  19.246  0.00  0.00    +0.000 A 
ATOM     23  C   UNL     1      -0.792  10.406  18.328  0.00  0.00    +0.000 A 
ATOM     24  C   UNL     1      -1.471   9.798  17.296  0.00  0.00    +0.000 A 
ATOM     25  C   UNL     1      -2.728  10.272  16.975  0.00  0.00    +0.000 A 
ATOM     26  C   UNL     1      -3.354  11.222  17.795  0.00  0.00    +0.000 A 
ATOM     27  C   UNL     1      -2.785  11.667  18.990  0.00  0.00    +0.000 A 
ATOM     28  N   UNL     1      -3.431  12.479  19.809  0.00  0.00    +0.000 NA
ENDBRANCH  17  21
ENDBRANCH  16  17
ENDBRANCH   1  16
TORSDOF 4
ENDMDL
MODEL 6
REMARK VINA RESULT:      -8.2      2.765      9.941
REMARK  Name = 
REMARK  5 active torsions:
REMARK  status: ('A' for Active; 'I' for Inactive)
REMARK    1  A    between atoms: C_1  and  C_2
REMARK    2  A    between atoms: C_4  and  S_5
REMARK    3  A    between atoms: S_5  and  C_6
REMARK    4  A    between atoms: C_6  and  C_7
REMARK    5  A    between atoms: N_9  and  C_10
REMARK                            x       y       z     vdW  Elec       q    Type
REMARK                         _______ _______ _______ _____ _____    ______ ____
ROOT
ATOM      1  C   UNL     1       7.977   8.218  18.025  0.00  0.00    +0.000 C 
ATOM      2  O   UNL     1       8.519   7.444  18.777  0.00  0.00    +0.000 OA
ATOM      3  N   UNL     1       6.998   7.816  17.133  0.00  0.00    +0.000 N 
ATOM      4  H   UNL     1       6.881   8.420  16.328  0.00  0.00    +0.000 HD
ENDROOT
BRANCH   3   5
ATOM      5  C   UNL     1       6.525   6.470  16.999  0.00  0.00    +0.000 A 
ATOM      6  C   UNL     1       6.634   5.516  16.031  0.00  0.00    +0.000 A 
ATOM      7  C   UNL     1       5.778   4.184  16.197  0.00  0.00    +0.000 A 
ATOM      8  C   UNL     1       4.752   3.733  17.195  0.00  0.00    +0.000 A 
ATOM      9  C   UNL     1       4.704   5.002  17.683  0.00  0.00    +0.000 A 
ATOM     10  C   UNL     1       5.631   6.064  17.933  0.00  0.00    +0.000 A 
ATOM     11  O   UNL     1       3.506   5.622  17.156  0.00  0.00    +0.000 OA
ATOM     12  C   UNL     1       2.639   5.537  18.245  0.00  0.00    +0.000 C 
ATOM     13  C   UNL     1       1.770   4.035  18.096  0.00  0.00    +0.000 C 
ATOM     14  C   UNL     1       2.619   3.901  19.303  0.00  0.00    +0.000 C 
ATOM     15  O   UNL     1       3.760   3.323  18.179  0.00  0.00    +0.000 OA
ENDBRANCH   3   5
BRANCH   1  16
ATOM     16  C   UNL     1       8.352   9.758  17.901  0.00  0.00    +0.000 C 
BRANCH  16  17
ATOM     17  S   UNL     1       9.482  10.159  19.284  0.00  0.00    +0.000 S 
BRANCH  17  21
ATOM     18  C   UNL     1       7.787  14.276  21.847  0.00  0.00    +0.000 C 
ATOM     19  C   UNL     1       8.706  13.700  20.800  0.00  0.00    +0.000 A 
ATOM     20  N   UNL     1       8.701  12.368  20.612  0.00  0.00    +0.000 NA
ATOM     21  C   UNL     1       9.433  11.946  19.584  0.00  0.00    +0.000 A 
ATOM     22  C   UNL     1      10.129  12.779  18.698  0.00  0.00    +0.000 A 
ATOM     23  C   UNL     1      10.894  12.293  17.605  0.00  0.00    +0.000 A 
ATOM     24  C   UNL     1      11.361  13.172  16.654  0.00  0.00    +0.000 A 
ATOM     25  C   UNL     1      11.374  14.518  16.962  0.00  0.00    +0.000 A 
ATOM     26  C   UNL     1      10.765  14.978  18.138  0.00  0.00    +0.000 A 
ATOM     27  C   UNL     1      10.063  14.129  18.996  0.00  0.00    +0.000 A 
ATOM     28  N   UNL     1       9.400  14.590  20.043  0.00  0.00    +0.000 NA
ENDBRANCH  17  21
ENDBRANCH  16  17
ENDBRANCH   1  16
TORSDOF 4
ENDMDL
MODEL 7
REMARK VINA RESULT:      -8.1      7.134     10.195
REMARK  Name = 
REMARK  5 active torsions:
REMARK  status: ('A' for Active; 'I' for Inactive)
REMARK    1  A    between atoms: C_1  and  C_2
REMARK    2  A    between atoms: C_4  and  S_5
REMARK    3  A    between atoms: S_5  and  C_6
REMARK    4  A    between atoms: C_6  and  C_7
REMARK    5  A    between atoms: N_9  and  C_10
REMARK                            x       y       z     vdW  Elec       q    Type
REMARK                         _______ _______ _______ _____ _____    ______ ____
ROOT
ATOM      1  C   UNL     1       0.863   9.431  22.010  0.00  0.00    +0.000 C 
ATOM      2  O   UNL     1       1.920   9.411  22.595  0.00  0.00    +0.000 OA
ATOM      3  N   UNL     1       0.630   8.664  20.882  0.00  0.00    +0.000 N 
ATOM      4  H   UNL     1      -0.102   9.012  20.275  0.00  0.00    +0.000 HD
ENDROOT
BRANCH   3   5
ATOM      5  C   UNL     1       1.590   7.781  20.289  0.00  0.00    +0.000 A 
ATOM      6  C   UNL     1       2.281   7.778  19.114  0.00  0.00    +0.000 A 
ATOM      7  C   UNL     1       3.126   6.479  18.748  0.00  0.00    +0.000 A 
ATOM      8  C   UNL     1       3.290   5.137  19.398  0.00  0.00    +0.000 A 
ATOM      9  C   UNL     1       2.249   5.435  20.222  0.00  0.00    +0.000 A 
ATOM     10  C   UNL     1       1.757   6.589  20.912  0.00  0.00    +0.000 A 
ATOM     11  O   UNL     1       1.086   4.733  19.719  0.00  0.00    +0.000 OA
ATOM     12  C   UNL     1       1.013   3.645  20.586  0.00  0.00    +0.000 C 
ATOM     13  C   UNL     1       1.938   2.354  19.871  0.00  0.00    +0.000 C 
ATOM     14  C   UNL     1       2.663   2.745  21.103  0.00  0.00    +0.000 C 
ATOM     15  O   UNL     1       3.429   3.843  20.052  0.00  0.00    +0.000 OA
ENDBRANCH   3   5
BRANCH   1  16
ATOM     16  C   UNL     1      -0.357  10.373  22.399  0.00  0.00    +0.000 C 
BRANCH  16  17
ATOM     17  S   UNL     1      -0.291  11.836  21.301  0.00  0.00    +0.000 S 
BRANCH  17  21
ATOM     18  C   UNL     1      -5.186  13.381  21.102  0.00  0.00    +0.000 C 
ATOM     19  C   UNL     1      -3.998  12.775  20.399  0.00  0.00    +0.000 A 
ATOM     20  N   UNL     1      -2.842  12.668  21.079  0.00  0.00    +0.000 NA
ATOM     21  C   UNL     1      -1.880  12.003  20.445  0.00  0.00    +0.000 A 
ATOM     22  C   UNL     1      -2.019  11.389  19.193  0.00  0.00    +0.000 A 
ATOM     23  C   UNL     1      -0.971  10.679  18.550  0.00  0.00    +0.000 A 
ATOM     24  C   UNL     1      -1.244   9.919  17.436  0.00  0.00    +0.000 A 
ATOM     25  C   UNL     1      -2.437  10.139  16.774  0.00  0.00    +0.000 A 
ATOM     26  C   UNL     1      -3.406  10.985  17.332  0.00  0.00    +0.000 A 
ATOM     27  C   UNL     1      -3.251  11.571  18.590  0.00  0.00    +0.000 A 
ATOM     28  N   UNL     1      -4.216  12.278  19.154  0.00  0.00    +0.000 NA
ENDBRANCH  17  21
ENDBRANCH  16  17
ENDBRANCH   1  16
TORSDOF 4
ENDMDL
MODEL 8
REMARK VINA RESULT:      -8.1      2.992     10.177
REMARK  Name = 
REMARK  5 active torsions:
REMARK  status: ('A' for Active; 'I' for Inactive)
REMARK    1  A    between atoms: C_1  and  C_2
REMARK    2  A    between atoms: C_4  and  S_5
REMARK    3  A    between atoms: S_5  and  C_6
REMARK    4  A    between atoms: C_6  and  C_7
REMARK    5  A    between atoms: N_9  and  C_10
REMARK                            x       y       z     vdW  Elec       q    Type
REMARK                         _______ _______ _______ _____ _____    ______ ____
ROOT
ATOM      1  C   UNL     1       7.594   7.088  17.984  0.00  0.00    +0.000 C 
ATOM      2  O   UNL     1       7.408   7.204  16.797  0.00  0.00    +0.000 OA
ATOM      3  N   UNL     1       6.865   6.204  18.762  0.00  0.00    +0.000 N 
ATOM      4  H   UNL     1       6.826   6.437  19.747  0.00  0.00    +0.000 HD
ENDROOT
BRANCH   3   5
ATOM      5  C   UNL     1       5.831   5.347  18.263  0.00  0.00    +0.000 A 
ATOM      6  C   UNL     1       5.223   5.197  17.052  0.00  0.00    +0.000 A 
ATOM      7  C   UNL     1       3.956   4.237  16.969  0.00  0.00    +0.000 A 
ATOM      8  C   UNL     1       3.173   3.467  17.992  0.00  0.00    +0.000 A 
ATOM      9  C   UNL     1       3.833   4.144  18.970  0.00  0.00    +0.000 A 
ATOM     10  C   UNL     1       5.162   4.627  19.196  0.00  0.00    +0.000 A 
ATOM     11  O   UNL     1       2.937   5.167  19.468  0.00  0.00    +0.000 OA
ATOM     12  C   UNL     1       2.477   4.591  20.652  0.00  0.00    +0.000 C 
ATOM     13  C   UNL     1       1.032   3.699  20.264  0.00  0.00    +0.000 C 
ATOM     14  C   UNL     1       2.043   2.692  20.664  0.00  0.00    +0.000 C 
ATOM     15  O   UNL     1       2.433   2.732  19.008  0.00  0.00    +0.000 OA
ENDBRANCH   3   5
BRANCH   1  16
ATOM     16  C   UNL     1       8.625   7.964  18.819  0.00  0.00    +0.000 C 
BRANCH  16  17
ATOM     17  S   UNL     1       8.562   9.668  18.152  0.00  0.00    +0.000 S 
BRANCH  17  21
ATOM     18  C   UNL     1       8.582  11.849  22.802  0.00  0.00    +0.000 C 
ATOM     19  C   UNL     1       9.250  11.667  21.463  0.00  0.00    +0.000 A 
ATOM     20  N   UNL     1       8.693  10.815  20.585  0.00  0.00    +0.000 NA
ATOM     21  C   UNL     1       9.256  10.807  19.379  0.00  0.00    +0.000 A 
ATOM     22  C   UNL     1      10.310  11.639  18.980  0.00  0.00    +0.000 A 
ATOM     23  C   UNL     1      10.881  11.609  17.680  0.00  0.00    +0.000 A 
ATOM     24  C   UNL     1      11.753  12.601  17.294  0.00  0.00    +0.000 A 
ATOM     25  C   UNL     1      12.315  13.393  18.277  0.00  0.00    +0.000 A 
ATOM     26  C   UNL     1      11.867  13.295  19.602  0.00  0.00    +0.000 A 
ATOM     27  C   UNL     1      10.802  12.469  19.971  0.00  0.00    +0.000 A 
ATOM     28  N   UNL     1      10.316  12.468  21.201  0.00  0.00    +0.000 NA
ENDBRANCH  17  21
ENDBRANCH  16  17
ENDBRANCH   1  16
TORSDOF 4
ENDMDL
MODEL 9
REMARK VINA RESULT:      -8.1      6.038      8.925
REMARK  Name = 
REMARK  5 active torsions:
REMARK  status: ('A' for Active; 'I' for Inactive)
REMARK    1  A    between atoms: C_1  and  C_2
REMARK    2  A    between atoms: C_4  and  S_5
REMARK    3  A    between atoms: S_5  and  C_6
REMARK    4  A    between atoms: C_6  and  C_7
REMARK    5  A    between atoms: N_9  and  C_10
REMARK                            x       y       z     vdW  Elec       q    Type
REMARK                         _______ _______ _______ _____ _____    ______ ____
ROOT
ATOM      1  C   UNL     1       1.479   7.832  20.546  0.00  0.00    +0.000 C 
ATOM      2  O   UNL     1       1.122   6.955  21.295  0.00  0.00    +0.000 OA
ATOM      3  N   UNL     1       2.330   7.592  19.481  0.00  0.00    +0.000 N 
ATOM      4  H   UNL     1       2.848   8.400  19.160  0.00  0.00    +0.000 HD
ENDROOT
BRANCH   3   5
ATOM      5  C   UNL     1       2.874   6.308  19.152  0.00  0.00    +0.000 A 
ATOM      6  C   UNL     1       3.231   5.212  19.880  0.00  0.00    +0.000 A 
ATOM      7  C   UNL     1       3.994   4.034  19.127  0.00  0.00    +0.000 A 
ATOM      8  C   UNL     1       4.517   3.867  17.731  0.00  0.00    +0.000 A 
ATOM      9  C   UNL     1       4.296   5.192  17.516  0.00  0.00    +0.000 A 
ATOM     10  C   UNL     1       3.304   6.160  17.875  0.00  0.00    +0.000 A 
ATOM     11  O   UNL     1       5.575   5.864  17.612  0.00  0.00    +0.000 OA
ATOM     12  C   UNL     1       5.899   6.052  16.269  0.00  0.00    +0.000 C 
ATOM     13  C   UNL     1       6.816   4.661  15.761  0.00  0.00    +0.000 C 
ATOM     14  C   UNL     1       5.541   4.611  15.007  0.00  0.00    +0.000 C 
ATOM     15  O   UNL     1       5.014   3.735  16.368  0.00  0.00    +0.000 OA
ENDBRANCH   3   5
BRANCH   1  16
ATOM     16  C   UNL     1       1.093   9.365  20.714  0.00  0.00    +0.000 C 
BRANCH  16  17
ATOM     17  S   UNL     1       0.558   9.979  19.074  0.00  0.00    +0.000 S 
BRANCH  17  21
ATOM     18  C   UNL     1      -2.596  12.991  21.789  0.00  0.00    +0.000 C 
ATOM     19  C   UNL     1      -2.282  12.297  20.488  0.00  0.00    +0.000 A 
ATOM     20  N   UNL     1      -1.129  11.611  20.394  0.00  0.00    +0.000 NA
ATOM     21  C   UNL     1      -0.982  10.915  19.270  0.00  0.00    +0.000 A 
ATOM     22  C   UNL     1      -1.942  10.819  18.254  0.00  0.00    +0.000 A 
ATOM     23  C   UNL     1      -1.754  10.057  17.070  0.00  0.00    +0.000 A 
ATOM     24  C   UNL     1      -2.819   9.830  16.228  0.00  0.00    +0.000 A 
ATOM     25  C   UNL     1      -3.941  10.624  16.368  0.00  0.00    +0.000 A 
ATOM     26  C   UNL     1      -4.047  11.508  17.451  0.00  0.00    +0.000 A 
ATOM     27  C   UNL     1      -3.084  11.572  18.461  0.00  0.00    +0.000 A 
ATOM     28  N   UNL     1      -3.248  12.328  19.533  0.00  0.00    +0.000 NA
ENDBRANCH  17  21
ENDBRANCH  16  17
ENDBRANCH   1  16
TORSDOF 4
ENDMDL
