MODEL 1
REMARK VINA RESULT:      -9.1      0.000      0.000
REMARK  Name = 
REMARK  2 active torsions:
REMARK  status: ('A' for Active; 'I' for Inactive)
REMARK    1  A    between atoms: C_13  and  C_14
REMARK    2  A    between atoms: C_18  and  C_19
REMARK                            x       y       z     vdW  Elec       q    Type
REMARK                         _______ _______ _______ _____ _____    ______ ____
ROOT
ATOM      1  N   UNL     1       4.882   1.708  19.610  0.00  0.00    +0.000 N 
ATOM      2  C   UNL     1       4.344   2.917  19.317  0.00  0.00    +0.000 C 
ATOM      3  N   UNL     1       3.652   3.577  20.183  0.00  0.00    +0.000 NA
ATOM      4  C   UNL     1       3.191   4.797  19.801  0.00  0.00    +0.000 A 
ATOM      5  N   UNL     1       2.383   5.614  20.448  0.00  0.00    +0.000 NA
ATOM      6  C   UNL     1       2.270   6.742  19.673  0.00  0.00    +0.000 A 
ATOM      7  C   UNL     1       1.555   7.924  19.913  0.00  0.00    +0.000 A 
ATOM      8  C   UNL     1       1.626   8.960  18.972  0.00  0.00    +0.000 A 
ATOM      9  C   UNL     1       2.386   8.818  17.810  0.00  0.00    +0.000 A 
ATOM     10  C   UNL     1       3.094   7.641  17.543  0.00  0.00    +0.000 A 
ATOM     11  C   UNL     1       3.014   6.624  18.504  0.00  0.00    +0.000 A 
ATOM     12  N   UNL     1       3.580   5.381  18.618  0.00  0.00    +0.000 N 
ATOM     13  C   UNL     1       4.457   4.679  17.684  0.00  0.00    +0.000 C 
ATOM     14  N   UNL     1       4.650   3.281  18.047  0.00  0.00    +0.000 N 
ATOM     15  H   UNL     1       4.509   1.354  20.487  0.00  0.00    +0.000 HD
ATOM     16  H   UNL     1       4.791   1.023  18.870  0.00  0.00    +0.000 HD
ATOM     17  H   UNL     1       5.533   2.906  17.723  0.00  0.00    +0.000 HD
ENDROOT
BRANCH  13  18
ATOM     18  C   UNL     1       5.749   5.429  17.491  0.00  0.00    +0.000 A 
ATOM     19  C   UNL     1       6.448   6.140  18.453  0.00  0.00    +0.000 A 
ATOM     20  N   UNL     1       7.579   6.594  17.856  0.00  0.00    +0.000 N 
ATOM     21  N   UNL     1       7.689   6.215  16.579  0.00  0.00    +0.000 NA
ATOM     22  C   UNL     1       6.575   5.509  16.319  0.00  0.00    +0.000 A 
ATOM     23  H   UNL     1       8.324   7.150  18.265  0.00  0.00    +0.000 HD
BRANCH  22  24
ATOM     24  C   UNL     1       6.396   4.910  14.995  0.00  0.00    +0.000 A 
ATOM     25  C   UNL     1       5.253   4.199  14.622  0.00  0.00    +0.000 A 
ATOM     26  C   UNL     1       5.166   3.621  13.355  0.00  0.00    +0.000 A 
ATOM     27  C   UNL     1       6.220   3.799  12.475  0.00  0.00    +0.000 A 
ATOM     28  N   UNL     1       7.328   4.503  12.777  0.00  0.00    +0.000 NA
ATOM     29  C   UNL     1       7.386   5.047  14.021  0.00  0.00    +0.000 A 
ENDBRANCH  22  24
ENDBRANCH  13  18
TORSDOF 2
ENDMDL
MODEL 2
REMARK VINA RESULT:      -8.4      1.079      1.337
REMARK  Name = 
REMARK  2 active torsions:
REMARK  status: ('A' for Active; 'I' for Inactive)
REMARK    1  A    between atoms: C_13  and  C_14
REMARK    2  A    between atoms: C_18  and  C_19
REMARK                            x       y       z     vdW  Elec       q    Type
REMARK                         _______ _______ _______ _____ _____    ______ ____
ROOT
ATOM      1  N   UNL     1       4.075   0.650  18.599  0.00  0.00    +0.000 N 
ATOM      2  C   UNL     1       3.755   1.964  18.510  0.00  0.00    +0.000 C 
ATOM      3  N   UNL     1       3.035   2.547  19.408  0.00  0.00    +0.000 NA
ATOM      4  C   UNL     1       2.805   3.876  19.244  0.00  0.00    +0.000 A 
ATOM      5  N   UNL     1       2.025   4.671  19.950  0.00  0.00    +0.000 NA
ATOM      6  C   UNL     1       2.183   5.932  19.428  0.00  0.00    +0.000 A 
ATOM      7  C   UNL     1       1.604   7.145  19.829  0.00  0.00    +0.000 A 
ATOM      8  C   UNL     1       1.955   8.318  19.148  0.00  0.00    +0.000 A 
ATOM      9  C   UNL     1       2.856   8.284  18.082  0.00  0.00    +0.000 A 
ATOM     10  C   UNL     1       3.432   7.082  17.656  0.00  0.00    +0.000 A 
ATOM     11  C   UNL     1       3.072   5.924  18.359  0.00  0.00    +0.000 A 
ATOM     12  N   UNL     1       3.443   4.608  18.270  0.00  0.00    +0.000 N 
ATOM     13  C   UNL     1       4.348   3.967  17.319  0.00  0.00    +0.000 C 
ATOM     14  N   UNL     1       4.295   2.513  17.394  0.00  0.00    +0.000 N 
ATOM     15  H   UNL     1       3.530   0.198  19.328  0.00  0.00    +0.000 HD
ATOM     16  H   UNL     1       4.007   0.146  17.723  0.00  0.00    +0.000 HD
ATOM     17  H   UNL     1       5.159   2.070  17.105  0.00  0.00    +0.000 HD
ENDROOT
BRANCH  13  18
ATOM     18  C   UNL     1       5.743   4.521  17.449  0.00  0.00    +0.000 A 
ATOM     19  C   UNL     1       6.392   4.872  18.621  0.00  0.00    +0.000 A 
ATOM     20  N   UNL     1       7.645   5.258  18.272  0.00  0.00    +0.000 N 
ATOM     21  N   UNL     1       7.878   5.167  16.959  0.00  0.00    +0.000 NA
ATOM     22  C   UNL     1       6.726   4.729  16.422  0.00  0.00    +0.000 A 
ATOM     23  H   UNL     1       8.395   5.578  18.879  0.00  0.00    +0.000 HD
BRANCH  22  24
ATOM     24  C   UNL     1       6.652   4.485  14.980  0.00  0.00    +0.000 A 
ATOM     25  C   UNL     1       7.511   5.082  14.055  0.00  0.00    +0.000 A 
ATOM     26  C   UNL     1       7.357   4.835  12.690  0.00  0.00    +0.000 A 
ATOM     27  C   UNL     1       6.361   3.963  12.287  0.00  0.00    +0.000 A 
ATOM     28  N   UNL     1       5.530   3.337  13.143  0.00  0.00    +0.000 NA
ATOM     29  C   UNL     1       5.700   3.605  14.464  0.00  0.00    +0.000 A 
ENDBRANCH  22  24
ENDBRANCH  13  18
TORSDOF 2
ENDMDL
MODEL 3
REMARK VINA RESULT:      -7.8      5.463      8.628
REMARK  Name = 
REMARK  2 active torsions:
REMARK  status: ('A' for Active; 'I' for Inactive)
REMARK    1  A    between atoms: C_13  and  C_14
REMARK    2  A    between atoms: C_18  and  C_19
REMARK                            x       y       z     vdW  Elec       q    Type
REMARK                         _______ _______ _______ _____ _____    ______ ____
ROOT
ATOM      1  N   UNL     1      -1.571  12.939  22.687  0.00  0.00    +0.000 N 
ATOM      2  C   UNL     1      -1.864  12.367  21.493  0.00  0.00    +0.000 C 
ATOM      3  N   UNL     1      -2.901  12.720  20.811  0.00  0.00    +0.000 NA
ATOM      4  C   UNL     1      -3.081  12.112  19.609  0.00  0.00    +0.000 A 
ATOM      5  N   UNL     1      -4.100  12.213  18.778  0.00  0.00    +0.000 NA
ATOM      6  C   UNL     1      -3.779  11.456  17.678  0.00  0.00    +0.000 A 
ATOM      7  C   UNL     1      -4.503  11.246  16.495  0.00  0.00    +0.000 A 
ATOM      8  C   UNL     1      -3.940  10.447  15.491  0.00  0.00    +0.000 A 
ATOM      9  C   UNL     1      -2.686   9.859  15.666  0.00  0.00    +0.000 A 
ATOM     10  C   UNL     1      -1.955  10.043  16.844  0.00  0.00    +0.000 A 
ATOM     11  C   UNL     1      -2.535  10.853  17.829  0.00  0.00    +0.000 A 
ATOM     12  N   UNL     1      -2.125  11.289  19.062  0.00  0.00    +0.000 N 
ATOM     13  C   UNL     1      -0.896  10.975  19.788  0.00  0.00    +0.000 C 
ATOM     14  N   UNL     1      -0.936  11.433  21.170  0.00  0.00    +0.000 N 
ATOM     15  H   UNL     1      -2.351  13.502  23.014  0.00  0.00    +0.000 HD
ATOM     16  H   UNL     1      -1.268  12.284  23.398  0.00  0.00    +0.000 HD
ATOM     17  H   UNL     1      -0.017  11.631  21.548  0.00  0.00    +0.000 HD
ENDROOT
BRANCH  13  18
ATOM     18  C   UNL     1       0.313  11.462  19.032  0.00  0.00    +0.000 A 
ATOM     19  C   UNL     1       0.582  12.764  18.645  0.00  0.00    +0.000 A 
ATOM     20  N   UNL     1       1.803  12.750  18.053  0.00  0.00    +0.000 N 
ATOM     21  N   UNL     1       2.368  11.538  18.041  0.00  0.00    +0.000 NA
ATOM     22  C   UNL     1       1.474  10.721  18.624  0.00  0.00    +0.000 A 
ATOM     23  H   UNL     1       2.315  13.530  17.652  0.00  0.00    +0.000 HD
BRANCH  22  24
ATOM     24  C   UNL     1       1.804   9.306  18.804  0.00  0.00    +0.000 A 
ATOM     25  C   UNL     1       2.338   8.507  17.791  0.00  0.00    +0.000 A 
ATOM     26  C   UNL     1       2.591   7.154  18.021  0.00  0.00    +0.000 A 
ATOM     27  C   UNL     1       2.332   6.640  19.280  0.00  0.00    +0.000 A 
ATOM     28  N   UNL     1       1.848   7.378  20.298  0.00  0.00    +0.000 NA
ATOM     29  C   UNL     1       1.605   8.689  20.040  0.00  0.00    +0.000 A 
ENDBRANCH  22  24
ENDBRANCH  13  18
TORSDOF 2
ENDMDL
MODEL 4
REMARK VINA RESULT:      -7.4      6.860      9.969
REMARK  Name = 
REMARK  2 active torsions:
REMARK  status: ('A' for Active; 'I' for Inactive)
REMARK    1  A    between atoms: C_13  and  C_14
REMARK    2  A    between atoms: C_18  and  C_19
REMARK                            x       y       z     vdW  Elec       q    Type
REMARK                         _______ _______ _______ _____ _____    ______ ____
ROOT
ATOM      1  N   UNL     1      -1.004  12.495  22.887  0.00  0.00    +0.000 N 
ATOM      2  C   UNL     1      -1.399  12.018  21.682  0.00  0.00    +0.000 C 
ATOM      3  N   UNL     1      -2.398  12.531  21.046  0.00  0.00    +0.000 NA
ATOM      4  C   UNL     1      -2.687  12.003  19.827  0.00  0.00    +0.000 A 
ATOM      5  N   UNL     1      -3.704  12.271  19.032  0.00  0.00    +0.000 NA
ATOM      6  C   UNL     1      -3.514  11.526  17.894  0.00  0.00    +0.000 A 
ATOM      7  C   UNL     1      -4.288  11.462  16.727  0.00  0.00    +0.000 A 
ATOM      8  C   UNL     1      -3.860  10.640  15.676  0.00  0.00    +0.000 A 
ATOM      9  C   UNL     1      -2.690   9.888  15.789  0.00  0.00    +0.000 A 
ATOM     10  C   UNL     1      -1.911   9.925  16.950  0.00  0.00    +0.000 A 
ATOM     11  C   UNL     1      -2.356  10.762  17.984  0.00  0.00    +0.000 A 
ATOM     12  N   UNL     1      -1.860  11.087  19.219  0.00  0.00    +0.000 N 
ATOM     13  C   UNL     1      -0.665  10.586  19.894  0.00  0.00    +0.000 C 
ATOM     14  N   UNL     1      -0.610  10.986  21.294  0.00  0.00    +0.000 N 
ATOM     15  H   UNL     1      -1.696  13.141  23.260  0.00  0.00    +0.000 HD
ATOM     16  H   UNL     1      -0.771  11.778  23.562  0.00  0.00    +0.000 HD
ATOM     17  H   UNL     1       0.336  11.048  21.651  0.00  0.00    +0.000 HD
ENDROOT
BRANCH  13  18
ATOM     18  C   UNL     1       0.577  10.944  19.121  0.00  0.00    +0.000 A 
ATOM     19  C   UNL     1       1.365  10.087  18.372  0.00  0.00    +0.000 A 
ATOM     20  N   UNL     1       2.334  10.846  17.801  0.00  0.00    +0.000 N 
ATOM     21  N   UNL     1       2.231  12.145  18.102  0.00  0.00    +0.000 NA
ATOM     22  C   UNL     1       1.169  12.238  18.920  0.00  0.00    +0.000 A 
ATOM     23  H   UNL     1       3.084  10.547  17.185  0.00  0.00    +0.000 HD
BRANCH  22  24
ATOM     24  C   UNL     1       0.754  13.553  19.413  0.00  0.00    +0.000 A 
ATOM     25  C   UNL     1      -0.205  14.344  18.776  0.00  0.00    +0.000 A 
ATOM     26  C   UNL     1      -0.524  15.606  19.279  0.00  0.00    +0.000 A 
ATOM     27  C   UNL     1       0.107  16.033  20.435  0.00  0.00    +0.000 A 
ATOM     28  N   UNL     1       1.013  15.293  21.103  0.00  0.00    +0.000 NA
ATOM     29  C   UNL     1       1.307  14.073  20.584  0.00  0.00    +0.000 A 
ENDBRANCH  22  24
ENDBRANCH  13  18
TORSDOF 2
ENDMDL
MODEL 5
REMARK VINA RESULT:      -7.4      2.403      6.873
REMARK  Name = 
REMARK  2 active torsions:
REMARK  status: ('A' for Active; 'I' for Inactive)
REMARK    1  A    between atoms: C_13  and  C_14
REMARK    2  A    between atoms: C_18  and  C_19
REMARK                            x       y       z     vdW  Elec       q    Type
REMARK                         _______ _______ _______ _____ _____    ______ ____
ROOT
ATOM      1  N   UNL     1       0.352   3.906  20.439  0.00  0.00    +0.000 N 
ATOM      2  C   UNL     1       1.534   4.317  19.916  0.00  0.00    +0.000 C 
ATOM      3  N   UNL     1       2.173   3.605  19.051  0.00  0.00    +0.000 NA
ATOM      4  C   UNL     1       3.329   4.127  18.560  0.00  0.00    +0.000 A 
ATOM      5  N   UNL     1       4.212   3.565  17.758  0.00  0.00    +0.000 NA
ATOM      6  C   UNL     1       5.168   4.519  17.506  0.00  0.00    +0.000 A 
ATOM      7  C   UNL     1       6.309   4.448  16.693  0.00  0.00    +0.000 A 
ATOM      8  C   UNL     1       7.121   5.583  16.569  0.00  0.00    +0.000 A 
ATOM      9  C   UNL     1       6.810   6.762  17.249  0.00  0.00    +0.000 A 
ATOM     10  C   UNL     1       5.685   6.848  18.077  0.00  0.00    +0.000 A 
ATOM     11  C   UNL     1       4.884   5.703  18.178  0.00  0.00    +0.000 A 
ATOM     12  N   UNL     1       3.716   5.417  18.835  0.00  0.00    +0.000 N 
ATOM     13  C   UNL     1       2.932   6.265  19.730  0.00  0.00    +0.000 C 
ATOM     14  N   UNL     1       1.889   5.522  20.426  0.00  0.00    +0.000 N 
ATOM     15  H   UNL     1       0.175   2.934  20.201  0.00  0.00    +0.000 HD
ATOM     16  H   UNL     1       0.263   4.062  21.435  0.00  0.00    +0.000 HD
ATOM     17  H   UNL     1       1.097   6.099  20.683  0.00  0.00    +0.000 HD
ENDROOT
BRANCH  13  18
ATOM     18  C   UNL     1       2.416   7.480  19.004  0.00  0.00    +0.000 A 
ATOM     19  C   UNL     1       2.560   7.765  17.656  0.00  0.00    +0.000 A 
ATOM     20  N   UNL     1       1.887   8.921  17.429  0.00  0.00    +0.000 N 
ATOM     21  N   UNL     1       1.292   9.408  18.523  0.00  0.00    +0.000 NA
ATOM     22  C   UNL     1       1.607   8.553  19.511  0.00  0.00    +0.000 A 
ATOM     23  H   UNL     1       1.779   9.423  16.552  0.00  0.00    +0.000 HD
BRANCH  22  24
ATOM     24  C   UNL     1       1.074   8.780  20.856  0.00  0.00    +0.000 A 
ATOM     25  C   UNL     1      -0.258   8.544  21.205  0.00  0.00    +0.000 A 
ATOM     26  C   UNL     1      -0.706   8.821  22.497  0.00  0.00    +0.000 A 
ATOM     27  C   UNL     1       0.205   9.300  23.422  0.00  0.00    +0.000 A 
ATOM     28  N   UNL     1       1.505   9.512  23.143  0.00  0.00    +0.000 NA
ATOM     29  C   UNL     1       1.910   9.240  21.875  0.00  0.00    +0.000 A 
ENDBRANCH  22  24
ENDBRANCH  13  18
TORSDOF 2
ENDMDL
MODEL 6
REMARK VINA RESULT:      -7.3      7.898     10.259
REMARK  Name = 
REMARK  2 active torsions:
REMARK  status: ('A' for Active; 'I' for Inactive)
REMARK    1  A    between atoms: C_13  and  C_14
REMARK    2  A    between atoms: C_18  and  C_19
REMARK                            x       y       z     vdW  Elec       q    Type
REMARK                         _______ _______ _______ _____ _____    ______ ____
ROOT
ATOM      1  N   UNL     1      -2.830  10.319  14.898  0.00  0.00    +0.000 N 
ATOM      2  C   UNL     1      -3.068  10.911  16.094  0.00  0.00    +0.000 C 
ATOM      3  N   UNL     1      -4.191  10.763  16.711  0.00  0.00    +0.000 NA
ATOM      4  C   UNL     1      -4.312  11.367  17.922  0.00  0.00    +0.000 A 
ATOM      5  N   UNL     1      -5.375  11.459  18.696  0.00  0.00    +0.000 NA
ATOM      6  C   UNL     1      -4.970  12.109  19.836  0.00  0.00    +0.000 A 
ATOM      7  C   UNL     1      -5.702  12.436  20.987  0.00  0.00    +0.000 A 
ATOM      8  C   UNL     1      -5.045  13.080  22.044  0.00  0.00    +0.000 A 
ATOM      9  C   UNL     1      -3.690  13.403  21.954  0.00  0.00    +0.000 A 
ATOM     10  C   UNL     1      -2.946  13.100  20.808  0.00  0.00    +0.000 A 
ATOM     11  C   UNL     1      -3.623  12.448  19.768  0.00  0.00    +0.000 A 
ATOM     12  N   UNL     1      -3.241  11.965  18.544  0.00  0.00    +0.000 N 
ATOM     13  C   UNL     1      -1.935  12.037  17.892  0.00  0.00    +0.000 C 
ATOM     14  N   UNL     1      -1.988  11.628  16.495  0.00  0.00    +0.000 N 
ATOM     15  H   UNL     1      -3.689   9.934  14.514  0.00  0.00    +0.000 HD
ATOM     16  H   UNL     1      -2.361  10.913  14.226  0.00  0.00    +0.000 HD
ATOM     17  H   UNL     1      -1.110  11.254  16.158  0.00  0.00    +0.000 HD
ENDROOT
BRANCH  13  18
ATOM     18  C   UNL     1      -0.895  11.296  18.691  0.00  0.00    +0.000 A 
ATOM     19  C   UNL     1      -0.947   9.974  19.101  0.00  0.00    +0.000 A 
ATOM     20  N   UNL     1       0.225   9.715  19.732  0.00  0.00    +0.000 N 
ATOM     21  N   UNL     1       1.057  10.761  19.749  0.00  0.00    +0.000 NA
ATOM     22  C   UNL     1       0.395  11.753  19.129  0.00  0.00    +0.000 A 
ATOM     23  H   UNL     1       0.530   8.844  20.158  0.00  0.00    +0.000 HD
BRANCH  22  24
ATOM     24  C   UNL     1       1.051  13.049  18.944  0.00  0.00    +0.000 A 
ATOM     25  C   UNL     1       0.518  14.253  19.413  0.00  0.00    +0.000 A 
ATOM     26  C   UNL     1       1.178  15.457  19.165  0.00  0.00    +0.000 A 
ATOM     27  C   UNL     1       2.379  15.423  18.478  0.00  0.00    +0.000 A 
ATOM     28  N   UNL     1       2.948  14.285  18.036  0.00  0.00    +0.000 NA
ATOM     29  C   UNL     1       2.278  13.129  18.285  0.00  0.00    +0.000 A 
ENDBRANCH  22  24
ENDBRANCH  13  18
TORSDOF 2
ENDMDL
MODEL 7
REMARK VINA RESULT:      -7.2      4.840      8.811
REMARK  Name = 
REMARK  2 active torsions:
REMARK  status: ('A' for Active; 'I' for Inactive)
REMARK    1  A    between atoms: C_13  and  C_14
REMARK    2  A    between atoms: C_18  and  C_19
REMARK                            x       y       z     vdW  Elec       q    Type
REMARK                         _______ _______ _______ _____ _____    ______ ____
ROOT
ATOM      1  N   UNL     1      -1.267  10.483  23.511  0.00  0.00    +0.000 N 
ATOM      2  C   UNL     1      -0.450  10.036  22.526  0.00  0.00    +0.000 C 
ATOM      3  N   UNL     1      -0.130   8.791  22.427  0.00  0.00    +0.000 NA
ATOM      4  C   UNL     1       0.663   8.442  21.379  0.00  0.00    +0.000 A 
ATOM      5  N   UNL     1       1.212   7.273  21.114  0.00  0.00    +0.000 NA
ATOM      6  C   UNL     1       1.867   7.415  19.915  0.00  0.00    +0.000 A 
ATOM      7  C   UNL     1       2.588   6.469  19.172  0.00  0.00    +0.000 A 
ATOM      8  C   UNL     1       3.142   6.855  17.944  0.00  0.00    +0.000 A 
ATOM      9  C   UNL     1       2.991   8.159  17.470  0.00  0.00    +0.000 A 
ATOM     10  C   UNL     1       2.289   9.122  18.203  0.00  0.00    +0.000 A 
ATOM     11  C   UNL     1       1.737   8.709  19.424  0.00  0.00    +0.000 A 
ATOM     12  N   UNL     1       0.972   9.330  20.376  0.00  0.00    +0.000 N 
ATOM     13  C   UNL     1       0.515  10.717  20.431  0.00  0.00    +0.000 C 
ATOM     14  N   UNL     1      -0.067  11.059  21.722  0.00  0.00    +0.000 N 
ATOM     15  H   UNL     1      -1.408   9.762  24.213  0.00  0.00    +0.000 HD
ATOM     16  H   UNL     1      -0.969  11.353  23.935  0.00  0.00    +0.000 HD
ATOM     17  H   UNL     1      -0.753  11.802  21.662  0.00  0.00    +0.000 HD
ENDROOT
BRANCH  13  18
ATOM     18  C   UNL     1      -0.388  11.032  19.267  0.00  0.00    +0.000 A 
ATOM     19  C   UNL     1      -1.436  10.259  18.796  0.00  0.00    +0.000 A 
ATOM     20  N   UNL     1      -2.009  10.955  17.782  0.00  0.00    +0.000 N 
ATOM     21  N   UNL     1      -1.429  12.140  17.563  0.00  0.00    +0.000 NA
ATOM     22  C   UNL     1      -0.422  12.213  18.451  0.00  0.00    +0.000 A 
ATOM     23  H   UNL     1      -2.805  10.690  17.209  0.00  0.00    +0.000 HD
BRANCH  22  24
ATOM     24  C   UNL     1       0.404  13.421  18.502  0.00  0.00    +0.000 A 
ATOM     25  C   UNL     1       1.778  13.422  18.250  0.00  0.00    +0.000 A 
ATOM     26  C   UNL     1       2.512  14.605  18.356  0.00  0.00    +0.000 A 
ATOM     27  C   UNL     1       1.840  15.770  18.683  0.00  0.00    +0.000 A 
ATOM     28  N   UNL     1       0.513  15.825  18.902  0.00  0.00    +0.000 NA
ATOM     29  C   UNL     1      -0.173  14.656  18.799  0.00  0.00    +0.000 A 
ENDBRANCH  22  24
ENDBRANCH  13  18
TORSDOF 2
ENDMDL
MODEL 8
REMARK VINA RESULT:      -7.2      6.087      9.405
REMARK  Name = 
REMARK  2 active torsions:
REMARK  status: ('A' for Active; 'I' for Inactive)
REMARK    1  A    between atoms: C_13  and  C_14
REMARK    2  A    between atoms: C_18  and  C_19
REMARK                            x       y       z     vdW  Elec       q    Type
REMARK                         _______ _______ _______ _____ _____    ______ ____
ROOT
ATOM      1  N   UNL     1       3.417  14.774  17.428  0.00  0.00    +0.000 N 
ATOM      2  C   UNL     1       2.652  14.503  18.514  0.00  0.00    +0.000 C 
ATOM      3  N   UNL     1       2.160  15.445  19.245  0.00  0.00    +0.000 NA
ATOM      4  C   UNL     1       1.374  15.066  20.288  0.00  0.00    +0.000 A 
ATOM      5  N   UNL     1       0.844  15.813  21.236  0.00  0.00    +0.000 NA
ATOM      6  C   UNL     1       0.086  14.973  22.014  0.00  0.00    +0.000 A 
ATOM      7  C   UNL     1      -0.707  15.263  23.134  0.00  0.00    +0.000 A 
ATOM      8  C   UNL     1      -1.422  14.223  23.743  0.00  0.00    +0.000 A 
ATOM      9  C   UNL     1      -1.342  12.919  23.253  0.00  0.00    +0.000 A 
ATOM     10  C   UNL     1      -0.544  12.605  22.147  0.00  0.00    +0.000 A 
ATOM     11  C   UNL     1       0.154  13.663  21.550  0.00  0.00    +0.000 A 
ATOM     12  N   UNL     1       0.979  13.760  20.460  0.00  0.00    +0.000 N 
ATOM     13  C   UNL     1       1.447  12.706  19.563  0.00  0.00    +0.000 C 
ATOM     14  N   UNL     1       2.506  13.165  18.673  0.00  0.00    +0.000 N 
ATOM     15  H   UNL     1       3.677  15.757  17.410  0.00  0.00    +0.000 HD
ATOM     16  H   UNL     1       4.230  14.179  17.334  0.00  0.00    +0.000 HD
ATOM     17  H   UNL     1       2.540  12.650  17.801  0.00  0.00    +0.000 HD
ENDROOT
BRANCH  13  18
ATOM     18  C   UNL     1       0.293  12.065  18.838  0.00  0.00    +0.000 A 
ATOM     19  C   UNL     1      -0.783  12.712  18.253  0.00  0.00    +0.000 A 
ATOM     20  N   UNL     1      -1.539  11.753  17.661  0.00  0.00    +0.000 N 
ATOM     21  N   UNL     1      -1.029  10.524  17.793  0.00  0.00    +0.000 NA
ATOM     22  C   UNL     1       0.090  10.679  18.521  0.00  0.00    +0.000 A 
ATOM     23  H   UNL     1      -2.402  11.869  17.137  0.00  0.00    +0.000 HD
BRANCH  22  24
ATOM     24  C   UNL     1       0.919   9.510  18.821  0.00  0.00    +0.000 A 
ATOM     25  C   UNL     1       1.689   8.848  17.862  0.00  0.00    +0.000 A 
ATOM     26  C   UNL     1       2.425   7.715  18.210  0.00  0.00    +0.000 A 
ATOM     27  C   UNL     1       2.399   7.290  19.527  0.00  0.00    +0.000 A 
ATOM     28  N   UNL     1       1.699   7.915  20.494  0.00  0.00    +0.000 NA
ATOM     29  C   UNL     1       0.986   9.010  20.122  0.00  0.00    +0.000 A 
ENDBRANCH  22  24
ENDBRANCH  13  18
TORSDOF 2
ENDMDL
MODEL 9
REMARK VINA RESULT:      -7.1      6.405     10.475
REMARK  Name = 
REMARK  2 active torsions:
REMARK  status: ('A' for Active; 'I' for Inactive)
REMARK    1  A    between atoms: C_13  and  C_14
REMARK    2  A    between atoms: C_18  and  C_19
REMARK                            x       y       z     vdW  Elec       q    Type
REMARK                         _______ _______ _______ _____ _____    ______ ____
ROOT
ATOM      1  N   UNL     1       2.108   9.072  17.987  0.00  0.00    +0.000 N 
ATOM      2  C   UNL     1       0.951   9.744  18.203  0.00  0.00    +0.000 C 
ATOM      3  N   UNL     1      -0.104   9.517  17.496  0.00  0.00    +0.000 NA
ATOM      4  C   UNL     1      -1.223  10.218  17.821  0.00  0.00    +0.000 A 
ATOM      5  N   UNL     1      -2.385  10.251  17.198  0.00  0.00    +0.000 NA
ATOM      6  C   UNL     1      -3.205  11.056  17.951  0.00  0.00    +0.000 A 
ATOM      7  C   UNL     1      -4.550  11.400  17.750  0.00  0.00    +0.000 A 
ATOM      8  C   UNL     1      -5.184  12.221  18.691  0.00  0.00    +0.000 A 
ATOM      9  C   UNL     1      -4.492  12.700  19.804  0.00  0.00    +0.000 A 
ATOM     10  C   UNL     1      -3.145  12.381  20.015  0.00  0.00    +0.000 A 
ATOM     11  C   UNL     1      -2.536  11.551  19.065  0.00  0.00    +0.000 A 
ATOM     12  N   UNL     1      -1.285  11.003  18.948  0.00  0.00    +0.000 N 
ATOM     13  C   UNL     1      -0.120  11.173  19.813  0.00  0.00    +0.000 C 
ATOM     14  N   UNL     1       1.094  10.626  19.223  0.00  0.00    +0.000 N 
ATOM     15  H   UNL     1       2.060   8.547  17.117  0.00  0.00    +0.000 HD
ATOM     16  H   UNL     1       2.938   9.651  18.020  0.00  0.00    +0.000 HD
ATOM     17  H   UNL     1       1.774  10.333  19.915  0.00  0.00    +0.000 HD
ENDROOT
BRANCH  13  18
ATOM     18  C   UNL     1      -0.399  10.650  21.198  0.00  0.00    +0.000 A 
ATOM     19  C   UNL     1      -0.355   9.329  21.612  0.00  0.00    +0.000 A 
ATOM     20  N   UNL     1      -0.609   9.329  22.945  0.00  0.00    +0.000 N 
ATOM     21  N   UNL     1      -0.795  10.555  23.445  0.00  0.00    +0.000 NA
ATOM     22  C   UNL     1      -0.684  11.389  22.396  0.00  0.00    +0.000 A 
ATOM     23  H   UNL     1      -0.653   8.534  23.575  0.00  0.00    +0.000 HD
BRANCH  22  24
ATOM     24  C   UNL     1      -0.802  12.833  22.610  0.00  0.00    +0.000 A 
ATOM     25  C   UNL     1      -1.784  13.412  23.418  0.00  0.00    +0.000 A 
ATOM     26  C   UNL     1      -1.863  14.799  23.545  0.00  0.00    +0.000 A 
ATOM     27  C   UNL     1      -0.929  15.576  22.881  0.00  0.00    +0.000 A 
ATOM     28  N   UNL     1       0.056  15.062  22.118  0.00  0.00    +0.000 NA
ATOM     29  C   UNL     1       0.101  13.709  22.008  0.00  0.00    +0.000 A 
ENDBRANCH  22  24
ENDBRANCH  13  18
TORSDOF 2
ENDMDL
