MODEL 1
REMARK VINA RESULT:      -7.9      0.000      0.000
REMARK  Name = 
REMARK  5 active torsions:
REMARK  status: ('A' for Active; 'I' for Inactive)
REMARK    1  A    between atoms: C_1  and  N_2
REMARK    2  A    between atoms: N_2  and  C_3
REMARK    3  A    between atoms: C_7  and  C_8
REMARK    4  A    between atoms: C_11  and  N_12
REMARK    5  A    between atoms: C_13  and  C_15
REMARK                            x       y       z     vdW  Elec       q    Type
REMARK                         _______ _______ _______ _____ _____    ______ ____
ROOT
ATOM      1  C   UNL     1       2.516   7.316  18.766  0.00  0.00    +0.000 A 
ATOM      2  C   UNL     1       2.038   8.441  18.086  0.00  0.00    +0.000 A 
ATOM      3  C   UNL     1       1.215   9.376  18.721  0.00  0.00    +0.000 A 
ATOM      4  C   UNL     1       0.837   9.213  20.056  0.00  0.00    +0.000 A 
ATOM      5  C   UNL     1       1.305   8.084  20.742  0.00  0.00    +0.000 A 
ATOM      6  C   UNL     1       2.138   7.148  20.104  0.00  0.00    +0.000 A 
ENDROOT
BRANCH   1  13
ATOM      7  C   UNL     1       7.372   6.715  17.183  0.00  0.00    +0.000 C 
ATOM      8  N   UNL     1       6.391   5.910  16.482  0.00  0.00    +0.000 N 
ATOM      9  C   UNL     1       6.856   4.810  15.655  0.00  0.00    +0.000 C 
ATOM     10  C   UNL     1       5.154   5.787  17.019  0.00  0.00    +0.000 A 
ATOM     11  N   UNL     1       4.286   4.802  16.916  0.00  0.00    +0.000 NA
ATOM     12  N   UNL     1       3.160   5.189  17.607  0.00  0.00    +0.000 NA
ATOM     13  C   UNL     1       3.406   6.400  18.063  0.00  0.00    +0.000 A 
ATOM     14  O   UNL     1       4.667   6.835  17.758  0.00  0.00    +0.000 OA
ENDBRANCH   1  13
BRANCH   4  15
ATOM     15  N   UNL     1       0.016  10.136  20.755  0.00  0.00    +0.000 N 
ATOM     16  C   UNL     1       0.434  11.339  21.297  0.00  0.00    +0.000 C 
ATOM     17  O   UNL     1       1.565  11.816  21.215  0.00  0.00    +0.000 OA
ATOM     18  H   UNL     1      -0.963   9.889  20.819  0.00  0.00    +0.000 HD
BRANCH  16  19
ATOM     19  C   UNL     1      -0.561  12.154  22.048  0.00  0.00    +0.000 A 
ATOM     20  C   UNL     1      -1.673  11.608  22.698  0.00  0.00    +0.000 A 
ATOM     21  C   UNL     1      -2.490  12.440  23.466  0.00  0.00    +0.000 A 
ATOM     22  F   UNL     1      -3.541  11.907  24.103  0.00  0.00    +0.000 F 
ATOM     23  C   UNL     1      -2.218  13.798  23.598  0.00  0.00    +0.000 A 
ATOM     24  F   UNL     1      -2.999  14.575  24.361  0.00  0.00    +0.000 F 
ATOM     25  C   UNL     1      -1.121  14.338  22.947  0.00  0.00    +0.000 A 
ATOM     26  F   UNL     1      -0.835  15.641  23.070  0.00  0.00    +0.000 F 
ATOM     27  C   UNL     1      -0.295  13.530  22.175  0.00  0.00    +0.000 A 
ENDBRANCH  16  19
ENDBRANCH   4  15
TORSDOF 3
ENDMDL
MODEL 2
REMARK VINA RESULT:      -7.8      0.639      1.910
REMARK  Name = 
REMARK  5 active torsions:
REMARK  status: ('A' for Active; 'I' for Inactive)
REMARK    1  A    between atoms: C_1  and  N_2
REMARK    2  A    between atoms: N_2  and  C_3
REMARK    3  A    between atoms: C_7  and  C_8
REMARK    4  A    between atoms: C_11  and  N_12
REMARK    5  A    between atoms: C_13  and  C_15
REMARK                            x       y       z     vdW  Elec       q    Type
REMARK                         _______ _______ _______ _____ _____    ______ ____
ROOT
ATOM      1  C   UNL     1       2.480   7.481  18.662  0.00  0.00    +0.000 A 
ATOM      2  C   UNL     1       2.142   7.337  20.011  0.00  0.00    +0.000 A 
ATOM      3  C   UNL     1       1.303   8.255  20.650  0.00  0.00    +0.000 A 
ATOM      4  C   UNL     1       0.780   9.352  19.961  0.00  0.00    +0.000 A 
ATOM      5  C   UNL     1       1.120   9.508  18.611  0.00  0.00    +0.000 A 
ATOM      6  C   UNL     1       1.959   8.581  17.968  0.00  0.00    +0.000 A 
ENDROOT
BRANCH   1  13
ATOM      7  C   UNL     1       7.297   6.519  17.140  0.00  0.00    +0.000 C 
ATOM      8  N   UNL     1       6.277   5.706  16.508  0.00  0.00    +0.000 N 
ATOM      9  C   UNL     1       6.687   4.519  15.776  0.00  0.00    +0.000 C 
ATOM     10  C   UNL     1       5.037   5.687  17.051  0.00  0.00    +0.000 A 
ATOM     11  N   UNL     1       4.123   4.739  17.031  0.00  0.00    +0.000 NA
ATOM     12  N   UNL     1       3.019   5.236  17.685  0.00  0.00    +0.000 NA
ATOM     13  C   UNL     1       3.323   6.468  18.039  0.00  0.00    +0.000 A 
ATOM     14  O   UNL     1       4.603   6.815  17.700  0.00  0.00    +0.000 OA
ENDBRANCH   1  13
BRANCH   4  15
ATOM     15  N   UNL     1      -0.086  10.307  20.555  0.00  0.00    +0.000 N 
ATOM     16  C   UNL     1       0.309  11.473  21.187  0.00  0.00    +0.000 C 
ATOM     17  O   UNL     1       1.463  11.887  21.288  0.00  0.00    +0.000 OA
ATOM     18  H   UNL     1      -1.075  10.115  20.466  0.00  0.00    +0.000 HD
BRANCH  16  19
ATOM     19  C   UNL     1      -0.743  12.329  21.804  0.00  0.00    +0.000 A 
ATOM     20  C   UNL     1      -0.966  13.661  21.438  0.00  0.00    +0.000 A 
ATOM     21  C   UNL     1      -2.045  14.349  21.997  0.00  0.00    +0.000 A 
ATOM     22  F   UNL     1      -2.265  15.618  21.627  0.00  0.00    +0.000 F 
ATOM     23  C   UNL     1      -2.900  13.736  22.906  0.00  0.00    +0.000 A 
ATOM     24  F   UNL     1      -3.945  14.405  23.411  0.00  0.00    +0.000 F 
ATOM     25  C   UNL     1      -2.672  12.420  23.273  0.00  0.00    +0.000 A 
ATOM     26  F   UNL     1      -3.492  11.807  24.138  0.00  0.00    +0.000 F 
ATOM     27  C   UNL     1      -1.604  11.715  22.732  0.00  0.00    +0.000 A 
ENDBRANCH  16  19
ENDBRANCH   4  15
TORSDOF 3
ENDMDL
MODEL 3
REMARK VINA RESULT:      -7.7      5.276     10.151
REMARK  Name = 
REMARK  5 active torsions:
REMARK  status: ('A' for Active; 'I' for Inactive)
REMARK    1  A    between atoms: C_1  and  N_2
REMARK    2  A    between atoms: N_2  and  C_3
REMARK    3  A    between atoms: C_7  and  C_8
REMARK    4  A    between atoms: C_11  and  N_12
REMARK    5  A    between atoms: C_13  and  C_15
REMARK                            x       y       z     vdW  Elec       q    Type
REMARK                         _______ _______ _______ _____ _____    ______ ____
ROOT
ATOM      1  C   UNL     1      -0.006  10.513  21.433  0.00  0.00    +0.000 A 
ATOM      2  C   UNL     1       0.572   9.419  22.083  0.00  0.00    +0.000 A 
ATOM      3  C   UNL     1       1.312   8.465  21.378  0.00  0.00    +0.000 A 
ATOM      4  C   UNL     1       1.492   8.572  19.996  0.00  0.00    +0.000 A 
ATOM      5  C   UNL     1       0.909   9.662  19.336  0.00  0.00    +0.000 A 
ATOM      6  C   UNL     1       0.170  10.624  20.048  0.00  0.00    +0.000 A 
ENDROOT
BRANCH   1  13
ATOM      7  C   UNL     1      -0.212  15.525  22.570  0.00  0.00    +0.000 C 
ATOM      8  N   UNL     1      -0.829  14.647  23.543  0.00  0.00    +0.000 N 
ATOM      9  C   UNL     1      -1.702  15.226  24.549  0.00  0.00    +0.000 C 
ATOM     10  C   UNL     1      -1.077  13.363  23.190  0.00  0.00    +0.000 A 
ATOM     11  N   UNL     1      -2.011  12.537  23.616  0.00  0.00    +0.000 NA
ATOM     12  N   UNL     1      -1.799  11.334  22.982  0.00  0.00    +0.000 NA
ATOM     13  C   UNL     1      -0.730  11.497  22.229  0.00  0.00    +0.000 A 
ATOM     14  O   UNL     1      -0.234  12.772  22.283  0.00  0.00    +0.000 OA
ENDBRANCH   1  13
BRANCH   4  15
ATOM     15  N   UNL     1       2.245   7.643  19.232  0.00  0.00    +0.000 N 
ATOM     16  C   UNL     1       2.350   6.286  19.486  0.00  0.00    +0.000 C 
ATOM     17  O   UNL     1       1.771   5.669  20.380  0.00  0.00    +0.000 OA
ATOM     18  H   UNL     1       2.707   8.020  18.415  0.00  0.00    +0.000 HD
BRANCH  16  19
ATOM     19  C   UNL     1       3.235   5.473  18.606  0.00  0.00    +0.000 A 
ATOM     20  C   UNL     1       3.202   4.075  18.559  0.00  0.00    +0.000 A 
ATOM     21  C   UNL     1       3.995   3.406  17.624  0.00  0.00    +0.000 A 
ATOM     22  F   UNL     1       3.944   2.068  17.571  0.00  0.00    +0.000 F 
ATOM     23  C   UNL     1       4.811   4.102  16.740  0.00  0.00    +0.000 A 
ATOM     24  F   UNL     1       5.544   3.442  15.832  0.00  0.00    +0.000 F 
ATOM     25  C   UNL     1       4.848   5.485  16.793  0.00  0.00    +0.000 A 
ATOM     26  F   UNL     1       5.618   6.175  15.941  0.00  0.00    +0.000 F 
ATOM     27  C   UNL     1       4.070   6.173  17.716  0.00  0.00    +0.000 A 
ENDBRANCH  16  19
ENDBRANCH   4  15
TORSDOF 3
ENDMDL
MODEL 4
REMARK VINA RESULT:      -7.6      5.102     10.313
REMARK  Name = 
REMARK  5 active torsions:
REMARK  status: ('A' for Active; 'I' for Inactive)
REMARK    1  A    between atoms: C_1  and  N_2
REMARK    2  A    between atoms: N_2  and  C_3
REMARK    3  A    between atoms: C_7  and  C_8
REMARK    4  A    between atoms: C_11  and  N_12
REMARK    5  A    between atoms: C_13  and  C_15
REMARK                            x       y       z     vdW  Elec       q    Type
REMARK                         _______ _______ _______ _____ _____    ______ ____
ROOT
ATOM      1  C   UNL     1      -0.177  10.957  22.030  0.00  0.00    +0.000 A 
ATOM      2  C   UNL     1      -0.064  10.987  20.637  0.00  0.00    +0.000 A 
ATOM      3  C   UNL     1       0.535   9.936  19.935  0.00  0.00    +0.000 A 
ATOM      4  C   UNL     1       1.047   8.823  20.606  0.00  0.00    +0.000 A 
ATOM      5  C   UNL     1       0.945   8.789  22.003  0.00  0.00    +0.000 A 
ATOM      6  C   UNL     1       0.337   9.844  22.707  0.00  0.00    +0.000 A 
ENDROOT
BRANCH   1  13
ATOM      7  C   UNL     1      -4.525  12.251  24.452  0.00  0.00    +0.000 C 
ATOM      8  N   UNL     1      -3.761  13.363  23.922  0.00  0.00    +0.000 N 
ATOM      9  C   UNL     1      -4.084  14.706  24.369  0.00  0.00    +0.000 C 
ATOM     10  C   UNL     1      -2.482  13.142  23.535  0.00  0.00    +0.000 A 
ATOM     11  N   UNL     1      -1.456  13.967  23.508  0.00  0.00    +0.000 NA
ATOM     12  N   UNL     1      -0.393  13.265  22.985  0.00  0.00    +0.000 NA
ATOM     13  C   UNL     1      -0.850  12.062  22.702  0.00  0.00    +0.000 A 
ATOM     14  O   UNL     1      -2.162  11.897  23.054  0.00  0.00    +0.000 OA
ENDBRANCH   1  13
BRANCH   4  15
ATOM     15  N   UNL     1       1.652   7.723  19.945  0.00  0.00    +0.000 N 
ATOM     16  C   UNL     1       2.319   7.776  18.733  0.00  0.00    +0.000 C 
ATOM     17  O   UNL     1       2.534   8.789  18.069  0.00  0.00    +0.000 OA
ATOM     18  H   UNL     1       1.611   6.840  20.436  0.00  0.00    +0.000 HD
BRANCH  16  19
ATOM     19  C   UNL     1       2.843   6.503  18.163  0.00  0.00    +0.000 A 
ATOM     20  C   UNL     1       4.136   6.362  17.650  0.00  0.00    +0.000 A 
ATOM     21  C   UNL     1       4.572   5.102  17.235  0.00  0.00    +0.000 A 
ATOM     22  F   UNL     1       5.819   4.970  16.763  0.00  0.00    +0.000 F 
ATOM     23  C   UNL     1       3.745   3.987  17.324  0.00  0.00    +0.000 A 
ATOM     24  F   UNL     1       4.191   2.781  16.946  0.00  0.00    +0.000 F 
ATOM     25  C   UNL     1       2.462   4.131  17.825  0.00  0.00    +0.000 A 
ATOM     26  F   UNL     1       1.654   3.067  17.931  0.00  0.00    +0.000 F 
ATOM     27  C   UNL     1       2.006   5.375  18.242  0.00  0.00    +0.000 A 
ENDBRANCH  16  19
ENDBRANCH   4  15
TORSDOF 3
ENDMDL
MODEL 5
REMARK VINA RESULT:      -7.6      0.864      1.277
REMARK  Name = 
REMARK  5 active torsions:
REMARK  status: ('A' for Active; 'I' for Inactive)
REMARK    1  A    between atoms: C_1  and  N_2
REMARK    2  A    between atoms: N_2  and  C_3
REMARK    3  A    between atoms: C_7  and  C_8
REMARK    4  A    between atoms: C_11  and  N_12
REMARK    5  A    between atoms: C_13  and  C_15
REMARK                            x       y       z     vdW  Elec       q    Type
REMARK                         _______ _______ _______ _____ _____    ______ ____
ROOT
ATOM      1  C   UNL     1       2.516   7.541  18.573  0.00  0.00    +0.000 A 
ATOM      2  C   UNL     1       2.143   7.396  19.913  0.00  0.00    +0.000 A 
ATOM      3  C   UNL     1       1.228   8.268  20.510  0.00  0.00    +0.000 A 
ATOM      4  C   UNL     1       0.660   9.320  19.787  0.00  0.00    +0.000 A 
ATOM      5  C   UNL     1       1.034   9.478  18.446  0.00  0.00    +0.000 A 
ATOM      6  C   UNL     1       1.950   8.596  17.845  0.00  0.00    +0.000 A 
ENDROOT
BRANCH   1  13
ATOM      7  C   UNL     1       7.438   6.851  17.254  0.00  0.00    +0.000 C 
ATOM      8  N   UNL     1       6.494   5.975  16.590  0.00  0.00    +0.000 N 
ATOM      9  C   UNL     1       7.001   4.809  15.887  0.00  0.00    +0.000 C 
ATOM     10  C   UNL     1       5.236   5.887  17.084  0.00  0.00    +0.000 A 
ATOM     11  N   UNL     1       4.379   4.888  17.037  0.00  0.00    +0.000 NA
ATOM     12  N   UNL     1       3.223   5.324  17.641  0.00  0.00    +0.000 NA
ATOM     13  C   UNL     1       3.441   6.575  17.995  0.00  0.00    +0.000 A 
ATOM     14  O   UNL     1       4.711   6.994  17.703  0.00  0.00    +0.000 OA
ENDBRANCH   1  13
BRANCH   4  15
ATOM     15  N   UNL     1      -0.284  10.227  20.337  0.00  0.00    +0.000 N 
ATOM     16  C   UNL     1      -0.002  11.233  21.244  0.00  0.00    +0.000 C 
ATOM     17  O   UNL     1       1.112  11.530  21.675  0.00  0.00    +0.000 OA
ATOM     18  H   UNL     1      -1.231  10.133  19.995  0.00  0.00    +0.000 HD
BRANCH  16  19
ATOM     19  C   UNL     1      -1.135  12.054  21.757  0.00  0.00    +0.000 A 
ATOM     20  C   UNL     1      -1.901  11.699  22.872  0.00  0.00    +0.000 A 
ATOM     21  C   UNL     1      -2.873  12.586  23.341  0.00  0.00    +0.000 A 
ATOM     22  F   UNL     1      -3.590  12.249  24.422  0.00  0.00    +0.000 F 
ATOM     23  C   UNL     1      -3.090  13.812  22.722  0.00  0.00    +0.000 A 
ATOM     24  F   UNL     1      -4.009  14.661  23.203  0.00  0.00    +0.000 F 
ATOM     25  C   UNL     1      -2.336  14.158  21.613  0.00  0.00    +0.000 A 
ATOM     26  F   UNL     1      -2.521  15.340  21.010  0.00  0.00    +0.000 F 
ATOM     27  C   UNL     1      -1.365  13.291  21.127  0.00  0.00    +0.000 A 
ENDBRANCH  16  19
ENDBRANCH   4  15
TORSDOF 3
ENDMDL
MODEL 6
REMARK VINA RESULT:      -7.6      5.122     10.139
REMARK  Name = 
REMARK  5 active torsions:
REMARK  status: ('A' for Active; 'I' for Inactive)
REMARK    1  A    between atoms: C_1  and  N_2
REMARK    2  A    between atoms: N_2  and  C_3
REMARK    3  A    between atoms: C_7  and  C_8
REMARK    4  A    between atoms: C_11  and  N_12
REMARK    5  A    between atoms: C_13  and  C_15
REMARK                            x       y       z     vdW  Elec       q    Type
REMARK                         _______ _______ _______ _____ _____    ______ ____
ROOT
ATOM      1  C   UNL     1      -0.670  11.264  22.571  0.00  0.00    +0.000 A 
ATOM      2  C   UNL     1       0.094  11.478  21.419  0.00  0.00    +0.000 A 
ATOM      3  C   UNL     1       0.861  10.453  20.858  0.00  0.00    +0.000 A 
ATOM      4  C   UNL     1       0.895   9.181  21.435  0.00  0.00    +0.000 A 
ATOM      5  C   UNL     1       0.139   8.961  22.594  0.00  0.00    +0.000 A 
ATOM      6  C   UNL     1      -0.638   9.991  23.154  0.00  0.00    +0.000 A 
ENDROOT
BRANCH   1  13
ATOM      7  C   UNL     1      -0.444  16.148  24.167  0.00  0.00    +0.000 C 
ATOM      8  N   UNL     1      -1.596  15.401  24.630  0.00  0.00    +0.000 N 
ATOM      9  C   UNL     1      -2.713  16.130  25.207  0.00  0.00    +0.000 C 
ATOM     10  C   UNL     1      -1.885  14.221  24.032  0.00  0.00    +0.000 A 
ATOM     11  N   UNL     1      -3.045  13.617  23.877  0.00  0.00    +0.000 NA
ATOM     12  N   UNL     1      -2.790  12.420  23.248  0.00  0.00    +0.000 NA
ATOM     13  C   UNL     1      -1.483  12.360  23.084  0.00  0.00    +0.000 A 
ATOM     14  O   UNL     1      -0.842  13.485  23.528  0.00  0.00    +0.000 OA
ENDBRANCH   1  13
BRANCH   4  15
ATOM     15  N   UNL     1       1.644   8.100  20.902  0.00  0.00    +0.000 N 
ATOM     16  C   UNL     1       1.948   7.911  19.565  0.00  0.00    +0.000 C 
ATOM     17  O   UNL     1       1.661   8.672  18.642  0.00  0.00    +0.000 OA
ATOM     18  H   UNL     1       2.007   7.442  21.579  0.00  0.00    +0.000 HD
BRANCH  16  19
ATOM     19  C   UNL     1       2.700   6.683  19.182  0.00  0.00    +0.000 A 
ATOM     20  C   UNL     1       2.667   5.497  19.922  0.00  0.00    +0.000 A 
ATOM     21  C   UNL     1       3.318   4.365  19.426  0.00  0.00    +0.000 A 
ATOM     22  F   UNL     1       3.266   3.227  20.130  0.00  0.00    +0.000 F 
ATOM     23  C   UNL     1       3.996   4.396  18.212  0.00  0.00    +0.000 A 
ATOM     24  F   UNL     1       4.592   3.293  17.740  0.00  0.00    +0.000 F 
ATOM     25  C   UNL     1       4.033   5.574  17.484  0.00  0.00    +0.000 A 
ATOM     26  F   UNL     1       4.669   5.622  16.306  0.00  0.00    +0.000 F 
ATOM     27  C   UNL     1       3.394   6.713  17.959  0.00  0.00    +0.000 A 
ENDBRANCH  16  19
ENDBRANCH   4  15
TORSDOF 3
ENDMDL
MODEL 7
REMARK VINA RESULT:      -7.6      7.436      9.514
REMARK  Name = 
REMARK  5 active torsions:
REMARK  status: ('A' for Active; 'I' for Inactive)
REMARK    1  A    between atoms: C_1  and  N_2
REMARK    2  A    between atoms: N_2  and  C_3
REMARK    3  A    between atoms: C_7  and  C_8
REMARK    4  A    between atoms: C_11  and  N_12
REMARK    5  A    between atoms: C_13  and  C_15
REMARK                            x       y       z     vdW  Elec       q    Type
REMARK                         _______ _______ _______ _____ _____    ______ ____
ROOT
ATOM      1  C   UNL     1       6.119   6.151  17.896  0.00  0.00    +0.000 A 
ATOM      2  C   UNL     1       7.298   6.067  18.643  0.00  0.00    +0.000 A 
ATOM      3  C   UNL     1       8.215   7.122  18.671  0.00  0.00    +0.000 A 
ATOM      4  C   UNL     1       7.985   8.294  17.946  0.00  0.00    +0.000 A 
ATOM      5  C   UNL     1       6.810   8.383  17.189  0.00  0.00    +0.000 A 
ATOM      6  C   UNL     1       5.885   7.323  17.167  0.00  0.00    +0.000 A 
ENDROOT
BRANCH   1  13
ATOM      7  C   UNL     1       1.827   4.487  20.188  0.00  0.00    +0.000 C 
ATOM      8  N   UNL     1       2.648   3.452  19.593  0.00  0.00    +0.000 N 
ATOM      9  C   UNL     1       2.075   2.130  19.405  0.00  0.00    +0.000 C 
ATOM     10  C   UNL     1       3.626   3.819  18.730  0.00  0.00    +0.000 A 
ATOM     11  N   UNL     1       4.148   3.158  17.718  0.00  0.00    +0.000 NA
ATOM     12  N   UNL     1       5.143   3.951  17.194  0.00  0.00    +0.000 NA
ATOM     13  C   UNL     1       5.182   5.036  17.941  0.00  0.00    +0.000 A 
ATOM     14  O   UNL     1       4.224   5.039  18.919  0.00  0.00    +0.000 OA
ENDBRANCH   1  13
BRANCH   4  15
ATOM     15  N   UNL     1       8.873   9.402  17.949  0.00  0.00    +0.000 N 
ATOM     16  C   UNL     1       9.212  10.163  19.054  0.00  0.00    +0.000 C 
ATOM     17  O   UNL     1       8.837   9.968  20.210  0.00  0.00    +0.000 OA
ATOM     18  H   UNL     1       9.312   9.613  17.062  0.00  0.00    +0.000 HD
BRANCH  16  19
ATOM     19  C   UNL     1      10.120  11.327  18.854  0.00  0.00    +0.000 A 
ATOM     20  C   UNL     1      10.711  11.642  17.627  0.00  0.00    +0.000 A 
ATOM     21  C   UNL     1      11.462  12.814  17.512  0.00  0.00    +0.000 A 
ATOM     22  F   UNL     1      12.009  13.119  16.328  0.00  0.00    +0.000 F 
ATOM     23  C   UNL     1      11.629  13.672  18.593  0.00  0.00    +0.000 A 
ATOM     24  F   UNL     1      12.330  14.806  18.456  0.00  0.00    +0.000 F 
ATOM     25  C   UNL     1      11.048  13.355  19.810  0.00  0.00    +0.000 A 
ATOM     26  F   UNL     1      11.186  14.175  20.860  0.00  0.00    +0.000 F 
ATOM     27  C   UNL     1      10.299  12.193  19.948  0.00  0.00    +0.000 A 
ENDBRANCH  16  19
ENDBRANCH   4  15
TORSDOF 3
ENDMDL
MODEL 8
REMARK VINA RESULT:      -7.6      5.381     10.455
REMARK  Name = 
REMARK  5 active torsions:
REMARK  status: ('A' for Active; 'I' for Inactive)
REMARK    1  A    between atoms: C_1  and  N_2
REMARK    2  A    between atoms: N_2  and  C_3
REMARK    3  A    between atoms: C_7  and  C_8
REMARK    4  A    between atoms: C_11  and  N_12
REMARK    5  A    between atoms: C_13  and  C_15
REMARK                            x       y       z     vdW  Elec       q    Type
REMARK                         _______ _______ _______ _____ _____    ______ ____
ROOT
ATOM      1  C   UNL     1      -0.002  10.414  21.035  0.00  0.00    +0.000 A 
ATOM      2  C   UNL     1       0.585   9.293  21.628  0.00  0.00    +0.000 A 
ATOM      3  C   UNL     1       1.336   8.385  20.876  0.00  0.00    +0.000 A 
ATOM      4  C   UNL     1       1.520   8.566  19.503  0.00  0.00    +0.000 A 
ATOM      5  C   UNL     1       0.928   9.683  18.899  0.00  0.00    +0.000 A 
ATOM      6  C   UNL     1       0.177  10.599  19.658  0.00  0.00    +0.000 A 
ENDROOT
BRANCH   1  13
ATOM      7  C   UNL     1      -4.441  12.984  21.415  0.00  0.00    +0.000 C 
ATOM      8  N   UNL     1      -3.345  13.531  22.188  0.00  0.00    +0.000 N 
ATOM      9  C   UNL     1      -3.640  14.514  23.216  0.00  0.00    +0.000 C 
ATOM     10  C   UNL     1      -2.242  12.767  22.377  0.00  0.00    +0.000 A 
ATOM     11  N   UNL     1      -1.378  12.765  23.371  0.00  0.00    +0.000 NA
ATOM     12  N   UNL     1      -0.413  11.836  23.059  0.00  0.00    +0.000 NA
ATOM     13  C   UNL     1      -0.738  11.348  21.879  0.00  0.00    +0.000 A 
ATOM     14  O   UNL     1      -1.908  11.868  21.395  0.00  0.00    +0.000 OA
ENDBRANCH   1  13
BRANCH   4  15
ATOM     15  N   UNL     1       2.283   7.685  18.694  0.00  0.00    +0.000 N 
ATOM     16  C   UNL     1       2.491   6.338  18.939  0.00  0.00    +0.000 C 
ATOM     17  O   UNL     1       2.007   5.688  19.865  0.00  0.00    +0.000 OA
ATOM     18  H   UNL     1       2.671   8.089  17.852  0.00  0.00    +0.000 HD
BRANCH  16  19
ATOM     19  C   UNL     1       3.372   5.582  18.006  0.00  0.00    +0.000 A 
ATOM     20  C   UNL     1       4.315   6.190  17.172  0.00  0.00    +0.000 A 
ATOM     21  C   UNL     1       5.169   5.390  16.410  0.00  0.00    +0.000 A 
ATOM     22  F   UNL     1       6.084   5.979  15.629  0.00  0.00    +0.000 F 
ATOM     23  C   UNL     1       5.100   4.002  16.468  0.00  0.00    +0.000 A 
ATOM     24  F   UNL     1       5.947   3.251  15.750  0.00  0.00    +0.000 F 
ATOM     25  C   UNL     1       4.160   3.401  17.289  0.00  0.00    +0.000 A 
ATOM     26  F   UNL     1       4.086   2.066  17.369  0.00  0.00    +0.000 F 
ATOM     27  C   UNL     1       3.298   4.178  18.054  0.00  0.00    +0.000 A 
ENDBRANCH  16  19
ENDBRANCH   4  15
TORSDOF 3
ENDMDL
MODEL 9
REMARK VINA RESULT:      -7.6      5.350     10.264
REMARK  Name = 
REMARK  5 active torsions:
REMARK  status: ('A' for Active; 'I' for Inactive)
REMARK    1  A    between atoms: C_1  and  N_2
REMARK    2  A    between atoms: N_2  and  C_3
REMARK    3  A    between atoms: C_7  and  C_8
REMARK    4  A    between atoms: C_11  and  N_12
REMARK    5  A    between atoms: C_13  and  C_15
REMARK                            x       y       z     vdW  Elec       q    Type
REMARK                         _______ _______ _______ _____ _____    ______ ____
ROOT
ATOM      1  C   UNL     1      -0.063  10.528  21.077  0.00  0.00    +0.000 A 
ATOM      2  C   UNL     1       0.579   9.499  21.773  0.00  0.00    +0.000 A 
ATOM      3  C   UNL     1       1.349   8.543  21.105  0.00  0.00    +0.000 A 
ATOM      4  C   UNL     1       1.496   8.580  19.716  0.00  0.00    +0.000 A 
ATOM      5  C   UNL     1       0.850   9.603  19.010  0.00  0.00    +0.000 A 
ATOM      6  C   UNL     1       0.081  10.569  19.684  0.00  0.00    +0.000 A 
ENDROOT
BRANCH   1  13
ATOM      7  C   UNL     1      -4.180  13.602  20.856  0.00  0.00    +0.000 C 
ATOM      8  N   UNL     1      -3.171  13.992  21.819  0.00  0.00    +0.000 N 
ATOM      9  C   UNL     1      -3.517  14.977  22.829  0.00  0.00    +0.000 C 
ATOM     10  C   UNL     1      -2.210  13.097  22.147  0.00  0.00    +0.000 A 
ATOM     11  N   UNL     1      -1.527  12.966  23.266  0.00  0.00    +0.000 NA
ATOM     12  N   UNL     1      -0.636  11.935  23.071  0.00  0.00    +0.000 NA
ATOM     13  C   UNL     1      -0.816  11.521  21.833  0.00  0.00    +0.000 A 
ATOM     14  O   UNL     1      -1.823  12.191  21.192  0.00  0.00    +0.000 OA
ENDBRANCH   1  13
BRANCH   4  15
ATOM     15  N   UNL     1       2.276   7.644  18.987  0.00  0.00    +0.000 N 
ATOM     16  C   UNL     1       2.416   6.300  19.290  0.00  0.00    +0.000 C 
ATOM     17  O   UNL     1       1.849   5.701  20.203  0.00  0.00    +0.000 OA
ATOM     18  H   UNL     1       2.731   8.004  18.159  0.00  0.00    +0.000 HD
BRANCH  16  19
ATOM     19  C   UNL     1       3.325   5.480  18.441  0.00  0.00    +0.000 A 
ATOM     20  C   UNL     1       3.306   4.082  18.419  0.00  0.00    +0.000 A 
ATOM     21  C   UNL     1       4.123   3.403  17.512  0.00  0.00    +0.000 A 
ATOM     22  F   UNL     1       4.086   2.064  17.482  0.00  0.00    +0.000 F 
ATOM     23  C   UNL     1       4.951   4.092  16.631  0.00  0.00    +0.000 A 
ATOM     24  F   UNL     1       5.707   3.423  15.750  0.00  0.00    +0.000 F 
ATOM     25  C   UNL     1       4.973   5.476  16.660  0.00  0.00    +0.000 A 
ATOM     26  F   UNL     1       5.754   6.158  15.812  0.00  0.00    +0.000 F 
ATOM     27  C   UNL     1       4.171   6.172  17.556  0.00  0.00    +0.000 A 
ENDBRANCH  16  19
ENDBRANCH   4  15
TORSDOF 3
ENDMDL
