MODEL 1
REMARK VINA RESULT:      -8.5      0.000      0.000
REMARK  Name = 
REMARK  5 active torsions:
REMARK  status: ('A' for Active; 'I' for Inactive)
REMARK    1  A    between atoms: C_2  and  C_3
REMARK    2  A    between atoms: C_3  and  C_4
REMARK    3  A    between atoms: C_8  and  C_9
REMARK    4  A    between atoms: N_15  and  C_16
REMARK    5  A    between atoms: C_20  and  C_21
REMARK                            x       y       z     vdW  Elec       q    Type
REMARK                         _______ _______ _______ _____ _____    ______ ____
ROOT
ATOM      1  C   UNL     1       1.537   6.729  20.628  0.00  0.00    +0.000 A 
ATOM      2  C   UNL     1       2.342   7.205  19.590  0.00  0.00    +0.000 A 
ATOM      3  C   UNL     1       2.973   6.280  18.782  0.00  0.00    +0.000 A 
ATOM      4  C   UNL     1       2.845   4.905  18.948  0.00  0.00    +0.000 A 
ATOM      5  C   UNL     1       2.050   4.396  19.972  0.00  0.00    +0.000 A 
ATOM      6  C   UNL     1       1.389   5.331  20.802  0.00  0.00    +0.000 A 
ATOM      7  C   UNL     1       3.667   4.208  17.909  0.00  0.00    +0.000 C 
ATOM      8  N   UNL     1       4.282   5.303  17.166  0.00  0.00    +0.000 N 
ATOM      9  C   UNL     1       3.887   6.545  17.669  0.00  0.00    +0.000 C 
ATOM     10  O   UNL     1       4.178   7.678  17.340  0.00  0.00    +0.000 OA
ENDROOT
BRANCH   8  11
ATOM     11  C   UNL     1       5.249   5.083  16.148  0.00  0.00    +0.000 A 
ATOM     12  C   UNL     1       6.603   5.392  16.348  0.00  0.00    +0.000 A 
ATOM     13  C   UNL     1       7.569   5.089  15.386  0.00  0.00    +0.000 A 
ATOM     14  C   UNL     1       7.200   4.464  14.202  0.00  0.00    +0.000 A 
ATOM     15  C   UNL     1       5.857   4.174  13.976  0.00  0.00    +0.000 A 
ATOM     16  C   UNL     1       4.884   4.498  14.927  0.00  0.00    +0.000 A 
BRANCH  15  17
ATOM     17  C   UNL     1       5.481   3.465  12.731  0.00  0.00    +0.000 C 
ATOM     18  C   UNL     1       4.401   3.468  11.925  0.00  0.00    +0.000 C 
ATOM     19  C   UNL     1       4.972   2.434  10.984  0.00  0.00    +0.000 C 
ATOM     20  C   UNL     1       6.190   2.394  11.921  0.00  0.00    +0.000 C 
ENDBRANCH  15  17
ENDBRANCH   8  11
BRANCH   5  21
ATOM     21  C   UNL     1       1.894   2.921  20.231  0.00  0.00    +0.000 C 
ATOM     22  F   UNL     1       1.143   2.636  21.331  0.00  0.00    +0.000 F 
ATOM     23  F   UNL     1       1.292   2.276  19.195  0.00  0.00    +0.000 F 
ATOM     24  F   UNL     1       3.086   2.294  20.422  0.00  0.00    +0.000 F 
ENDBRANCH   5  21
BRANCH   1  25
ATOM     25  C   UNL     1       0.834   7.702  21.545  0.00  0.00    +0.000 C 
BRANCH  25  27
ATOM     26  C   UNL     1      -0.114   9.748  20.438  0.00  0.00    +0.000 C 
ATOM     27  C   UNL     1       0.898   9.118  21.050  0.00  0.00    +0.000 C 
ENDBRANCH  25  27
ENDBRANCH   1  25
TORSDOF 5
ENDMDL
MODEL 2
REMARK VINA RESULT:      -8.3      1.735      7.691
REMARK  Name = 
REMARK  5 active torsions:
REMARK  status: ('A' for Active; 'I' for Inactive)
REMARK    1  A    between atoms: C_2  and  C_3
REMARK    2  A    between atoms: C_3  and  C_4
REMARK    3  A    between atoms: C_8  and  C_9
REMARK    4  A    between atoms: N_15  and  C_16
REMARK    5  A    between atoms: C_20  and  C_21
REMARK                            x       y       z     vdW  Elec       q    Type
REMARK                         _______ _______ _______ _____ _____    ______ ____
ROOT
ATOM      1  C   UNL     1       5.287   4.695  15.921  0.00  0.00    +0.000 A 
ATOM      2  C   UNL     1       4.952   5.995  16.309  0.00  0.00    +0.000 A 
ATOM      3  C   UNL     1       4.030   6.151  17.325  0.00  0.00    +0.000 A 
ATOM      4  C   UNL     1       3.424   5.083  17.979  0.00  0.00    +0.000 A 
ATOM      5  C   UNL     1       3.735   3.775  17.617  0.00  0.00    +0.000 A 
ATOM      6  C   UNL     1       4.685   3.598  16.585  0.00  0.00    +0.000 A 
ATOM      7  C   UNL     1       2.479   5.614  19.011  0.00  0.00    +0.000 C 
ATOM      8  N   UNL     1       2.588   7.063  18.866  0.00  0.00    +0.000 N 
ATOM      9  C   UNL     1       3.503   7.405  17.866  0.00  0.00    +0.000 C 
ATOM     10  O   UNL     1       3.865   8.484  17.439  0.00  0.00    +0.000 OA
ENDROOT
BRANCH   8  11
ATOM     11  C   UNL     1       1.760   7.965  19.585  0.00  0.00    +0.000 A 
ATOM     12  C   UNL     1       1.432   7.741  20.930  0.00  0.00    +0.000 A 
ATOM     13  C   UNL     1       0.696   8.674  21.666  0.00  0.00    +0.000 A 
ATOM     14  C   UNL     1       0.276   9.855  21.068  0.00  0.00    +0.000 A 
ATOM     15  C   UNL     1       0.570  10.081  19.726  0.00  0.00    +0.000 A 
ATOM     16  C   UNL     1       1.285   9.139  18.980  0.00  0.00    +0.000 A 
BRANCH  15  17
ATOM     17  C   UNL     1       0.158  11.365  19.113  0.00  0.00    +0.000 C 
ATOM     18  C   UNL     1       0.780  12.528  18.837  0.00  0.00    +0.000 C 
ATOM     19  C   UNL     1      -0.458  13.173  18.261  0.00  0.00    +0.000 C 
ATOM     20  C   UNL     1      -1.185  11.864  18.611  0.00  0.00    +0.000 C 
ENDBRANCH  15  17
ENDBRANCH   8  11
BRANCH   5  21
ATOM     21  C   UNL     1       3.091   2.573  18.258  0.00  0.00    +0.000 C 
ATOM     22  F   UNL     1       1.738   2.533  18.109  0.00  0.00    +0.000 F 
ATOM     23  F   UNL     1       3.555   1.403  17.742  0.00  0.00    +0.000 F 
ATOM     24  F   UNL     1       3.320   2.510  19.598  0.00  0.00    +0.000 F 
ENDBRANCH   5  21
BRANCH   1  25
ATOM     25  C   UNL     1       6.283   4.474  14.807  0.00  0.00    +0.000 C 
BRANCH  25  27
ATOM     26  C   UNL     1       6.337   3.547  12.473  0.00  0.00    +0.000 C 
ATOM     27  C   UNL     1       5.686   3.770  13.623  0.00  0.00    +0.000 C 
ENDBRANCH  25  27
ENDBRANCH   1  25
TORSDOF 5
ENDMDL
MODEL 3
REMARK VINA RESULT:      -8.2      3.232      5.396
REMARK  Name = 
REMARK  5 active torsions:
REMARK  status: ('A' for Active; 'I' for Inactive)
REMARK    1  A    between atoms: C_2  and  C_3
REMARK    2  A    between atoms: C_3  and  C_4
REMARK    3  A    between atoms: C_8  and  C_9
REMARK    4  A    between atoms: N_15  and  C_16
REMARK    5  A    between atoms: C_20  and  C_21
REMARK                            x       y       z     vdW  Elec       q    Type
REMARK                         _______ _______ _______ _____ _____    ______ ____
ROOT
ATOM      1  C   UNL     1       0.033  11.757  19.465  0.00  0.00    +0.000 A 
ATOM      2  C   UNL     1       0.764  10.916  18.623  0.00  0.00    +0.000 A 
ATOM      3  C   UNL     1       1.157   9.688  19.116  0.00  0.00    +0.000 A 
ATOM      4  C   UNL     1       0.862   9.249  20.403  0.00  0.00    +0.000 A 
ATOM      5  C   UNL     1       0.136  10.063  21.268  0.00  0.00    +0.000 A 
ATOM      6  C   UNL     1      -0.284  11.319  20.775  0.00  0.00    +0.000 A 
ATOM      7  C   UNL     1       1.447   7.886  20.601  0.00  0.00    +0.000 C 
ATOM      8  N   UNL     1       2.113   7.609  19.333  0.00  0.00    +0.000 N 
ATOM      9  C   UNL     1       1.957   8.668  18.435  0.00  0.00    +0.000 C 
ATOM     10  O   UNL     1       2.360   8.829  17.299  0.00  0.00    +0.000 OA
ENDROOT
BRANCH   8  11
ATOM     11  C   UNL     1       2.909   6.450  19.128  0.00  0.00    +0.000 A 
ATOM     12  C   UNL     1       2.754   5.307  19.926  0.00  0.00    +0.000 A 
ATOM     13  C   UNL     1       3.469   4.135  19.666  0.00  0.00    +0.000 A 
ATOM     14  C   UNL     1       4.353   4.082  18.597  0.00  0.00    +0.000 A 
ATOM     15  C   UNL     1       4.539   5.216  17.811  0.00  0.00    +0.000 A 
ATOM     16  C   UNL     1       3.843   6.398  18.082  0.00  0.00    +0.000 A 
BRANCH  15  17
ATOM     17  C   UNL     1       5.448   5.133  16.645  0.00  0.00    +0.000 C 
ATOM     18  C   UNL     1       5.404   5.576  15.372  0.00  0.00    +0.000 C 
ATOM     19  C   UNL     1       6.744   4.982  15.010  0.00  0.00    +0.000 C 
ATOM     20  C   UNL     1       6.783   4.438  16.447  0.00  0.00    +0.000 C 
ENDBRANCH  15  17
ENDBRANCH   8  11
BRANCH   5  21
ATOM     21  C   UNL     1      -0.190   9.666  22.684  0.00  0.00    +0.000 C 
ATOM     22  F   UNL     1      -0.879  10.618  23.374  0.00  0.00    +0.000 F 
ATOM     23  F   UNL     1      -0.955   8.542  22.743  0.00  0.00    +0.000 F 
ATOM     24  F   UNL     1       0.921   9.404  23.423  0.00  0.00    +0.000 F 
ENDBRANCH   5  21
BRANCH   1  25
ATOM     25  C   UNL     1      -0.412  13.115  18.974  0.00  0.00    +0.000 C 
BRANCH  25  27
ATOM     26  C   UNL     1       1.382  14.756  19.603  0.00  0.00    +0.000 C 
ATOM     27  C   UNL     1       0.739  14.032  18.677  0.00  0.00    +0.000 C 
ENDBRANCH  25  27
ENDBRANCH   1  25
TORSDOF 5
ENDMDL
MODEL 4
REMARK VINA RESULT:      -8.1      2.008      7.655
REMARK  Name = 
REMARK  5 active torsions:
REMARK  status: ('A' for Active; 'I' for Inactive)
REMARK    1  A    between atoms: C_2  and  C_3
REMARK    2  A    between atoms: C_3  and  C_4
REMARK    3  A    between atoms: C_8  and  C_9
REMARK    4  A    between atoms: N_15  and  C_16
REMARK    5  A    between atoms: C_20  and  C_21
REMARK                            x       y       z     vdW  Elec       q    Type
REMARK                         _______ _______ _______ _____ _____    ______ ____
ROOT
ATOM      1  C   UNL     1       4.519   4.408  16.827  0.00  0.00    +0.000 A 
ATOM      2  C   UNL     1       4.245   5.764  17.026  0.00  0.00    +0.000 A 
ATOM      3  C   UNL     1       3.421   6.111  18.078  0.00  0.00    +0.000 A 
ATOM      4  C   UNL     1       2.855   5.183  18.946  0.00  0.00    +0.000 A 
ATOM      5  C   UNL     1       3.107   3.825  18.776  0.00  0.00    +0.000 A 
ATOM      6  C   UNL     1       3.957   3.453  17.710  0.00  0.00    +0.000 A 
ATOM      7  C   UNL     1       2.017   5.904  19.956  0.00  0.00    +0.000 C 
ATOM      8  N   UNL     1       2.141   7.306  19.568  0.00  0.00    +0.000 N 
ATOM      9  C   UNL     1       2.969   7.453  18.452  0.00  0.00    +0.000 C 
ATOM     10  O   UNL     1       3.312   8.437  17.826  0.00  0.00    +0.000 OA
ENDROOT
BRANCH   8  11
ATOM     11  C   UNL     1       1.398   8.339  20.199  0.00  0.00    +0.000 A 
ATOM     12  C   UNL     1       1.097   8.290  21.568  0.00  0.00    +0.000 A 
ATOM     13  C   UNL     1       0.449   9.349  22.210  0.00  0.00    +0.000 A 
ATOM     14  C   UNL     1       0.092  10.483  21.493  0.00  0.00    +0.000 A 
ATOM     15  C   UNL     1       0.360  10.537  20.127  0.00  0.00    +0.000 A 
ATOM     16  C   UNL     1       0.987   9.469  19.477  0.00  0.00    +0.000 A 
BRANCH  15  17
ATOM     17  C   UNL     1       0.018  11.771  19.383  0.00  0.00    +0.000 C 
ATOM     18  C   UNL     1       0.600  12.976  19.224  0.00  0.00    +0.000 C 
ATOM     19  C   UNL     1      -0.501  13.506  18.336  0.00  0.00    +0.000 C 
ATOM     20  C   UNL     1      -1.192  12.149  18.547  0.00  0.00    +0.000 C 
ENDBRANCH  15  17
ENDBRANCH   8  11
BRANCH   5  21
ATOM     21  C   UNL     1       2.500   2.763  19.656  0.00  0.00    +0.000 C 
ATOM     22  F   UNL     1       2.959   2.789  20.939  0.00  0.00    +0.000 F 
ATOM     23  F   UNL     1       1.147   2.878  19.746  0.00  0.00    +0.000 F 
ATOM     24  F   UNL     1       2.742   1.505  19.200  0.00  0.00    +0.000 F 
ENDBRANCH   5  21
BRANCH   1  25
ATOM     25  C   UNL     1       5.406   3.979  15.683  0.00  0.00    +0.000 C 
BRANCH  25  27
ATOM     26  C   UNL     1       7.458   4.584  16.998  0.00  0.00    +0.000 C 
ATOM     27  C   UNL     1       6.819   4.467  15.827  0.00  0.00    +0.000 C 
ENDBRANCH  25  27
ENDBRANCH   1  25
TORSDOF 5
ENDMDL
MODEL 5
REMARK VINA RESULT:      -8.0      2.536      7.774
REMARK  Name = 
REMARK  5 active torsions:
REMARK  status: ('A' for Active; 'I' for Inactive)
REMARK    1  A    between atoms: C_2  and  C_3
REMARK    2  A    between atoms: C_3  and  C_4
REMARK    3  A    between atoms: C_8  and  C_9
REMARK    4  A    between atoms: N_15  and  C_16
REMARK    5  A    between atoms: C_20  and  C_21
REMARK                            x       y       z     vdW  Elec       q    Type
REMARK                         _______ _______ _______ _____ _____    ______ ____
ROOT
ATOM      1  C   UNL     1       4.210   4.937  17.665  0.00  0.00    +0.000 A 
ATOM      2  C   UNL     1       3.846   6.269  17.453  0.00  0.00    +0.000 A 
ATOM      3  C   UNL     1       2.971   6.852  18.348  0.00  0.00    +0.000 A 
ATOM      4  C   UNL     1       2.439   6.182  19.445  0.00  0.00    +0.000 A 
ATOM      5  C   UNL     1       2.781   4.854  19.686  0.00  0.00    +0.000 A 
ATOM      6  C   UNL     1       3.684   4.246  18.784  0.00  0.00    +0.000 A 
ATOM      7  C   UNL     1       1.528   7.108  20.189  0.00  0.00    +0.000 C 
ATOM      8  N   UNL     1       1.574   8.339  19.407  0.00  0.00    +0.000 N 
ATOM      9  C   UNL     1       2.423   8.209  18.305  0.00  0.00    +0.000 C 
ATOM     10  O   UNL     1       2.722   8.988  17.421  0.00  0.00    +0.000 OA
ENDROOT
BRANCH   8  11
ATOM     11  C   UNL     1       0.749   9.458  19.699  0.00  0.00    +0.000 A 
ATOM     12  C   UNL     1       1.100  10.387  20.689  0.00  0.00    +0.000 A 
ATOM     13  C   UNL     1       0.340  11.538  20.913  0.00  0.00    +0.000 A 
ATOM     14  C   UNL     1      -0.790  11.784  20.144  0.00  0.00    +0.000 A 
ATOM     15  C   UNL     1      -1.168  10.859  19.174  0.00  0.00    +0.000 A 
ATOM     16  C   UNL     1      -0.423   9.695  18.964  0.00  0.00    +0.000 A 
BRANCH  15  17
ATOM     17  C   UNL     1      -2.347  11.157  18.328  0.00  0.00    +0.000 C 
ATOM     18  C   UNL     1      -2.599  11.124  17.004  0.00  0.00    +0.000 C 
ATOM     19  C   UNL     1      -4.023  11.602  17.158  0.00  0.00    +0.000 C 
ATOM     20  C   UNL     1      -3.731  11.681  18.666  0.00  0.00    +0.000 C 
ENDBRANCH  15  17
ENDBRANCH   8  11
BRANCH   5  21
ATOM     21  C   UNL     1       2.217   4.059  20.834  0.00  0.00    +0.000 C 
ATOM     22  F   UNL     1       2.521   4.573  22.057  0.00  0.00    +0.000 F 
ATOM     23  F   UNL     1       0.859   3.983  20.791  0.00  0.00    +0.000 F 
ATOM     24  F   UNL     1       2.665   2.774  20.849  0.00  0.00    +0.000 F 
ENDBRANCH   5  21
BRANCH   1  25
ATOM     25  C   UNL     1       5.157   4.253  16.706  0.00  0.00    +0.000 C 
BRANCH  25  27
ATOM     26  C   UNL     1       7.455   4.649  17.637  0.00  0.00    +0.000 C 
ATOM     27  C   UNL     1       6.525   4.871  16.699  0.00  0.00    +0.000 C 
ENDBRANCH  25  27
ENDBRANCH   1  25
TORSDOF 5
ENDMDL
MODEL 6
REMARK VINA RESULT:      -8.0      2.109      8.049
REMARK  Name = 
REMARK  5 active torsions:
REMARK  status: ('A' for Active; 'I' for Inactive)
REMARK    1  A    between atoms: C_2  and  C_3
REMARK    2  A    between atoms: C_3  and  C_4
REMARK    3  A    between atoms: C_8  and  C_9
REMARK    4  A    between atoms: N_15  and  C_16
REMARK    5  A    between atoms: C_20  and  C_21
REMARK                            x       y       z     vdW  Elec       q    Type
REMARK                         _______ _______ _______ _____ _____    ______ ____
ROOT
ATOM      1  C   UNL     1       3.783   4.697  17.717  0.00  0.00    +0.000 A 
ATOM      2  C   UNL     1       3.485   6.062  17.749  0.00  0.00    +0.000 A 
ATOM      3  C   UNL     1       2.743   6.538  18.811  0.00  0.00    +0.000 A 
ATOM      4  C   UNL     1       2.281   5.732  19.846  0.00  0.00    +0.000 A 
ATOM      5  C   UNL     1       2.559   4.368  19.845  0.00  0.00    +0.000 A 
ATOM      6  C   UNL     1       3.327   3.865  18.770  0.00  0.00    +0.000 A 
ATOM      7  C   UNL     1       1.509   6.572  20.814  0.00  0.00    +0.000 C 
ATOM      8  N   UNL     1       1.557   7.907  20.226  0.00  0.00    +0.000 N 
ATOM      9  C   UNL     1       2.282   7.911  19.032  0.00  0.00    +0.000 C 
ATOM     10  O   UNL     1       2.541   8.803  18.248  0.00  0.00    +0.000 OA
ENDROOT
BRANCH   8  11
ATOM     11  C   UNL     1       0.838   9.005  20.770  0.00  0.00    +0.000 A 
ATOM     12  C   UNL     1       0.333   8.971  22.079  0.00  0.00    +0.000 A 
ATOM     13  C   UNL     1      -0.291  10.084  22.648  0.00  0.00    +0.000 A 
ATOM     14  C   UNL     1      -0.419  11.259  21.918  0.00  0.00    +0.000 A 
ATOM     15  C   UNL     1       0.052  11.301  20.609  0.00  0.00    +0.000 A 
ATOM     16  C   UNL     1       0.656  10.181  20.028  0.00  0.00    +0.000 A 
BRANCH  15  17
ATOM     17  C   UNL     1      -0.047  12.573  19.857  0.00  0.00    +0.000 C 
ATOM     18  C   UNL     1      -1.060  13.384  19.492  0.00  0.00    +0.000 C 
ATOM     19  C   UNL     1      -0.158  14.360  18.776  0.00  0.00    +0.000 C 
ATOM     20  C   UNL     1       0.998  13.419  19.153  0.00  0.00    +0.000 C 
ENDBRANCH  15  17
ENDBRANCH   8  11
BRANCH   5  21
ATOM     21  C   UNL     1       2.062   3.430  20.914  0.00  0.00    +0.000 C 
ATOM     22  F   UNL     1       2.500   2.149  20.765  0.00  0.00    +0.000 F 
ATOM     23  F   UNL     1       2.455   3.813  22.160  0.00  0.00    +0.000 F 
ATOM     24  F   UNL     1       0.704   3.356  20.954  0.00  0.00    +0.000 F 
ENDBRANCH   5  21
BRANCH   1  25
ATOM     25  C   UNL     1       4.584   4.126  16.571  0.00  0.00    +0.000 C 
BRANCH  25  27
ATOM     26  C   UNL     1       6.122   4.932  14.756  0.00  0.00    +0.000 C 
ATOM     27  C   UNL     1       5.250   5.186  15.742  0.00  0.00    +0.000 C 
ENDBRANCH  25  27
ENDBRANCH   1  25
TORSDOF 5
ENDMDL
MODEL 7
REMARK VINA RESULT:      -8.0      2.387      7.779
REMARK  Name = 
REMARK  5 active torsions:
REMARK  status: ('A' for Active; 'I' for Inactive)
REMARK    1  A    between atoms: C_2  and  C_3
REMARK    2  A    between atoms: C_3  and  C_4
REMARK    3  A    between atoms: C_8  and  C_9
REMARK    4  A    between atoms: N_15  and  C_16
REMARK    5  A    between atoms: C_20  and  C_21
REMARK                            x       y       z     vdW  Elec       q    Type
REMARK                         _______ _______ _______ _____ _____    ______ ____
ROOT
ATOM      1  C   UNL     1       4.373   5.208  17.691  0.00  0.00    +0.000 A 
ATOM      2  C   UNL     1       3.964   6.527  17.474  0.00  0.00    +0.000 A 
ATOM      3  C   UNL     1       3.030   7.065  18.336  0.00  0.00    +0.000 A 
ATOM      4  C   UNL     1       2.480   6.364  19.404  0.00  0.00    +0.000 A 
ATOM      5  C   UNL     1       2.865   5.049  19.649  0.00  0.00    +0.000 A 
ATOM      6  C   UNL     1       3.829   4.486  18.782  0.00  0.00    +0.000 A 
ATOM      7  C   UNL     1       1.501   7.245  20.116  0.00  0.00    +0.000 C 
ATOM      8  N   UNL     1       1.530   8.485  19.347  0.00  0.00    +0.000 N 
ATOM      9  C   UNL     1       2.430   8.400  18.281  0.00  0.00    +0.000 C 
ATOM     10  O   UNL     1       2.733   9.198  17.416  0.00  0.00    +0.000 OA
ENDROOT
BRANCH   8  11
ATOM     11  C   UNL     1       0.648   9.567  19.612  0.00  0.00    +0.000 A 
ATOM     12  C   UNL     1       0.931  10.512  20.608  0.00  0.00    +0.000 A 
ATOM     13  C   UNL     1       0.115  11.629  20.807  0.00  0.00    +0.000 A 
ATOM     14  C   UNL     1      -1.003  11.824  20.006  0.00  0.00    +0.000 A 
ATOM     15  C   UNL     1      -1.313  10.881  19.029  0.00  0.00    +0.000 A 
ATOM     16  C   UNL     1      -0.511   9.750  18.844  0.00  0.00    +0.000 A 
BRANCH  15  17
ATOM     17  C   UNL     1      -2.480  11.124  18.150  0.00  0.00    +0.000 C 
ATOM     18  C   UNL     1      -3.700  11.671  18.320  0.00  0.00    +0.000 C 
ATOM     19  C   UNL     1      -4.119  11.437  16.888  0.00  0.00    +0.000 C 
ATOM     20  C   UNL     1      -2.745  10.774  16.696  0.00  0.00    +0.000 C 
ENDBRANCH  15  17
ENDBRANCH   8  11
BRANCH   5  21
ATOM     21  C   UNL     1       2.286   4.220  20.765  0.00  0.00    +0.000 C 
ATOM     22  F   UNL     1       2.513   4.738  22.005  0.00  0.00    +0.000 F 
ATOM     23  F   UNL     1       0.935   4.086  20.662  0.00  0.00    +0.000 F 
ATOM     24  F   UNL     1       2.788   2.956  20.793  0.00  0.00    +0.000 F 
ENDBRANCH   5  21
BRANCH   1  25
ATOM     25  C   UNL     1       5.386   4.572  16.769  0.00  0.00    +0.000 C 
BRANCH  25  27
ATOM     26  C   UNL     1       5.669   4.348  14.283  0.00  0.00    +0.000 C 
ATOM     27  C   UNL     1       5.263   5.049  15.351  0.00  0.00    +0.000 C 
ENDBRANCH  25  27
ENDBRANCH   1  25
TORSDOF 5
ENDMDL
MODEL 8
REMARK VINA RESULT:      -8.0      1.951      7.883
REMARK  Name = 
REMARK  5 active torsions:
REMARK  status: ('A' for Active; 'I' for Inactive)
REMARK    1  A    between atoms: C_2  and  C_3
REMARK    2  A    between atoms: C_3  and  C_4
REMARK    3  A    between atoms: C_8  and  C_9
REMARK    4  A    between atoms: N_15  and  C_16
REMARK    5  A    between atoms: C_20  and  C_21
REMARK                            x       y       z     vdW  Elec       q    Type
REMARK                         _______ _______ _______ _____ _____    ______ ____
ROOT
ATOM      1  C   UNL     1       3.963   4.488  17.352  0.00  0.00    +0.000 A 
ATOM      2  C   UNL     1       3.712   5.860  17.444  0.00  0.00    +0.000 A 
ATOM      3  C   UNL     1       2.960   6.310  18.511  0.00  0.00    +0.000 A 
ATOM      4  C   UNL     1       2.446   5.470  19.494  0.00  0.00    +0.000 A 
ATOM      5  C   UNL     1       2.677   4.099  19.432  0.00  0.00    +0.000 A 
ATOM      6  C   UNL     1       3.454   3.623  18.351  0.00  0.00    +0.000 A 
ATOM      7  C   UNL     1       1.680   6.289  20.485  0.00  0.00    +0.000 C 
ATOM      8  N   UNL     1       1.787   7.649  19.966  0.00  0.00    +0.000 N 
ATOM      9  C   UNL     1       2.541   7.685  18.790  0.00  0.00    +0.000 C 
ATOM     10  O   UNL     1       2.849   8.605  18.058  0.00  0.00    +0.000 OA
ENDROOT
BRANCH   8  11
ATOM     11  C   UNL     1       1.093   8.743  20.547  0.00  0.00    +0.000 A 
ATOM     12  C   UNL     1       0.695   8.724  21.892  0.00  0.00    +0.000 A 
ATOM     13  C   UNL     1       0.097   9.836  22.491  0.00  0.00    +0.000 A 
ATOM     14  C   UNL     1      -0.112  10.994  21.755  0.00  0.00    +0.000 A 
ATOM     15  C   UNL     1       0.252  11.021  20.411  0.00  0.00    +0.000 A 
ATOM     16  C   UNL     1       0.829   9.902  19.802  0.00  0.00    +0.000 A 
BRANCH  15  17
ATOM     17  C   UNL     1       0.068  12.277  19.648  0.00  0.00    +0.000 C 
ATOM     18  C   UNL     1       0.805  12.958  18.748  0.00  0.00    +0.000 C 
ATOM     19  C   UNL     1      -0.212  14.065  18.599  0.00  0.00    +0.000 C 
ATOM     20  C   UNL     1      -1.039  13.316  19.656  0.00  0.00    +0.000 C 
ENDBRANCH  15  17
ENDBRANCH   8  11
BRANCH   5  21
ATOM     21  C   UNL     1       2.122   3.128  20.441  0.00  0.00    +0.000 C 
ATOM     22  F   UNL     1       0.771   3.210  20.592  0.00  0.00    +0.000 F 
ATOM     23  F   UNL     1       2.379   1.834  20.108  0.00  0.00    +0.000 F 
ATOM     24  F   UNL     1       2.647   3.308  21.683  0.00  0.00    +0.000 F 
ENDBRANCH   5  21
BRANCH   1  25
ATOM     25  C   UNL     1       4.773   3.947  16.196  0.00  0.00    +0.000 C 
BRANCH  25  27
ATOM     26  C   UNL     1       6.690   4.749  14.787  0.00  0.00    +0.000 C 
ATOM     27  C   UNL     1       5.594   5.003  15.515  0.00  0.00    +0.000 C 
ENDBRANCH  25  27
ENDBRANCH   1  25
TORSDOF 5
ENDMDL
MODEL 9
REMARK VINA RESULT:      -7.9      3.530      5.063
REMARK  Name = 
REMARK  5 active torsions:
REMARK  status: ('A' for Active; 'I' for Inactive)
REMARK    1  A    between atoms: C_2  and  C_3
REMARK    2  A    between atoms: C_3  and  C_4
REMARK    3  A    between atoms: C_8  and  C_9
REMARK    4  A    between atoms: N_15  and  C_16
REMARK    5  A    between atoms: C_20  and  C_21
REMARK                            x       y       z     vdW  Elec       q    Type
REMARK                         _______ _______ _______ _____ _____    ______ ____
ROOT
ATOM      1  C   UNL     1       0.275   9.464  21.916  0.00  0.00    +0.000 A 
ATOM      2  C   UNL     1       0.758   8.154  21.860  0.00  0.00    +0.000 A 
ATOM      3  C   UNL     1       1.347   7.730  20.686  0.00  0.00    +0.000 A 
ATOM      4  C   UNL     1       1.486   8.540  19.563  0.00  0.00    +0.000 A 
ATOM      5  C   UNL     1       1.016   9.850  19.585  0.00  0.00    +0.000 A 
ATOM      6  C   UNL     1       0.418  10.303  20.783  0.00  0.00    +0.000 A 
ATOM      7  C   UNL     1       2.157   7.760  18.476  0.00  0.00    +0.000 C 
ATOM      8  N   UNL     1       2.361   6.443  19.073  0.00  0.00    +0.000 N 
ATOM      9  C   UNL     1       1.884   6.401  20.386  0.00  0.00    +0.000 C 
ATOM     10  O   UNL     1       1.858   5.505  21.206  0.00  0.00    +0.000 OA
ENDROOT
BRANCH   8  11
ATOM     11  C   UNL     1       2.871   5.343  18.333  0.00  0.00    +0.000 A 
ATOM     12  C   UNL     1       2.198   4.112  18.298  0.00  0.00    +0.000 A 
ATOM     13  C   UNL     1       2.646   3.059  17.496  0.00  0.00    +0.000 A 
ATOM     14  C   UNL     1       3.778   3.219  16.707  0.00  0.00    +0.000 A 
ATOM     15  C   UNL     1       4.473   4.425  16.751  0.00  0.00    +0.000 A 
ATOM     16  C   UNL     1       4.041   5.472  17.570  0.00  0.00    +0.000 A 
BRANCH  15  17
ATOM     17  C   UNL     1       5.650   4.600  15.870  0.00  0.00    +0.000 C 
ATOM     18  C   UNL     1       6.754   5.374  15.901  0.00  0.00    +0.000 C 
ATOM     19  C   UNL     1       7.292   4.838  14.596  0.00  0.00    +0.000 C 
ATOM     20  C   UNL     1       6.016   3.983  14.532  0.00  0.00    +0.000 C 
ENDBRANCH  15  17
ENDBRANCH   8  11
BRANCH   5  21
ATOM     21  C   UNL     1       1.101  10.771  18.395  0.00  0.00    +0.000 C 
ATOM     22  F   UNL     1       0.276  10.419  17.371  0.00  0.00    +0.000 F 
ATOM     23  F   UNL     1       0.773  12.053  18.711  0.00  0.00    +0.000 F 
ATOM     24  F   UNL     1       2.352  10.823  17.863  0.00  0.00    +0.000 F 
ENDBRANCH   5  21
BRANCH   1  25
ATOM     25  C   UNL     1      -0.387   9.970  23.176  0.00  0.00    +0.000 C 
BRANCH  25  27
ATOM     26  C   UNL     1      -2.245  11.657  23.275  0.00  0.00    +0.000 C 
ATOM     27  C   UNL     1      -0.968  11.345  23.017  0.00  0.00    +0.000 C 
ENDBRANCH  25  27
ENDBRANCH   1  25
TORSDOF 5
ENDMDL
