MODEL 1
REMARK VINA RESULT:      -9.2      0.000      0.000
REMARK  Name = 
REMARK  6 active torsions:
REMARK  status: ('A' for Active; 'I' for Inactive)
REMARK    1  A    between atoms: C_1  and  C_2
REMARK    2  A    between atoms: C_7  and  N_8
REMARK    3  A    between atoms: C_9  and  C_11
REMARK    4  A    between atoms: N_13  and  C_14
REMARK    5  A    between atoms: C_14  and  C_15
REMARK    6  A    between atoms: C_22  and  C_23
REMARK                            x       y       z     vdW  Elec       q    Type
REMARK                         _______ _______ _______ _____ _____    ______ ____
ROOT
ATOM      1  N   UNL     1       2.478   8.472  17.480  0.00  0.00    +0.000 N 
ATOM      2  C   UNL     1       2.873   7.392  18.256  0.00  0.00    +0.000 C 
ATOM      3  O   UNL     1       2.537   7.218  19.424  0.00  0.00    +0.000 OA
ATOM      4  H   UNL     1       2.695   8.436  16.493  0.00  0.00    +0.000 HD
ENDROOT
BRANCH   1  11
ATOM      5  C   UNL     1      -1.075  14.902  20.044  0.00  0.00    +0.000 C 
ATOM      6  C   UNL     1      -0.122  13.722  19.907  0.00  0.00    +0.000 C 
ATOM      7  O   UNL     1      -0.787  12.701  19.169  0.00  0.00    +0.000 OA
ATOM      8  C   UNL     1       0.051  11.686  18.801  0.00  0.00    +0.000 A 
ATOM      9  C   UNL     1      -0.540  10.480  18.466  0.00  0.00    +0.000 A 
ATOM     10  C   UNL     1       0.257   9.413  18.049  0.00  0.00    +0.000 A 
ATOM     11  C   UNL     1       1.650   9.532  17.939  0.00  0.00    +0.000 A 
ATOM     12  C   UNL     1       2.243  10.754  18.279  0.00  0.00    +0.000 A 
ATOM     13  C   UNL     1       1.440  11.830  18.689  0.00  0.00    +0.000 A 
ATOM     14  N   UNL     1       2.007  13.092  18.909  0.00  0.00    +0.000 N 
ATOM     15  C   UNL     1       1.240  14.148  19.337  0.00  0.00    +0.000 C 
ATOM     16  O   UNL     1       1.679  15.294  19.349  0.00  0.00    +0.000 OA
ATOM     17  H   UNL     1       2.960  13.292  18.634  0.00  0.00    +0.000 HD
ENDBRANCH   1  11
BRANCH   2  18
ATOM     18  C   UNL     1       3.748   6.419  17.618  0.00  0.00    +0.000 A 
ATOM     19  C   UNL     1       4.866   6.643  16.832  0.00  0.00    +0.000 A 
ATOM     20  N   UNL     1       5.532   5.444  16.778  0.00  0.00    +0.000 N 
ATOM     21  N   UNL     1       4.857   4.434  17.358  0.00  0.00    +0.000 NA
ATOM     22  C   UNL     1       3.757   5.013  17.855  0.00  0.00    +0.000 A 
BRANCH  22  23
ATOM     23  C   UNL     1       2.722   4.195  18.573  0.00  0.00    +0.000 A 
ATOM     24  C   UNL     1       1.541   3.774  17.996  0.00  0.00    +0.000 A 
ATOM     25  C   UNL     1       0.744   3.009  18.899  0.00  0.00    +0.000 A 
ATOM     26  C   UNL     1       1.319   2.923  20.147  0.00  0.00    +0.000 A 
ATOM     27  S   UNL     1       2.833   3.714  20.209  0.00  0.00    +0.000 S 
ENDBRANCH  22  23
BRANCH  20  28
ATOM     28  C   UNL     1       6.864   5.190  16.235  0.00  0.00    +0.000 C 
BRANCH  28  29
ATOM     29  C   UNL     1       6.803   4.808  14.774  0.00  0.00    +0.000 A 
ATOM     30  C   UNL     1       5.854   3.880  14.313  0.00  0.00    +0.000 A 
ATOM     31  C   UNL     1       5.826   3.492  12.973  0.00  0.00    +0.000 A 
ATOM     32  C   UNL     1       6.735   4.040  12.072  0.00  0.00    +0.000 A 
ATOM     33  C   UNL     1       7.660   4.987  12.507  0.00  0.00    +0.000 A 
ATOM     34  C   UNL     1       7.692   5.373  13.849  0.00  0.00    +0.000 A 
ENDBRANCH  28  29
ENDBRANCH  20  28
ENDBRANCH   2  18
TORSDOF 5
ENDMDL
MODEL 2
REMARK VINA RESULT:      -9.2      2.062      2.419
REMARK  Name = 
REMARK  6 active torsions:
REMARK  status: ('A' for Active; 'I' for Inactive)
REMARK    1  A    between atoms: C_1  and  C_2
REMARK    2  A    between atoms: C_7  and  N_8
REMARK    3  A    between atoms: C_9  and  C_11
REMARK    4  A    between atoms: N_13  and  C_14
REMARK    5  A    between atoms: C_14  and  C_15
REMARK    6  A    between atoms: C_22  and  C_23
REMARK                            x       y       z     vdW  Elec       q    Type
REMARK                         _______ _______ _______ _____ _____    ______ ____
ROOT
ATOM      1  N   UNL     1       2.755   7.692  17.826  0.00  0.00    +0.000 N 
ATOM      2  C   UNL     1       3.459   6.645  18.403  0.00  0.00    +0.000 C 
ATOM      3  O   UNL     1       3.490   6.411  19.608  0.00  0.00    +0.000 OA
ATOM      4  H   UNL     1       2.684   7.700  16.817  0.00  0.00    +0.000 HD
ENDROOT
BRANCH   1  11
ATOM      5  C   UNL     1      -1.333  12.170  22.702  0.00  0.00    +0.000 C 
ATOM      6  C   UNL     1      -0.837  10.986  21.883  0.00  0.00    +0.000 C 
ATOM      7  O   UNL     1      -0.146  11.494  20.746  0.00  0.00    +0.000 OA
ATOM      8  C   UNL     1       0.526  10.521  20.060  0.00  0.00    +0.000 A 
ATOM      9  C   UNL     1       0.869  10.807  18.749  0.00  0.00    +0.000 A 
ATOM     10  C   UNL     1       1.586   9.870  18.004  0.00  0.00    +0.000 A 
ATOM     11  C   UNL     1       1.991   8.645  18.553  0.00  0.00    +0.000 A 
ATOM     12  C   UNL     1       1.642   8.361  19.879  0.00  0.00    +0.000 A 
ATOM     13  C   UNL     1       0.930   9.308  20.632  0.00  0.00    +0.000 A 
ATOM     14  N   UNL     1       0.686   9.090  21.993  0.00  0.00    +0.000 N 
ATOM     15  C   UNL     1      -0.034   9.994  22.738  0.00  0.00    +0.000 C 
ATOM     16  O   UNL     1      -0.090   9.914  23.961  0.00  0.00    +0.000 OA
ATOM     17  H   UNL     1       1.141   8.336  22.493  0.00  0.00    +0.000 HD
ENDBRANCH   1  11
BRANCH   2  18
ATOM     18  C   UNL     1       4.208   5.788  17.496  0.00  0.00    +0.000 A 
ATOM     19  C   UNL     1       5.279   6.114  16.681  0.00  0.00    +0.000 A 
ATOM     20  N   UNL     1       5.845   4.919  16.311  0.00  0.00    +0.000 N 
ATOM     21  N   UNL     1       5.139   3.847  16.716  0.00  0.00    +0.000 NA
ATOM     22  C   UNL     1       4.126   4.366  17.422  0.00  0.00    +0.000 A 
BRANCH  22  23
ATOM     23  C   UNL     1       3.087   3.472  18.035  0.00  0.00    +0.000 A 
ATOM     24  C   UNL     1       1.730   3.618  17.828  0.00  0.00    +0.000 A 
ATOM     25  C   UNL     1       0.971   2.631  18.524  0.00  0.00    +0.000 A 
ATOM     26  C   UNL     1       1.770   1.806  19.283  0.00  0.00    +0.000 A 
ATOM     27  S   UNL     1       3.427   2.187  19.110  0.00  0.00    +0.000 S 
ENDBRANCH  22  23
BRANCH  20  28
ATOM     28  C   UNL     1       7.110   4.714  15.610  0.00  0.00    +0.000 C 
BRANCH  28  29
ATOM     29  C   UNL     1       6.892   4.462  14.135  0.00  0.00    +0.000 A 
ATOM     30  C   UNL     1       5.902   3.567  13.698  0.00  0.00    +0.000 A 
ATOM     31  C   UNL     1       5.730   3.299  12.339  0.00  0.00    +0.000 A 
ATOM     32  C   UNL     1       6.534   3.938  11.398  0.00  0.00    +0.000 A 
ATOM     33  C   UNL     1       7.497   4.855  11.814  0.00  0.00    +0.000 A 
ATOM     34  C   UNL     1       7.674   5.120  13.175  0.00  0.00    +0.000 A 
ENDBRANCH  28  29
ENDBRANCH  20  28
ENDBRANCH   2  18
TORSDOF 5
ENDMDL
MODEL 3
REMARK VINA RESULT:      -9.1      1.935      2.616
REMARK  Name = 
REMARK  6 active torsions:
REMARK  status: ('A' for Active; 'I' for Inactive)
REMARK    1  A    between atoms: C_1  and  C_2
REMARK    2  A    between atoms: C_7  and  N_8
REMARK    3  A    between atoms: C_9  and  C_11
REMARK    4  A    between atoms: N_13  and  C_14
REMARK    5  A    between atoms: C_14  and  C_15
REMARK    6  A    between atoms: C_22  and  C_23
REMARK                            x       y       z     vdW  Elec       q    Type
REMARK                         _______ _______ _______ _____ _____    ______ ____
ROOT
ATOM      1  N   UNL     1       2.903   6.762  17.671  0.00  0.00    +0.000 N 
ATOM      2  C   UNL     1       4.266   6.739  17.414  0.00  0.00    +0.000 C 
ATOM      3  O   UNL     1       5.080   7.510  17.916  0.00  0.00    +0.000 OA
ATOM      4  H   UNL     1       2.353   5.991  17.317  0.00  0.00    +0.000 HD
ENDROOT
BRANCH   1  11
ATOM      5  C   UNL     1      -0.760  12.502  21.436  0.00  0.00    +0.000 C 
ATOM      6  C   UNL     1       0.211  11.726  20.557  0.00  0.00    +0.000 C 
ATOM      7  O   UNL     1       0.265  10.385  21.034  0.00  0.00    +0.000 OA
ATOM      8  C   UNL     1       0.937   9.550  20.186  0.00  0.00    +0.000 A 
ATOM      9  C   UNL     1       1.407   8.364  20.722  0.00  0.00    +0.000 A 
ATOM     10  C   UNL     1       2.072   7.452  19.902  0.00  0.00    +0.000 A 
ATOM     11  C   UNL     1       2.263   7.693  18.534  0.00  0.00    +0.000 A 
ATOM     12  C   UNL     1       1.785   8.894  17.996  0.00  0.00    +0.000 A 
ATOM     13  C   UNL     1       1.107   9.807  18.819  0.00  0.00    +0.000 A 
ATOM     14  N   UNL     1       0.515  10.950  18.269  0.00  0.00    +0.000 N 
ATOM     15  C   UNL     1      -0.128  11.868  19.065  0.00  0.00    +0.000 C 
ATOM     16  O   UNL     1      -0.812  12.765  18.582  0.00  0.00    +0.000 OA
ATOM     17  H   UNL     1       0.428  11.064  17.267  0.00  0.00    +0.000 HD
ENDBRANCH   1  11
BRANCH   2  18
ATOM     18  C   UNL     1       4.734   5.728  16.477  0.00  0.00    +0.000 A 
ATOM     19  C   UNL     1       5.375   5.902  15.262  0.00  0.00    +0.000 A 
ATOM     20  N   UNL     1       5.917   4.681  14.947  0.00  0.00    +0.000 N 
ATOM     21  N   UNL     1       5.560   3.703  15.801  0.00  0.00    +0.000 NA
ATOM     22  C   UNL     1       4.820   4.326  16.726  0.00  0.00    +0.000 A 
BRANCH  22  23
ATOM     23  C   UNL     1       4.210   3.555  17.861  0.00  0.00    +0.000 A 
ATOM     24  C   UNL     1       4.765   3.477  19.123  0.00  0.00    +0.000 A 
ATOM     25  C   UNL     1       3.977   2.686  20.009  0.00  0.00    +0.000 A 
ATOM     26  C   UNL     1       2.881   2.142  19.378  0.00  0.00    +0.000 A 
ATOM     27  S   UNL     1       2.778   2.629  17.743  0.00  0.00    +0.000 S 
ENDBRANCH  22  23
BRANCH  20  28
ATOM     28  C   UNL     1       6.848   4.374  13.864  0.00  0.00    +0.000 C 
BRANCH  28  29
ATOM     29  C   UNL     1       6.182   3.574  12.769  0.00  0.00    +0.000 A 
ATOM     30  C   UNL     1       4.856   3.842  12.389  0.00  0.00    +0.000 A 
ATOM     31  C   UNL     1       4.224   3.075  11.409  0.00  0.00    +0.000 A 
ATOM     32  C   UNL     1       4.916   2.042  10.783  0.00  0.00    +0.000 A 
ATOM     33  C   UNL     1       6.242   1.786  11.124  0.00  0.00    +0.000 A 
ATOM     34  C   UNL     1       6.874   2.550  12.108  0.00  0.00    +0.000 A 
ENDBRANCH  28  29
ENDBRANCH  20  28
ENDBRANCH   2  18
TORSDOF 5
ENDMDL
MODEL 4
REMARK VINA RESULT:      -9.1      1.737      2.257
REMARK  Name = 
REMARK  6 active torsions:
REMARK  status: ('A' for Active; 'I' for Inactive)
REMARK    1  A    between atoms: C_1  and  C_2
REMARK    2  A    between atoms: C_7  and  N_8
REMARK    3  A    between atoms: C_9  and  C_11
REMARK    4  A    between atoms: N_13  and  C_14
REMARK    5  A    between atoms: C_14  and  C_15
REMARK    6  A    between atoms: C_22  and  C_23
REMARK                            x       y       z     vdW  Elec       q    Type
REMARK                         _______ _______ _______ _____ _____    ______ ____
ROOT
ATOM      1  N   UNL     1       2.226   8.099  17.931  0.00  0.00    +0.000 N 
ATOM      2  C   UNL     1       2.818   7.016  18.565  0.00  0.00    +0.000 C 
ATOM      3  O   UNL     1       2.617   6.702  19.735  0.00  0.00    +0.000 OA
ATOM      4  H   UNL     1       2.353   8.174  16.931  0.00  0.00    +0.000 HD
ENDROOT
BRANCH   1  11
ATOM      5  C   UNL     1      -3.311  13.000  20.351  0.00  0.00    +0.000 C 
ATOM      6  C   UNL     1      -2.210  12.337  19.535  0.00  0.00    +0.000 C 
ATOM      7  O   UNL     1      -1.411  11.558  20.420  0.00  0.00    +0.000 OA
ATOM      8  C   UNL     1      -0.529  10.749  19.761  0.00  0.00    +0.000 A 
ATOM      9  C   UNL     1       0.552  10.281  20.489  0.00  0.00    +0.000 A 
ATOM     10  C   UNL     1       1.472   9.424  19.885  0.00  0.00    +0.000 A 
ATOM     11  C   UNL     1       1.323   9.002  18.556  0.00  0.00    +0.000 A 
ATOM     12  C   UNL     1       0.229   9.477  17.824  0.00  0.00    +0.000 A 
ATOM     13  C   UNL     1      -0.702  10.332  18.435  0.00  0.00    +0.000 A 
ATOM     14  N   UNL     1      -1.866  10.712  17.755  0.00  0.00    +0.000 N 
ATOM     15  C   UNL     1      -2.774  11.570  18.328  0.00  0.00    +0.000 C 
ATOM     16  O   UNL     1      -3.879  11.757  17.830  0.00  0.00    +0.000 OA
ATOM     17  H   UNL     1      -2.134  10.266  16.887  0.00  0.00    +0.000 HD
ENDBRANCH   1  11
BRANCH   2  18
ATOM     18  C   UNL     1       3.741   6.221  17.768  0.00  0.00    +0.000 A 
ATOM     19  C   UNL     1       4.812   6.647  17.000  0.00  0.00    +0.000 A 
ATOM     20  N   UNL     1       5.562   5.524  16.749  0.00  0.00    +0.000 N 
ATOM     21  N   UNL     1       4.984   4.389  17.184  0.00  0.00    +0.000 NA
ATOM     22  C   UNL     1       3.862   4.800  17.788  0.00  0.00    +0.000 A 
BRANCH  22  23
ATOM     23  C   UNL     1       2.915   3.806  18.397  0.00  0.00    +0.000 A 
ATOM     24  C   UNL     1       1.636   3.578  17.929  0.00  0.00    +0.000 A 
ATOM     25  C   UNL     1       0.957   2.578  18.687  0.00  0.00    +0.000 A 
ATOM     26  C   UNL     1       1.719   2.122  19.739  0.00  0.00    +0.000 A 
ATOM     27  S   UNL     1       3.262   2.857  19.775  0.00  0.00    +0.000 S 
ENDBRANCH  22  23
BRANCH  20  28
ATOM     28  C   UNL     1       6.889   5.460  16.143  0.00  0.00    +0.000 C 
BRANCH  28  29
ATOM     29  C   UNL     1       6.829   4.925  14.731  0.00  0.00    +0.000 A 
ATOM     30  C   UNL     1       7.706   5.404  13.744  0.00  0.00    +0.000 A 
ATOM     31  C   UNL     1       7.622   4.945  12.428  0.00  0.00    +0.000 A 
ATOM     32  C   UNL     1       6.671   3.986  12.087  0.00  0.00    +0.000 A 
ATOM     33  C   UNL     1       5.817   3.476  13.063  0.00  0.00    +0.000 A 
ATOM     34  C   UNL     1       5.897   3.939  14.379  0.00  0.00    +0.000 A 
ENDBRANCH  28  29
ENDBRANCH  20  28
ENDBRANCH   2  18
TORSDOF 5
ENDMDL
MODEL 5
REMARK VINA RESULT:      -9.0      2.287      2.917
REMARK  Name = 
REMARK  6 active torsions:
REMARK  status: ('A' for Active; 'I' for Inactive)
REMARK    1  A    between atoms: C_1  and  C_2
REMARK    2  A    between atoms: C_7  and  N_8
REMARK    3  A    between atoms: C_9  and  C_11
REMARK    4  A    between atoms: N_13  and  C_14
REMARK    5  A    between atoms: C_14  and  C_15
REMARK    6  A    between atoms: C_22  and  C_23
REMARK                            x       y       z     vdW  Elec       q    Type
REMARK                         _______ _______ _______ _____ _____    ______ ____
ROOT
ATOM      1  N   UNL     1       2.715   7.175  17.489  0.00  0.00    +0.000 N 
ATOM      2  C   UNL     1       4.091   7.007  17.436  0.00  0.00    +0.000 C 
ATOM      3  O   UNL     1       4.897   7.673  18.079  0.00  0.00    +0.000 OA
ATOM      4  H   UNL     1       2.146   6.477  17.030  0.00  0.00    +0.000 HD
ENDROOT
BRANCH   1  11
ATOM      5  C   UNL     1      -0.752  11.794  22.703  0.00  0.00    +0.000 C 
ATOM      6  C   UNL     1      -0.375  10.593  21.846  0.00  0.00    +0.000 C 
ATOM      7  O   UNL     1       0.227  11.076  20.649  0.00  0.00    +0.000 OA
ATOM      8  C   UNL     1       0.799  10.081  19.908  0.00  0.00    +0.000 A 
ATOM      9  C   UNL     1       1.031  10.354  18.570  0.00  0.00    +0.000 A 
ATOM     10  C   UNL     1       1.643   9.393  17.766  0.00  0.00    +0.000 A 
ATOM     11  C   UNL     1       2.054   8.154  18.280  0.00  0.00    +0.000 A 
ATOM     12  C   UNL     1       1.818   7.883  19.633  0.00  0.00    +0.000 A 
ATOM     13  C   UNL     1       1.211   8.854  20.444  0.00  0.00    +0.000 A 
ATOM     14  N   UNL     1       1.085   8.645  21.823  0.00  0.00    +0.000 N 
ATOM     15  C   UNL     1       0.468   9.573  22.627  0.00  0.00    +0.000 C 
ATOM     16  O   UNL     1       0.521   9.495  23.850  0.00  0.00    +0.000 OA
ATOM     17  H   UNL     1       1.557   7.876  22.281  0.00  0.00    +0.000 HD
ENDBRANCH   1  11
BRANCH   2  18
ATOM     18  C   UNL     1       4.584   5.967  16.543  0.00  0.00    +0.000 A 
ATOM     19  C   UNL     1       5.301   6.104  15.366  0.00  0.00    +0.000 A 
ATOM     20  N   UNL     1       5.825   4.863  15.102  0.00  0.00    +0.000 N 
ATOM     21  N   UNL     1       5.391   3.910  15.947  0.00  0.00    +0.000 NA
ATOM     22  C   UNL     1       4.616   4.568  16.818  0.00  0.00    +0.000 A 
BRANCH  22  23
ATOM     23  C   UNL     1       3.917   3.833  17.925  0.00  0.00    +0.000 A 
ATOM     24  C   UNL     1       2.609   3.398  17.852  0.00  0.00    +0.000 A 
ATOM     25  C   UNL     1       2.200   2.723  19.041  0.00  0.00    +0.000 A 
ATOM     26  C   UNL     1       3.190   2.719  19.998  0.00  0.00    +0.000 A 
ATOM     27  S   UNL     1       4.619   3.476  19.443  0.00  0.00    +0.000 S 
ENDBRANCH  22  23
BRANCH  20  28
ATOM     28  C   UNL     1       6.810   4.514  14.082  0.00  0.00    +0.000 C 
BRANCH  28  29
ATOM     29  C   UNL     1       6.187   3.716  12.959  0.00  0.00    +0.000 A 
ATOM     30  C   UNL     1       4.872   3.976  12.538  0.00  0.00    +0.000 A 
ATOM     31  C   UNL     1       4.279   3.211  11.532  0.00  0.00    +0.000 A 
ATOM     32  C   UNL     1       5.000   2.188  10.922  0.00  0.00    +0.000 A 
ATOM     33  C   UNL     1       6.317   1.942  11.304  0.00  0.00    +0.000 A 
ATOM     34  C   UNL     1       6.910   2.703  12.314  0.00  0.00    +0.000 A 
ENDBRANCH  28  29
ENDBRANCH  20  28
ENDBRANCH   2  18
TORSDOF 5
ENDMDL
MODEL 6
REMARK VINA RESULT:      -9.0      1.827      2.306
REMARK  Name = 
REMARK  6 active torsions:
REMARK  status: ('A' for Active; 'I' for Inactive)
REMARK    1  A    between atoms: C_1  and  C_2
REMARK    2  A    between atoms: C_7  and  N_8
REMARK    3  A    between atoms: C_9  and  C_11
REMARK    4  A    between atoms: N_13  and  C_14
REMARK    5  A    between atoms: C_14  and  C_15
REMARK    6  A    between atoms: C_22  and  C_23
REMARK                            x       y       z     vdW  Elec       q    Type
REMARK                         _______ _______ _______ _____ _____    ______ ____
ROOT
ATOM      1  N   UNL     1       2.566   7.326  19.335  0.00  0.00    +0.000 N 
ATOM      2  C   UNL     1       2.904   7.458  17.996  0.00  0.00    +0.000 C 
ATOM      3  O   UNL     1       2.507   8.362  17.266  0.00  0.00    +0.000 OA
ATOM      4  H   UNL     1       3.066   6.630  19.872  0.00  0.00    +0.000 HD
ENDROOT
BRANCH   1  11
ATOM      5  C   UNL     1      -2.391  12.632  22.131  0.00  0.00    +0.000 C 
ATOM      6  C   UNL     1      -1.228  11.964  21.410  0.00  0.00    +0.000 C 
ATOM      7  O   UNL     1      -0.957  10.726  22.060  0.00  0.00    +0.000 OA
ATOM      8  C   UNL     1      -0.077   9.947  21.363  0.00  0.00    +0.000 A 
ATOM      9  C   UNL     1       0.569   8.949  22.072  0.00  0.00    +0.000 A 
ATOM     10  C   UNL     1       1.454   8.096  21.413  0.00  0.00    +0.000 A 
ATOM     11  C   UNL     1       1.698   8.207  20.036  0.00  0.00    +0.000 A 
ATOM     12  C   UNL     1       1.043   9.218  19.323  0.00  0.00    +0.000 A 
ATOM     13  C   UNL     1       0.144  10.069  19.985  0.00  0.00    +0.000 A 
ATOM     14  N   UNL     1      -0.612  11.000  19.261  0.00  0.00    +0.000 N 
ATOM     15  C   UNL     1      -1.475  11.860  19.897  0.00  0.00    +0.000 C 
ATOM     16  O   UNL     1      -2.278  12.541  19.267  0.00  0.00    +0.000 OA
ATOM     17  H   UNL     1      -0.643  10.976  18.250  0.00  0.00    +0.000 HD
ENDBRANCH   1  11
BRANCH   2  18
ATOM     18  C   UNL     1       3.786   6.438  17.446  0.00  0.00    +0.000 A 
ATOM     19  C   UNL     1       4.923   6.601  16.673  0.00  0.00    +0.000 A 
ATOM     20  N   UNL     1       5.579   5.396  16.715  0.00  0.00    +0.000 N 
ATOM     21  N   UNL     1       4.883   4.432  17.345  0.00  0.00    +0.000 NA
ATOM     22  C   UNL     1       3.777   5.051  17.776  0.00  0.00    +0.000 A 
BRANCH  22  23
ATOM     23  C   UNL     1       2.719   4.291  18.523  0.00  0.00    +0.000 A 
ATOM     24  C   UNL     1       1.492   3.955  17.987  0.00  0.00    +0.000 A 
ATOM     25  C   UNL     1       0.682   3.229  18.910  0.00  0.00    +0.000 A 
ATOM     26  C   UNL     1       1.296   3.088  20.134  0.00  0.00    +0.000 A 
ATOM     27  S   UNL     1       2.860   3.780  20.148  0.00  0.00    +0.000 S 
ENDBRANCH  22  23
BRANCH  20  28
ATOM     28  C   UNL     1       6.921   5.097  16.221  0.00  0.00    +0.000 C 
BRANCH  28  29
ATOM     29  C   UNL     1       6.907   4.755  14.748  0.00  0.00    +0.000 A 
ATOM     30  C   UNL     1       7.761   5.415  13.850  0.00  0.00    +0.000 A 
ATOM     31  C   UNL     1       7.717   5.133  12.483  0.00  0.00    +0.000 A 
ATOM     32  C   UNL     1       6.831   4.173  12.001  0.00  0.00    +0.000 A 
ATOM     33  C   UNL     1       6.002   3.485  12.884  0.00  0.00    +0.000 A 
ATOM     34  C   UNL     1       6.041   3.770  14.252  0.00  0.00    +0.000 A 
ENDBRANCH  28  29
ENDBRANCH  20  28
ENDBRANCH   2  18
TORSDOF 5
ENDMDL
MODEL 7
REMARK VINA RESULT:      -8.9      1.098      1.106
REMARK  Name = 
REMARK  6 active torsions:
REMARK  status: ('A' for Active; 'I' for Inactive)
REMARK    1  A    between atoms: C_1  and  C_2
REMARK    2  A    between atoms: C_7  and  N_8
REMARK    3  A    between atoms: C_9  and  C_11
REMARK    4  A    between atoms: N_13  and  C_14
REMARK    5  A    between atoms: C_14  and  C_15
REMARK    6  A    between atoms: C_22  and  C_23
REMARK                            x       y       z     vdW  Elec       q    Type
REMARK                         _______ _______ _______ _____ _____    ______ ____
ROOT
ATOM      1  N   UNL     1       2.070   8.312  17.720  0.00  0.00    +0.000 N 
ATOM      2  C   UNL     1       2.609   7.260  18.447  0.00  0.00    +0.000 C 
ATOM      3  O   UNL     1       2.354   7.028  19.625  0.00  0.00    +0.000 OA
ATOM      4  H   UNL     1       2.238   8.319  16.724  0.00  0.00    +0.000 HD
ENDROOT
BRANCH   1  11
ATOM      5  C   UNL     1      -2.016  13.855  21.342  0.00  0.00    +0.000 C 
ATOM      6  C   UNL     1      -1.162  12.627  21.060  0.00  0.00    +0.000 C 
ATOM      7  O   UNL     1      -1.434  12.194  19.730  0.00  0.00    +0.000 OA
ATOM      8  C   UNL     1      -0.563  11.234  19.299  0.00  0.00    +0.000 A 
ATOM      9  C   UNL     1      -0.970  10.459  18.227  0.00  0.00    +0.000 A 
ATOM     10  C   UNL     1      -0.114   9.483  17.716  0.00  0.00    +0.000 A 
ATOM     11  C   UNL     1       1.166   9.274  18.248  0.00  0.00    +0.000 A 
ATOM     12  C   UNL     1       1.573  10.059  19.333  0.00  0.00    +0.000 A 
ATOM     13  C   UNL     1       0.716  11.048  19.840  0.00  0.00    +0.000 A 
ATOM     14  N   UNL     1       1.159  11.924  20.839  0.00  0.00    +0.000 N 
ATOM     15  C   UNL     1       0.323  12.879  21.366  0.00  0.00    +0.000 C 
ATOM     16  O   UNL     1       0.749  13.769  22.095  0.00  0.00    +0.000 OA
ATOM     17  H   UNL     1       2.135  11.966  21.103  0.00  0.00    +0.000 HD
ENDBRANCH   1  11
BRANCH   2  18
ATOM     18  C   UNL     1       3.542   6.394  17.741  0.00  0.00    +0.000 A 
ATOM     19  C   UNL     1       4.618   6.746  16.943  0.00  0.00    +0.000 A 
ATOM     20  N   UNL     1       5.375   5.608  16.813  0.00  0.00    +0.000 N 
ATOM     21  N   UNL     1       4.798   4.519  17.354  0.00  0.00    +0.000 NA
ATOM     22  C   UNL     1       3.669   4.983  17.904  0.00  0.00    +0.000 A 
BRANCH  22  23
ATOM     23  C   UNL     1       2.721   4.050  18.601  0.00  0.00    +0.000 A 
ATOM     24  C   UNL     1       1.521   3.631  18.063  0.00  0.00    +0.000 A 
ATOM     25  C   UNL     1       0.821   2.744  18.933  0.00  0.00    +0.000 A 
ATOM     26  C   UNL     1       1.484   2.563  20.126  0.00  0.00    +0.000 A 
ATOM     27  S   UNL     1       2.965   3.416  20.170  0.00  0.00    +0.000 S 
ENDBRANCH  22  23
BRANCH  20  28
ATOM     28  C   UNL     1       6.708   5.490  16.228  0.00  0.00    +0.000 C 
BRANCH  28  29
ATOM     29  C   UNL     1       6.649   4.957  14.815  0.00  0.00    +0.000 A 
ATOM     30  C   UNL     1       5.623   4.083  14.420  0.00  0.00    +0.000 A 
ATOM     31  C   UNL     1       5.592   3.553  13.129  0.00  0.00    +0.000 A 
ATOM     32  C   UNL     1       6.577   3.907  12.210  0.00  0.00    +0.000 A 
ATOM     33  C   UNL     1       7.581   4.800  12.576  0.00  0.00    +0.000 A 
ATOM     34  C   UNL     1       7.617   5.326  13.870  0.00  0.00    +0.000 A 
ENDBRANCH  28  29
ENDBRANCH  20  28
ENDBRANCH   2  18
TORSDOF 5
ENDMDL
MODEL 8
REMARK VINA RESULT:      -8.8      1.846      2.479
REMARK  Name = 
REMARK  6 active torsions:
REMARK  status: ('A' for Active; 'I' for Inactive)
REMARK    1  A    between atoms: C_1  and  C_2
REMARK    2  A    between atoms: C_7  and  N_8
REMARK    3  A    between atoms: C_9  and  C_11
REMARK    4  A    between atoms: N_13  and  C_14
REMARK    5  A    between atoms: C_14  and  C_15
REMARK    6  A    between atoms: C_22  and  C_23
REMARK                            x       y       z     vdW  Elec       q    Type
REMARK                         _______ _______ _______ _____ _____    ______ ____
ROOT
ATOM      1  N   UNL     1       2.841   6.808  17.795  0.00  0.00    +0.000 N 
ATOM      2  C   UNL     1       4.187   6.826  17.456  0.00  0.00    +0.000 C 
ATOM      3  O   UNL     1       4.999   7.641  17.885  0.00  0.00    +0.000 OA
ATOM      4  H   UNL     1       2.301   6.008  17.496  0.00  0.00    +0.000 HD
ENDROOT
BRANCH   1  11
ATOM      5  C   UNL     1      -0.721  12.571  21.620  0.00  0.00    +0.000 C 
ATOM      6  C   UNL     1       0.234  11.788  20.729  0.00  0.00    +0.000 C 
ATOM      7  O   UNL     1       0.273  10.443  21.197  0.00  0.00    +0.000 OA
ATOM      8  C   UNL     1       0.928   9.606  20.340  0.00  0.00    +0.000 A 
ATOM      9  C   UNL     1       1.387   8.410  20.865  0.00  0.00    +0.000 A 
ATOM     10  C   UNL     1       2.034   7.494  20.035  0.00  0.00    +0.000 A 
ATOM     11  C   UNL     1       2.219   7.742  18.667  0.00  0.00    +0.000 A 
ATOM     12  C   UNL     1       1.754   8.952  18.141  0.00  0.00    +0.000 A 
ATOM     13  C   UNL     1       1.093   9.869  18.974  0.00  0.00    +0.000 A 
ATOM     14  N   UNL     1       0.512  11.023  18.435  0.00  0.00    +0.000 N 
ATOM     15  C   UNL     1      -0.114  11.944  19.240  0.00  0.00    +0.000 C 
ATOM     16  O   UNL     1      -0.789  12.853  18.768  0.00  0.00    +0.000 OA
ATOM     17  H   UNL     1       0.420  11.145  17.434  0.00  0.00    +0.000 HD
ENDBRANCH   1  11
BRANCH   2  18
ATOM     18  C   UNL     1       4.635   5.804  16.522  0.00  0.00    +0.000 A 
ATOM     19  C   UNL     1       5.345   5.958  15.343  0.00  0.00    +0.000 A 
ATOM     20  N   UNL     1       5.824   4.710  15.029  0.00  0.00    +0.000 N 
ATOM     21  N   UNL     1       5.364   3.742  15.844  0.00  0.00    +0.000 NA
ATOM     22  C   UNL     1       4.620   4.395  16.746  0.00  0.00    +0.000 A 
BRANCH  22  23
ATOM     23  C   UNL     1       3.907   3.645  17.833  0.00  0.00    +0.000 A 
ATOM     24  C   UNL     1       2.615   3.172  17.719  0.00  0.00    +0.000 A 
ATOM     25  C   UNL     1       2.186   2.491  18.897  0.00  0.00    +0.000 A 
ATOM     26  C   UNL     1       3.143   2.520  19.886  0.00  0.00    +0.000 A 
ATOM     27  S   UNL     1       4.567   3.315  19.375  0.00  0.00    +0.000 S 
ENDBRANCH  22  23
BRANCH  20  28
ATOM     28  C   UNL     1       6.787   4.364  13.987  0.00  0.00    +0.000 C 
BRANCH  28  29
ATOM     29  C   UNL     1       6.141   3.565  12.878  0.00  0.00    +0.000 A 
ATOM     30  C   UNL     1       6.850   2.546  12.220  0.00  0.00    +0.000 A 
ATOM     31  C   UNL     1       6.271   1.838  11.166  0.00  0.00    +0.000 A 
ATOM     32  C   UNL     1       4.968   2.128  10.768  0.00  0.00    +0.000 A 
ATOM     33  C   UNL     1       4.240   3.112  11.434  0.00  0.00    +0.000 A 
ATOM     34  C   UNL     1       4.820   3.825  12.485  0.00  0.00    +0.000 A 
ENDBRANCH  28  29
ENDBRANCH  20  28
ENDBRANCH   2  18
TORSDOF 5
ENDMDL
MODEL 9
REMARK VINA RESULT:      -8.8      2.017      2.267
REMARK  Name = 
REMARK  6 active torsions:
REMARK  status: ('A' for Active; 'I' for Inactive)
REMARK    1  A    between atoms: C_1  and  C_2
REMARK    2  A    between atoms: C_7  and  N_8
REMARK    3  A    between atoms: C_9  and  C_11
REMARK    4  A    between atoms: N_13  and  C_14
REMARK    5  A    between atoms: C_14  and  C_15
REMARK    6  A    between atoms: C_22  and  C_23
REMARK                            x       y       z     vdW  Elec       q    Type
REMARK                         _______ _______ _______ _____ _____    ______ ____
ROOT
ATOM      1  N   UNL     1       2.790   7.665  18.539  0.00  0.00    +0.000 N 
ATOM      2  C   UNL     1       2.571   6.414  17.979  0.00  0.00    +0.000 C 
ATOM      3  O   UNL     1       1.461   5.926  17.785  0.00  0.00    +0.000 OA
ATOM      4  H   UNL     1       3.735   8.023  18.516  0.00  0.00    +0.000 HD
ENDROOT
BRANCH   1  11
ATOM      5  C   UNL     1      -3.092  12.592  19.831  0.00  0.00    +0.000 C 
ATOM      6  C   UNL     1      -1.807  11.966  19.308  0.00  0.00    +0.000 C 
ATOM      7  O   UNL     1      -1.355  11.016  20.268  0.00  0.00    +0.000 OA
ATOM      8  C   UNL     1      -0.331  10.241  19.801  0.00  0.00    +0.000 A 
ATOM      9  C   UNL     1       0.447   9.599  20.749  0.00  0.00    +0.000 A 
ATOM     10  C   UNL     1       1.488   8.765  20.339  0.00  0.00    +0.000 A 
ATOM     11  C   UNL     1       1.760   8.540  18.982  0.00  0.00    +0.000 A 
ATOM     12  C   UNL     1       0.971   9.191  18.027  0.00  0.00    +0.000 A 
ATOM     13  C   UNL     1      -0.083  10.022  18.440  0.00  0.00    +0.000 A 
ATOM     14  N   UNL     1      -0.957  10.577  17.498  0.00  0.00    +0.000 N 
ATOM     15  C   UNL     1      -1.976  11.415  17.884  0.00  0.00    +0.000 C 
ATOM     16  O   UNL     1      -2.859  11.751  17.100  0.00  0.00    +0.000 OA
ATOM     17  H   UNL     1      -0.946  10.275  16.532  0.00  0.00    +0.000 HD
ENDBRANCH   1  11
BRANCH   2  18
ATOM     18  C   UNL     1       3.755   5.651  17.614  0.00  0.00    +0.000 A 
ATOM     19  C   UNL     1       4.669   5.899  16.603  0.00  0.00    +0.000 A 
ATOM     20  N   UNL     1       5.765   5.124  16.892  0.00  0.00    +0.000 N 
ATOM     21  N   UNL     1       5.573   4.297  17.937  0.00  0.00    +0.000 NA
ATOM     22  C   UNL     1       4.342   4.594  18.372  0.00  0.00    +0.000 A 
BRANCH  22  23
ATOM     23  C   UNL     1       3.745   3.856  19.535  0.00  0.00    +0.000 A 
ATOM     24  C   UNL     1       2.826   4.409  20.405  0.00  0.00    +0.000 A 
ATOM     25  C   UNL     1       2.420   3.487  21.415  0.00  0.00    +0.000 A 
ATOM     26  C   UNL     1       3.085   2.286  21.314  0.00  0.00    +0.000 A 
ATOM     27  S   UNL     1       4.150   2.256  19.977  0.00  0.00    +0.000 S 
ENDBRANCH  22  23
BRANCH  20  28
ATOM     28  C   UNL     1       7.074   5.160  16.245  0.00  0.00    +0.000 C 
BRANCH  28  29
ATOM     29  C   UNL     1       6.977   4.805  14.779  0.00  0.00    +0.000 A 
ATOM     30  C   UNL     1       6.076   3.822  14.336  0.00  0.00    +0.000 A 
ATOM     31  C   UNL     1       6.018   3.461  12.989  0.00  0.00    +0.000 A 
ATOM     32  C   UNL     1       6.847   4.091  12.064  0.00  0.00    +0.000 A 
ATOM     33  C   UNL     1       7.720   5.093  12.483  0.00  0.00    +0.000 A 
ATOM     34  C   UNL     1       7.784   5.451  13.832  0.00  0.00    +0.000 A 
ENDBRANCH  28  29
ENDBRANCH  20  28
ENDBRANCH   2  18
TORSDOF 5
ENDMDL
