MODEL 1
REMARK VINA RESULT:      -8.4      0.000      0.000
REMARK  Name = 
REMARK  4 active torsions:
REMARK  status: ('A' for Active; 'I' for Inactive)
REMARK    1  A    between atoms: C_1  and  C_2
REMARK    2  A    between atoms: C_4  and  C_5
REMARK    3  A    between atoms: C_9  and  C_11
REMARK    4  A    between atoms: N_27  and  C_28
REMARK                            x       y       z     vdW  Elec       q    Type
REMARK                         _______ _______ _______ _____ _____    ______ ____
ROOT
ATOM      1  C   UNL     1       0.294  10.543  19.012  0.00  0.00    +0.000 C 
ATOM      2  C   UNL     1       0.148   9.740  20.310  0.00  0.00    +0.000 C 
ATOM      3  C   UNL     1       1.291   8.766  20.605  0.00  0.00    +0.000 C 
ATOM      4  N   UNL     1       1.715   7.977  19.454  0.00  0.00    +0.000 N 
ATOM      5  C   UNL     1       2.287   6.709  19.738  0.00  0.00    +0.000 C 
ATOM      6  O   UNL     1       2.181   6.163  20.844  0.00  0.00    +0.000 OA
ATOM      7  C   UNL     1       1.955   8.741  18.233  0.00  0.00    +0.000 C 
ATOM      8  C   UNL     1       0.783   9.650  17.867  0.00  0.00    +0.000 C 
ENDROOT
BRANCH   1  12
ATOM      9  C   UNL     1       3.686  14.103  18.204  0.00  0.00    +0.000 C 
ATOM     10  C   UNL     1       2.579  13.320  18.803  0.00  0.00    +0.000 A 
ATOM     11  N   UNL     1       2.117  12.164  18.368  0.00  0.00    +0.000 NA
ATOM     12  C   UNL     1       1.071  11.821  19.196  0.00  0.00    +0.000 A 
ATOM     13  C   UNL     1       0.881  12.816  20.145  0.00  0.00    +0.000 A 
ATOM     14  N   UNL     1       1.887  13.716  19.914  0.00  0.00    +0.000 N 
ATOM     15  C   UNL     1       2.100  14.908  20.715  0.00  0.00    +0.000 C 
ATOM     16  C   UNL     1       1.233  14.896  21.984  0.00  0.00    +0.000 C 
ATOM     17  N   UNL     1      -0.132  14.374  21.788  0.00  0.00    +0.000 NA
ATOM     18  C   UNL     1      -0.948  15.259  20.958  0.00  0.00    +0.000 C 
ATOM     19  C   UNL     1      -0.088  12.995  21.263  0.00  0.00    +0.000 C 
ENDBRANCH   1  12
BRANCH   5  20
ATOM     20  C   UNL     1       2.933   5.913  18.677  0.00  0.00    +0.000 A 
ATOM     21  C   UNL     1       3.799   6.547  17.758  0.00  0.00    +0.000 A 
ATOM     22  C   UNL     1       4.569   5.777  16.890  0.00  0.00    +0.000 A 
ATOM     23  F   UNL     1       5.378   6.396  16.020  0.00  0.00    +0.000 F 
ATOM     24  C   UNL     1       4.498   4.389  16.857  0.00  0.00    +0.000 A 
ATOM     25  C   UNL     1       3.398   3.855  17.524  0.00  0.00    +0.000 A 
ATOM     26  N   UNL     1       2.788   2.624  17.422  0.00  0.00    +0.000 N 
ATOM     27  C   UNL     1       1.657   2.668  18.187  0.00  0.00    +0.000 A 
ATOM     28  N   UNL     1       1.589   3.780  18.892  0.00  0.00    +0.000 NA
ATOM     29  C   UNL     1       2.613   4.565  18.425  0.00  0.00    +0.000 A 
ATOM     30  H   UNL     1       3.036   1.898  16.770  0.00  0.00    +0.000 HD
ENDBRANCH   5  20
TORSDOF 2
ENDMDL
MODEL 2
REMARK VINA RESULT:      -8.2      1.667      2.054
REMARK  Name = 
REMARK  4 active torsions:
REMARK  status: ('A' for Active; 'I' for Inactive)
REMARK    1  A    between atoms: C_1  and  C_2
REMARK    2  A    between atoms: C_4  and  C_5
REMARK    3  A    between atoms: C_9  and  C_11
REMARK    4  A    between atoms: N_27  and  C_28
REMARK                            x       y       z     vdW  Elec       q    Type
REMARK                         _______ _______ _______ _____ _____    ______ ____
ROOT
ATOM      1  C   UNL     1       0.495   9.994  18.919  0.00  0.00    +0.000 C 
ATOM      2  C   UNL     1       0.328   9.261  20.256  0.00  0.00    +0.000 C 
ATOM      3  C   UNL     1       1.481   8.329  20.635  0.00  0.00    +0.000 C 
ATOM      4  N   UNL     1       1.951   7.486  19.542  0.00  0.00    +0.000 N 
ATOM      5  C   UNL     1       2.540   6.248  19.912  0.00  0.00    +0.000 C 
ATOM      6  O   UNL     1       2.413   5.762  21.044  0.00  0.00    +0.000 OA
ATOM      7  C   UNL     1       2.211   8.185  18.287  0.00  0.00    +0.000 C 
ATOM      8  C   UNL     1       1.032   9.049  17.839  0.00  0.00    +0.000 C 
ENDROOT
BRANCH   1  12
ATOM      9  C   UNL     1       3.762  13.625  17.929  0.00  0.00    +0.000 C 
ATOM     10  C   UNL     1       2.696  12.826  18.579  0.00  0.00    +0.000 A 
ATOM     11  N   UNL     1       2.252  11.648  18.183  0.00  0.00    +0.000 NA
ATOM     12  C   UNL     1       1.242  11.296  19.052  0.00  0.00    +0.000 A 
ATOM     13  C   UNL     1       1.055  12.306  19.985  0.00  0.00    +0.000 A 
ATOM     14  N   UNL     1       2.028  13.227  19.704  0.00  0.00    +0.000 N 
ATOM     15  C   UNL     1       2.233  14.441  20.473  0.00  0.00    +0.000 C 
ATOM     16  C   UNL     1       1.408  14.433  21.769  0.00  0.00    +0.000 C 
ATOM     17  N   UNL     1       0.052  13.871  21.628  0.00  0.00    +0.000 NA
ATOM     18  C   UNL     1      -0.813  14.716  20.807  0.00  0.00    +0.000 C 
ATOM     19  C   UNL     1       0.117  12.482  21.130  0.00  0.00    +0.000 C 
ENDBRANCH   1  12
BRANCH   5  20
ATOM     20  C   UNL     1       3.229   5.407  18.915  0.00  0.00    +0.000 A 
ATOM     21  C   UNL     1       2.488   4.476  18.154  0.00  0.00    +0.000 A 
ATOM     22  C   UNL     1       3.088   3.832  17.074  0.00  0.00    +0.000 A 
ATOM     23  F   UNL     1       2.371   2.947  16.370  0.00  0.00    +0.000 F 
ATOM     24  C   UNL     1       4.417   4.037  16.725  0.00  0.00    +0.000 A 
ATOM     25  C   UNL     1       5.174   4.682  17.701  0.00  0.00    +0.000 A 
ATOM     26  N   UNL     1       6.536   4.741  17.897  0.00  0.00    +0.000 N 
ATOM     27  C   UNL     1       6.746   5.378  19.088  0.00  0.00    +0.000 A 
ATOM     28  N   UNL     1       5.626   5.867  19.582  0.00  0.00    +0.000 NA
ATOM     29  C   UNL     1       4.631   5.367  18.782  0.00  0.00    +0.000 A 
ATOM     30  H   UNL     1       7.230   4.252  17.355  0.00  0.00    +0.000 HD
ENDBRANCH   5  20
TORSDOF 2
ENDMDL
MODEL 3
REMARK VINA RESULT:      -8.2      2.844      3.905
REMARK  Name = 
REMARK  4 active torsions:
REMARK  status: ('A' for Active; 'I' for Inactive)
REMARK    1  A    between atoms: C_1  and  C_2
REMARK    2  A    between atoms: C_4  and  C_5
REMARK    3  A    between atoms: C_9  and  C_11
REMARK    4  A    between atoms: N_27  and  C_28
REMARK                            x       y       z     vdW  Elec       q    Type
REMARK                         _______ _______ _______ _____ _____    ______ ____
ROOT
ATOM      1  C   UNL     1       0.880  10.930  19.858  0.00  0.00    +0.000 C 
ATOM      2  C   UNL     1       1.753  10.980  18.598  0.00  0.00    +0.000 C 
ATOM      3  C   UNL     1       1.901   9.648  17.857  0.00  0.00    +0.000 C 
ATOM      4  N   UNL     1       2.163   8.507  18.726  0.00  0.00    +0.000 N 
ATOM      5  C   UNL     1       2.880   7.427  18.145  0.00  0.00    +0.000 C 
ATOM      6  O   UNL     1       3.501   7.536  17.080  0.00  0.00    +0.000 OA
ATOM      7  C   UNL     1       1.276   8.389  19.879  0.00  0.00    +0.000 C 
ATOM      8  C   UNL     1       1.189   9.681  20.691  0.00  0.00    +0.000 C 
ENDROOT
BRANCH   1  12
ATOM      9  C   UNL     1      -3.577  10.456  17.681  0.00  0.00    +0.000 C 
ATOM     10  C   UNL     1      -2.484  10.916  18.569  0.00  0.00    +0.000 A 
ATOM     11  N   UNL     1      -1.236  10.487  18.559  0.00  0.00    +0.000 NA
ATOM     12  C   UNL     1      -0.582  11.156  19.570  0.00  0.00    +0.000 A 
ATOM     13  C   UNL     1      -1.470  11.996  20.226  0.00  0.00    +0.000 A 
ATOM     14  N   UNL     1      -2.644  11.874  19.533  0.00  0.00    +0.000 N 
ATOM     15  C   UNL     1      -3.848  12.621  19.850  0.00  0.00    +0.000 C 
ATOM     16  C   UNL     1      -3.567  13.732  20.875  0.00  0.00    +0.000 C 
ATOM     17  N   UNL     1      -2.631  13.352  21.949  0.00  0.00    +0.000 NA
ATOM     18  C   UNL     1      -3.199  12.346  22.846  0.00  0.00    +0.000 C 
ATOM     19  C   UNL     1      -1.335  12.929  21.381  0.00  0.00    +0.000 C 
ENDBRANCH   1  12
BRANCH   5  20
ATOM     20  C   UNL     1       3.028   6.145  18.858  0.00  0.00    +0.000 A 
ATOM     21  C   UNL     1       2.016   5.720  19.748  0.00  0.00    +0.000 A 
ATOM     22  C   UNL     1       2.046   4.425  20.262  0.00  0.00    +0.000 A 
ATOM     23  F   UNL     1       1.082   4.043  21.110  0.00  0.00    +0.000 F 
ATOM     24  C   UNL     1       3.064   3.527  19.967  0.00  0.00    +0.000 A 
ATOM     25  C   UNL     1       4.188   4.105  19.381  0.00  0.00    +0.000 A 
ATOM     26  N   UNL     1       5.487   3.657  19.279  0.00  0.00    +0.000 N 
ATOM     27  C   UNL     1       6.225   4.675  18.746  0.00  0.00    +0.000 A 
ATOM     28  N   UNL     1       5.463   5.677  18.355  0.00  0.00    +0.000 NA
ATOM     29  C   UNL     1       4.208   5.378  18.824  0.00  0.00    +0.000 A 
ATOM     30  H   UNL     1       5.849   2.809  19.685  0.00  0.00    +0.000 HD
ENDBRANCH   5  20
TORSDOF 2
ENDMDL
MODEL 4
REMARK VINA RESULT:      -7.8      1.054      1.054
REMARK  Name = 
REMARK  4 active torsions:
REMARK  status: ('A' for Active; 'I' for Inactive)
REMARK    1  A    between atoms: C_1  and  C_2
REMARK    2  A    between atoms: C_4  and  C_5
REMARK    3  A    between atoms: C_9  and  C_11
REMARK    4  A    between atoms: N_27  and  C_28
REMARK                            x       y       z     vdW  Elec       q    Type
REMARK                         _______ _______ _______ _____ _____    ______ ____
ROOT
ATOM      1  C   UNL     1       0.343  10.404  18.833  0.00  0.00    +0.000 C 
ATOM      2  C   UNL     1      -0.023   9.544  20.049  0.00  0.00    +0.000 C 
ATOM      3  C   UNL     1       1.096   8.636  20.565  0.00  0.00    +0.000 C 
ATOM      4  N   UNL     1       1.815   7.920  19.517  0.00  0.00    +0.000 N 
ATOM      5  C   UNL     1       2.402   6.683  19.890  0.00  0.00    +0.000 C 
ATOM      6  O   UNL     1       2.098   6.089  20.933  0.00  0.00    +0.000 OA
ATOM      7  C   UNL     1       2.259   8.744  18.396  0.00  0.00    +0.000 C 
ATOM      8  C   UNL     1       1.132   9.589  17.803  0.00  0.00    +0.000 C 
ENDROOT
BRANCH   1  12
ATOM      9  C   UNL     1       3.513  14.249  18.805  0.00  0.00    +0.000 C 
ATOM     10  C   UNL     1       2.390  13.350  19.162  0.00  0.00    +0.000 A 
ATOM     11  N   UNL     1       2.107  12.192  18.597  0.00  0.00    +0.000 NA
ATOM     12  C   UNL     1       0.967  11.722  19.213  0.00  0.00    +0.000 A 
ATOM     13  C   UNL     1       0.536  12.639  20.161  0.00  0.00    +0.000 A 
ATOM     14  N   UNL     1       1.487  13.623  20.154  0.00  0.00    +0.000 N 
ATOM     15  C   UNL     1       1.460  14.775  21.037  0.00  0.00    +0.000 C 
ATOM     16  C   UNL     1       0.394  14.619  22.133  0.00  0.00    +0.000 C 
ATOM     17  N   UNL     1      -0.869  14.011  21.676  0.00  0.00    +0.000 NA
ATOM     18  C   UNL     1      -1.603  14.884  20.761  0.00  0.00    +0.000 C 
ATOM     19  C   UNL     1      -0.621  12.674  21.100  0.00  0.00    +0.000 C 
ENDBRANCH   1  12
BRANCH   5  20
ATOM     20  C   UNL     1       3.318   5.972  18.978  0.00  0.00    +0.000 A 
ATOM     21  C   UNL     1       3.608   6.523  17.710  0.00  0.00    +0.000 A 
ATOM     22  C   UNL     1       4.624   5.972  16.932  0.00  0.00    +0.000 A 
ATOM     23  F   UNL     1       4.878   6.504  15.729  0.00  0.00    +0.000 F 
ATOM     24  C   UNL     1       5.355   4.861  17.335  0.00  0.00    +0.000 A 
ATOM     25  C   UNL     1       4.800   4.167  18.408  0.00  0.00    +0.000 A 
ATOM     26  N   UNL     1       4.997   2.877  18.849  0.00  0.00    +0.000 N 
ATOM     27  C   UNL     1       4.093   2.649  19.848  0.00  0.00    +0.000 A 
ATOM     28  N   UNL     1       3.448   3.750  20.181  0.00  0.00    +0.000 NA
ATOM     29  C   UNL     1       3.809   4.677  19.237  0.00  0.00    +0.000 A 
ATOM     30  H   UNL     1       5.573   2.183  18.400  0.00  0.00    +0.000 HD
ENDBRANCH   5  20
TORSDOF 2
ENDMDL
MODEL 5
REMARK VINA RESULT:      -7.7      2.093      2.517
REMARK  Name = 
REMARK  4 active torsions:
REMARK  status: ('A' for Active; 'I' for Inactive)
REMARK    1  A    between atoms: C_1  and  C_2
REMARK    2  A    between atoms: C_4  and  C_5
REMARK    3  A    between atoms: C_9  and  C_11
REMARK    4  A    between atoms: N_27  and  C_28
REMARK                            x       y       z     vdW  Elec       q    Type
REMARK                         _______ _______ _______ _____ _____    ______ ____
ROOT
ATOM      1  C   UNL     1       0.754   9.436  18.546  0.00  0.00    +0.000 C 
ATOM      2  C   UNL     1       0.633   8.506  19.759  0.00  0.00    +0.000 C 
ATOM      3  C   UNL     1       1.924   7.787  20.159  0.00  0.00    +0.000 C 
ATOM      4  N   UNL     1       2.663   7.220  19.038  0.00  0.00    +0.000 N 
ATOM      5  C   UNL     1       3.473   6.090  19.327  0.00  0.00    +0.000 C 
ATOM      6  O   UNL     1       3.356   5.436  20.371  0.00  0.00    +0.000 OA
ATOM      7  C   UNL     1       2.874   8.125  17.912  0.00  0.00    +0.000 C 
ATOM      8  C   UNL     1       1.580   8.781  17.433  0.00  0.00    +0.000 C 
ENDROOT
BRANCH   1  12
ATOM      9  C   UNL     1       3.312  13.712  18.463  0.00  0.00    +0.000 C 
ATOM     10  C   UNL     1       2.344  12.655  18.841  0.00  0.00    +0.000 A 
ATOM     11  N   UNL     1       2.226  11.468  18.278  0.00  0.00    +0.000 NA
ATOM     12  C   UNL     1       1.182  10.833  18.916  0.00  0.00    +0.000 A 
ATOM     13  C   UNL     1       0.640  11.675  19.876  0.00  0.00    +0.000 A 
ATOM     14  N   UNL     1       1.432  12.790  19.852  0.00  0.00    +0.000 N 
ATOM     15  C   UNL     1       1.252  13.925  20.739  0.00  0.00    +0.000 C 
ATOM     16  C   UNL     1       0.245  13.612  21.857  0.00  0.00    +0.000 C 
ATOM     17  N   UNL     1      -0.922  12.822  21.425  0.00  0.00    +0.000 NA
ATOM     18  C   UNL     1      -1.798  13.575  20.529  0.00  0.00    +0.000 C 
ATOM     19  C   UNL     1      -0.490  11.537  20.839  0.00  0.00    +0.000 C 
ENDBRANCH   1  12
BRANCH   5  20
ATOM     20  C   UNL     1       4.417   5.557  18.326  0.00  0.00    +0.000 A 
ATOM     21  C   UNL     1       3.920   4.891  17.183  0.00  0.00    +0.000 A 
ATOM     22  C   UNL     1       4.784   4.571  16.139  0.00  0.00    +0.000 A 
ATOM     23  F   UNL     1       4.296   3.932  15.067  0.00  0.00    +0.000 F 
ATOM     24  C   UNL     1       6.146   4.846  16.184  0.00  0.00    +0.000 A 
ATOM     25  C   UNL     1       6.623   5.176  17.451  0.00  0.00    +0.000 A 
ATOM     26  N   UNL     1       7.899   5.157  17.970  0.00  0.00    +0.000 N 
ATOM     27  C   UNL     1       7.796   5.426  19.305  0.00  0.00    +0.000 A 
ATOM     28  N   UNL     1       6.569   5.772  19.639  0.00  0.00    +0.000 NA
ATOM     29  C   UNL     1       5.811   5.534  18.520  0.00  0.00    +0.000 A 
ATOM     30  H   UNL     1       8.723   4.831  17.491  0.00  0.00    +0.000 HD
ENDBRANCH   5  20
TORSDOF 2
ENDMDL
MODEL 6
REMARK VINA RESULT:      -7.5      2.996      4.541
REMARK  Name = 
REMARK  4 active torsions:
REMARK  status: ('A' for Active; 'I' for Inactive)
REMARK    1  A    between atoms: C_1  and  C_2
REMARK    2  A    between atoms: C_4  and  C_5
REMARK    3  A    between atoms: C_9  and  C_11
REMARK    4  A    between atoms: N_27  and  C_28
REMARK                            x       y       z     vdW  Elec       q    Type
REMARK                         _______ _______ _______ _____ _____    ______ ____
ROOT
ATOM      1  C   UNL     1       0.832  11.280  19.985  0.00  0.00    +0.000 C 
ATOM      2  C   UNL     1       1.623  11.316  18.672  0.00  0.00    +0.000 C 
ATOM      3  C   UNL     1       1.679   9.991  17.908  0.00  0.00    +0.000 C 
ATOM      4  N   UNL     1       1.959   8.831  18.746  0.00  0.00    +0.000 N 
ATOM      5  C   UNL     1       2.600   7.736  18.109  0.00  0.00    +0.000 C 
ATOM      6  O   UNL     1       3.154   7.838  17.007  0.00  0.00    +0.000 OA
ATOM      7  C   UNL     1       1.144   8.727  19.953  0.00  0.00    +0.000 C 
ATOM      8  C   UNL     1       1.152  10.010  20.782  0.00  0.00    +0.000 C 
ENDROOT
BRANCH   1  12
ATOM      9  C   UNL     1      -3.650  13.359  20.633  0.00  0.00    +0.000 C 
ATOM     10  C   UNL     1      -2.559  12.486  20.139  0.00  0.00    +0.000 A 
ATOM     11  N   UNL     1      -1.303  12.501  20.544  0.00  0.00    +0.000 NA
ATOM     12  C   UNL     1      -0.637  11.556  19.794  0.00  0.00    +0.000 A 
ATOM     13  C   UNL     1      -1.514  10.971  18.893  0.00  0.00    +0.000 A 
ATOM     14  N   UNL     1      -2.732  11.529  19.176  0.00  0.00    +0.000 N 
ATOM     15  C   UNL     1      -3.962  11.167  18.495  0.00  0.00    +0.000 C 
ATOM     16  C   UNL     1      -3.772   9.921  17.615  0.00  0.00    +0.000 C 
ATOM     17  N   UNL     1      -2.488   9.871  16.893  0.00  0.00    +0.000 NA
ATOM     18  C   UNL     1      -2.395  10.901  15.860  0.00  0.00    +0.000 C 
ATOM     19  C   UNL     1      -1.358   9.924  17.843  0.00  0.00    +0.000 C 
ENDBRANCH   1  12
BRANCH   5  20
ATOM     20  C   UNL     1       2.751   6.440  18.797  0.00  0.00    +0.000 A 
ATOM     21  C   UNL     1       1.689   5.939  19.583  0.00  0.00    +0.000 A 
ATOM     22  C   UNL     1       1.741   4.632  20.063  0.00  0.00    +0.000 A 
ATOM     23  F   UNL     1       0.728   4.178  20.813  0.00  0.00    +0.000 F 
ATOM     24  C   UNL     1       2.825   3.793  19.833  0.00  0.00    +0.000 A 
ATOM     25  C   UNL     1       3.964   4.443  19.364  0.00  0.00    +0.000 A 
ATOM     26  N   UNL     1       5.288   4.061  19.364  0.00  0.00    +0.000 N 
ATOM     27  C   UNL     1       6.017   5.130  18.926  0.00  0.00    +0.000 A 
ATOM     28  N   UNL     1       5.241   6.106  18.496  0.00  0.00    +0.000 NA
ATOM     29  C   UNL     1       3.967   5.732  18.845  0.00  0.00    +0.000 A 
ATOM     30  H   UNL     1       5.657   3.220  19.777  0.00  0.00    +0.000 HD
ENDBRANCH   5  20
TORSDOF 2
ENDMDL
MODEL 7
REMARK VINA RESULT:      -7.5      2.717      3.696
REMARK  Name = 
REMARK  4 active torsions:
REMARK  status: ('A' for Active; 'I' for Inactive)
REMARK    1  A    between atoms: C_1  and  C_2
REMARK    2  A    between atoms: C_4  and  C_5
REMARK    3  A    between atoms: C_9  and  C_11
REMARK    4  A    between atoms: N_27  and  C_28
REMARK                            x       y       z     vdW  Elec       q    Type
REMARK                         _______ _______ _______ _____ _____    ______ ____
ROOT
ATOM      1  C   UNL     1       1.078  10.206  19.958  0.00  0.00    +0.000 C 
ATOM      2  C   UNL     1       2.019  10.089  18.753  0.00  0.00    +0.000 C 
ATOM      3  C   UNL     1       1.994   8.736  18.037  0.00  0.00    +0.000 C 
ATOM      4  N   UNL     1       2.019   7.586  18.933  0.00  0.00    +0.000 N 
ATOM      5  C   UNL     1       2.585   6.394  18.410  0.00  0.00    +0.000 C 
ATOM      6  O   UNL     1       3.277   6.380  17.384  0.00  0.00    +0.000 OA
ATOM      7  C   UNL     1       1.059   7.635  20.032  0.00  0.00    +0.000 C 
ATOM      8  C   UNL     1       1.133   8.941  20.822  0.00  0.00    +0.000 C 
ENDROOT
BRANCH   1  12
ATOM      9  C   UNL     1      -3.247  10.431  17.492  0.00  0.00    +0.000 C 
ATOM     10  C   UNL     1      -2.156  10.715  18.455  0.00  0.00    +0.000 A 
ATOM     11  N   UNL     1      -0.992  10.098  18.520  0.00  0.00    +0.000 NA
ATOM     12  C   UNL     1      -0.310  10.656  19.579  0.00  0.00    +0.000 A 
ATOM     13  C   UNL     1      -1.098  11.623  20.185  0.00  0.00    +0.000 A 
ATOM     14  N   UNL     1      -2.229  11.685  19.417  0.00  0.00    +0.000 N 
ATOM     15  C   UNL     1      -3.321  12.609  19.664  0.00  0.00    +0.000 C 
ATOM     16  C   UNL     1      -2.940  13.662  20.718  0.00  0.00    +0.000 C 
ATOM     17  N   UNL     1      -2.146  13.140  21.845  0.00  0.00    +0.000 NA
ATOM     18  C   UNL     1      -2.920  12.234  22.692  0.00  0.00    +0.000 C 
ATOM     19  C   UNL     1      -0.897  12.522  21.357  0.00  0.00    +0.000 C 
ENDBRANCH   1  12
BRANCH   5  20
ATOM     20  C   UNL     1       2.484   5.119  19.146  0.00  0.00    +0.000 A 
ATOM     21  C   UNL     1       2.578   5.117  20.556  0.00  0.00    +0.000 A 
ATOM     22  C   UNL     1       2.278   3.958  21.267  0.00  0.00    +0.000 A 
ATOM     23  F   UNL     1       2.380   3.973  22.602  0.00  0.00    +0.000 F 
ATOM     24  C   UNL     1       1.919   2.769  20.643  0.00  0.00    +0.000 A 
ATOM     25  C   UNL     1       2.179   2.738  19.274  0.00  0.00    +0.000 A 
ATOM     26  N   UNL     1       2.312   1.679  18.403  0.00  0.00    +0.000 N 
ATOM     27  C   UNL     1       2.717   2.192  17.203  0.00  0.00    +0.000 A 
ATOM     28  N   UNL     1       2.696   3.510  17.205  0.00  0.00    +0.000 NA
ATOM     29  C   UNL     1       2.453   3.864  18.508  0.00  0.00    +0.000 A 
ATOM     30  H   UNL     1       2.287   0.704  18.654  0.00  0.00    +0.000 HD
ENDBRANCH   5  20
TORSDOF 2
ENDMDL
MODEL 8
REMARK VINA RESULT:      -7.2      4.984      7.549
REMARK  Name = 
REMARK  4 active torsions:
REMARK  status: ('A' for Active; 'I' for Inactive)
REMARK    1  A    between atoms: C_1  and  C_2
REMARK    2  A    between atoms: C_4  and  C_5
REMARK    3  A    between atoms: C_9  and  C_11
REMARK    4  A    between atoms: N_27  and  C_28
REMARK                            x       y       z     vdW  Elec       q    Type
REMARK                         _______ _______ _______ _____ _____    ______ ____
ROOT
ATOM      1  C   UNL     1       4.350  15.516  18.838  0.00  0.00    +0.000 C 
ATOM      2  C   UNL     1       3.329  16.383  19.585  0.00  0.00    +0.000 C 
ATOM      3  C   UNL     1       2.315  15.609  20.432  0.00  0.00    +0.000 C 
ATOM      4  N   UNL     1       1.742  14.447  19.763  0.00  0.00    +0.000 N 
ATOM      5  C   UNL     1       0.442  14.058  20.182  0.00  0.00    +0.000 C 
ATOM      6  O   UNL     1      -0.291  14.799  20.849  0.00  0.00    +0.000 OA
ATOM      7  C   UNL     1       2.710  13.557  19.130  0.00  0.00    +0.000 C 
ATOM      8  C   UNL     1       3.673  14.297  18.202  0.00  0.00    +0.000 C 
ENDROOT
BRANCH   1  12
ATOM      9  C   UNL     1       7.184  14.654  22.845  0.00  0.00    +0.000 C 
ATOM     10  C   UNL     1       6.750  14.861  21.443  0.00  0.00    +0.000 A 
ATOM     11  N   UNL     1       5.525  15.137  21.038  0.00  0.00    +0.000 NA
ATOM     12  C   UNL     1       5.573  15.207  19.662  0.00  0.00    +0.000 A 
ATOM     13  C   UNL     1       6.862  14.940  19.225  0.00  0.00    +0.000 A 
ATOM     14  N   UNL     1       7.597  14.791  20.370  0.00  0.00    +0.000 N 
ATOM     15  C   UNL     1       9.027  14.542  20.383  0.00  0.00    +0.000 C 
ATOM     16  C   UNL     1       9.642  14.723  18.986  0.00  0.00    +0.000 C 
ATOM     17  N   UNL     1       8.814  14.206  17.881  0.00  0.00    +0.000 NA
ATOM     18  C   UNL     1       8.713  12.748  17.903  0.00  0.00    +0.000 C 
ATOM     19  C   UNL     1       7.491  14.861  17.875  0.00  0.00    +0.000 C 
ENDBRANCH   1  12
BRANCH   5  20
ATOM     20  C   UNL     1      -0.154  12.788  19.726  0.00  0.00    +0.000 A 
ATOM     21  C   UNL     1      -1.075  12.794  18.655  0.00  0.00    +0.000 A 
ATOM     22  C   UNL     1      -1.481  11.590  18.085  0.00  0.00    +0.000 A 
ATOM     23  F   UNL     1      -2.361  11.616  17.076  0.00  0.00    +0.000 F 
ATOM     24  C   UNL     1      -1.044  10.356  18.553  0.00  0.00    +0.000 A 
ATOM     25  C   UNL     1      -0.429  10.401  19.803  0.00  0.00    +0.000 A 
ATOM     26  N   UNL     1      -0.201   9.413  20.734  0.00  0.00    +0.000 N 
ATOM     27  C   UNL     1       0.299  10.019  21.852  0.00  0.00    +0.000 A 
ATOM     28  N   UNL     1       0.555  11.294  21.641  0.00  0.00    +0.000 NA
ATOM     29  C   UNL     1       0.025  11.568  20.406  0.00  0.00    +0.000 A 
ATOM     30  H   UNL     1      -0.511   8.457  20.665  0.00  0.00    +0.000 HD
ENDBRANCH   5  20
TORSDOF 2
ENDMDL
MODEL 9
REMARK VINA RESULT:      -7.2      4.656      7.803
REMARK  Name = 
REMARK  4 active torsions:
REMARK  status: ('A' for Active; 'I' for Inactive)
REMARK    1  A    between atoms: C_1  and  C_2
REMARK    2  A    between atoms: C_4  and  C_5
REMARK    3  A    between atoms: C_9  and  C_11
REMARK    4  A    between atoms: N_27  and  C_28
REMARK                            x       y       z     vdW  Elec       q    Type
REMARK                         _______ _______ _______ _____ _____    ______ ____
ROOT
ATOM      1  C   UNL     1      -2.621  14.194  24.173  0.00  0.00    +0.000 C 
ATOM      2  C   UNL     1      -1.507  15.104  23.642  0.00  0.00    +0.000 C 
ATOM      3  C   UNL     1      -1.168  14.921  22.160  0.00  0.00    +0.000 C 
ATOM      4  N   UNL     1      -1.058  13.529  21.741  0.00  0.00    +0.000 N 
ATOM      5  C   UNL     1      -0.204  13.272  20.636  0.00  0.00    +0.000 C 
ATOM      6  O   UNL     1       0.621  14.099  20.226  0.00  0.00    +0.000 OA
ATOM      7  C   UNL     1      -2.161  12.668  22.154  0.00  0.00    +0.000 C 
ATOM      8  C   UNL     1      -2.454  12.762  23.651  0.00  0.00    +0.000 C 
ENDROOT
BRANCH   1  12
ATOM      9  C   UNL     1      -6.197  17.609  23.559  0.00  0.00    +0.000 C 
ATOM     10  C   UNL     1      -5.502  16.314  23.745  0.00  0.00    +0.000 A 
ATOM     11  N   UNL     1      -4.202  16.138  23.884  0.00  0.00    +0.000 NA
ATOM     12  C   UNL     1      -3.997  14.780  23.991  0.00  0.00    +0.000 A 
ATOM     13  C   UNL     1      -5.210  14.115  23.887  0.00  0.00    +0.000 A 
ATOM     14  N   UNL     1      -6.148  15.108  23.799  0.00  0.00    +0.000 N 
ATOM     15  C   UNL     1      -7.576  14.863  23.720  0.00  0.00    +0.000 C 
ATOM     16  C   UNL     1      -7.911  13.390  24.004  0.00  0.00    +0.000 C 
ATOM     17  N   UNL     1      -6.964  12.423  23.418  0.00  0.00    +0.000 NA
ATOM     18  C   UNL     1      -7.031  12.400  21.958  0.00  0.00    +0.000 C 
ATOM     19  C   UNL     1      -5.595  12.675  23.914  0.00  0.00    +0.000 C 
ENDBRANCH   1  12
BRANCH   5  20
ATOM     20  C   UNL     1      -0.169  11.943  19.997  0.00  0.00    +0.000 A 
ATOM     21  C   UNL     1      -0.927  11.710  18.828  0.00  0.00    +0.000 A 
ATOM     22  C   UNL     1      -0.740  10.533  18.107  0.00  0.00    +0.000 A 
ATOM     23  F   UNL     1      -1.474  10.327  17.005  0.00  0.00    +0.000 F 
ATOM     24  C   UNL     1       0.147   9.541  18.509  0.00  0.00    +0.000 A 
ATOM     25  C   UNL     1       0.594   9.670  19.822  0.00  0.00    +0.000 A 
ATOM     26  N   UNL     1       1.155   8.750  20.680  0.00  0.00    +0.000 N 
ATOM     27  C   UNL     1       1.269   9.353  21.901  0.00  0.00    +0.000 A 
ATOM     28  N   UNL     1       0.971  10.636  21.840  0.00  0.00    +0.000 NA
ATOM     29  C   UNL     1       0.464  10.827  20.580  0.00  0.00    +0.000 A 
ATOM     30  H   UNL     1       1.287   7.770  20.487  0.00  0.00    +0.000 HD
ENDBRANCH   5  20
TORSDOF 2
ENDMDL
