MODEL 1
REMARK VINA RESULT:      -7.9      0.000      0.000
REMARK  Name = 
REMARK  5 active torsions:
REMARK  status: ('A' for Active; 'I' for Inactive)
REMARK    1  A    between atoms: C_1  and  C_2
REMARK    2  A    between atoms: C_6  and  C_7
REMARK    3  A    between atoms: C_10  and  N_11
REMARK    4  A    between atoms: N_14  and  C_15
REMARK    5  A    between atoms: C_20  and  C_21
REMARK                            x       y       z     vdW  Elec       q    Type
REMARK                         _______ _______ _______ _____ _____    ______ ____
ROOT
ATOM      1  N   UNL     1       0.319   7.483  21.303  0.00  0.00    +0.000 N 
ATOM      2  C   UNL     1       1.501   7.075  20.720  0.00  0.00    +0.000 C 
ATOM      3  O   UNL     1       2.409   7.792  20.320  0.00  0.00    +0.000 OA
ATOM      4  N   UNL     1       1.559   5.704  20.599  0.00  0.00    +0.000 N 
ATOM      5  H   UNL     1      -0.312   6.753  21.592  0.00  0.00    +0.000 HD
ATOM      6  H   UNL     1       0.898   5.132  21.105  0.00  0.00    +0.000 HD
ENDROOT
BRANCH   1  10
ATOM      7  C   UNL     1      -1.015  11.452  22.127  0.00  0.00    +0.000 A 
ATOM      8  C   UNL     1      -0.711  11.050  20.815  0.00  0.00    +0.000 A 
ATOM      9  C   UNL     1      -0.264   9.754  20.522  0.00  0.00    +0.000 A 
ATOM     10  C   UNL     1      -0.112   8.808  21.529  0.00  0.00    +0.000 A 
ATOM     11  C   UNL     1      -0.417   9.183  22.843  0.00  0.00    +0.000 A 
ATOM     12  C   UNL     1      -0.860  10.485  23.134  0.00  0.00    +0.000 A 
BRANCH   7  18
ATOM     13  C   UNL     1      -4.071  15.120  21.265  0.00  0.00    +0.000 C 
ATOM     14  C   UNL     1      -2.907  14.582  22.039  0.00  0.00    +0.000 A 
ATOM     15  C   UNL     1      -2.330  15.316  23.055  0.00  0.00    +0.000 A 
ATOM     16  C   UNL     1      -1.282  14.719  23.711  0.00  0.00    +0.000 A 
ATOM     17  N   UNL     1      -0.828  13.489  23.418  0.00  0.00    +0.000 NA
ATOM     18  C   UNL     1      -1.453  12.835  22.419  0.00  0.00    +0.000 A 
ATOM     19  N   UNL     1      -2.479  13.344  21.706  0.00  0.00    +0.000 NA
ENDBRANCH   7  18
ENDBRANCH   1  10
BRANCH   4  20
ATOM     20  C   UNL     1       2.752   5.022  20.068  0.00  0.00    +0.000 C 
ATOM     21  C   UNL     1       2.759   3.550  20.494  0.00  0.00    +0.000 C 
ATOM     22  C   UNL     1       1.647   2.767  19.809  0.00  0.00    +0.000 C 
ATOM     23  C   UNL     1       1.592   3.029  18.314  0.00  0.00    +0.000 C 
ATOM     24  O   UNL     1       1.674   4.410  17.959  0.00  0.00    +0.000 OA
ATOM     25  C   UNL     1       2.787   5.138  18.519  0.00  0.00    +0.000 C 
BRANCH  25  26
ATOM     26  C   UNL     1       4.134   4.836  17.865  0.00  0.00    +0.000 A 
ATOM     27  C   UNL     1       5.352   5.003  18.535  0.00  0.00    +0.000 A 
ATOM     28  C   UNL     1       6.540   4.730  17.873  0.00  0.00    +0.000 A 
ATOM     29  N   UNL     1       6.605   4.256  16.613  0.00  0.00    +0.000 NA
ATOM     30  C   UNL     1       5.427   4.033  15.997  0.00  0.00    +0.000 A 
ATOM     31  C   UNL     1       4.192   4.300  16.570  0.00  0.00    +0.000 A 
ENDBRANCH  25  26
ENDBRANCH   4  20
TORSDOF 4
ENDMDL
MODEL 2
REMARK VINA RESULT:      -7.9      7.712     11.824
REMARK  Name = 
REMARK  5 active torsions:
REMARK  status: ('A' for Active; 'I' for Inactive)
REMARK    1  A    between atoms: C_1  and  C_2
REMARK    2  A    between atoms: C_6  and  C_7
REMARK    3  A    between atoms: C_10  and  N_11
REMARK    4  A    between atoms: N_14  and  C_15
REMARK    5  A    between atoms: C_20  and  C_21
REMARK                            x       y       z     vdW  Elec       q    Type
REMARK                         _______ _______ _______ _____ _____    ______ ____
ROOT
ATOM      1  N   UNL     1       8.601   9.095  17.699  0.00  0.00    +0.000 N 
ATOM      2  C   UNL     1       8.992   9.986  18.678  0.00  0.00    +0.000 C 
ATOM      3  O   UNL     1       8.736   9.923  19.873  0.00  0.00    +0.000 OA
ATOM      4  N   UNL     1       9.718  11.031  18.150  0.00  0.00    +0.000 N 
ATOM      5  H   UNL     1       8.918   9.291  16.763  0.00  0.00    +0.000 HD
ATOM      6  H   UNL     1      10.077  10.961  17.209  0.00  0.00    +0.000 HD
ENDROOT
BRANCH   1  10
ATOM      7  C   UNL     1       6.064   5.687  18.104  0.00  0.00    +0.000 A 
ATOM      8  C   UNL     1       7.291   5.759  18.785  0.00  0.00    +0.000 A 
ATOM      9  C   UNL     1       8.144   6.865  18.661  0.00  0.00    +0.000 A 
ATOM     10  C   UNL     1       7.797   7.945  17.858  0.00  0.00    +0.000 A 
ATOM     11  C   UNL     1       6.576   7.899  17.175  0.00  0.00    +0.000 A 
ATOM     12  C   UNL     1       5.726   6.787  17.297  0.00  0.00    +0.000 A 
BRANCH   7  18
ATOM     13  C   UNL     1       4.517   1.906  20.721  0.00  0.00    +0.000 C 
ATOM     14  C   UNL     1       4.433   2.706  19.457  0.00  0.00    +0.000 A 
ATOM     15  C   UNL     1       3.505   2.396  18.483  0.00  0.00    +0.000 A 
ATOM     16  C   UNL     1       3.501   3.207  17.375  0.00  0.00    +0.000 A 
ATOM     17  N   UNL     1       4.326   4.256  17.219  0.00  0.00    +0.000 NA
ATOM     18  C   UNL     1       5.196   4.496  18.222  0.00  0.00    +0.000 A 
ATOM     19  N   UNL     1       5.286   3.747  19.340  0.00  0.00    +0.000 NA
ENDBRANCH   7  18
ENDBRANCH   1  10
BRANCH   4  20
ATOM     20  C   UNL     1      10.305  12.077  19.005  0.00  0.00    +0.000 C 
ATOM     21  C   UNL     1      11.794  12.253  18.688  0.00  0.00    +0.000 C 
ATOM     22  C   UNL     1      11.999  12.857  17.305  0.00  0.00    +0.000 C 
ATOM     23  C   UNL     1      11.118  14.071  17.067  0.00  0.00    +0.000 C 
ATOM     24  O   UNL     1       9.756  13.891  17.457  0.00  0.00    +0.000 OA
ATOM     25  C   UNL     1       9.545  13.418  18.805  0.00  0.00    +0.000 C 
BRANCH  25  26
ATOM     26  C   UNL     1       9.770  14.472  19.887  0.00  0.00    +0.000 A 
ATOM     27  C   UNL     1       9.633  15.843  19.644  0.00  0.00    +0.000 A 
ATOM     28  C   UNL     1       9.873  16.747  20.670  0.00  0.00    +0.000 A 
ATOM     29  N   UNL     1      10.190  16.385  21.928  0.00  0.00    +0.000 NA
ATOM     30  C   UNL     1      10.254  15.062  22.173  0.00  0.00    +0.000 A 
ATOM     31  C   UNL     1      10.055  14.087  21.206  0.00  0.00    +0.000 A 
ENDBRANCH  25  26
ENDBRANCH   4  20
TORSDOF 4
ENDMDL
MODEL 3
REMARK VINA RESULT:      -7.9      0.684      1.397
REMARK  Name = 
REMARK  5 active torsions:
REMARK  status: ('A' for Active; 'I' for Inactive)
REMARK    1  A    between atoms: C_1  and  C_2
REMARK    2  A    between atoms: C_6  and  C_7
REMARK    3  A    between atoms: C_10  and  N_11
REMARK    4  A    between atoms: N_14  and  C_15
REMARK    5  A    between atoms: C_20  and  C_21
REMARK                            x       y       z     vdW  Elec       q    Type
REMARK                         _______ _______ _______ _____ _____    ______ ____
ROOT
ATOM      1  N   UNL     1       0.236   7.649  21.296  0.00  0.00    +0.000 N 
ATOM      2  C   UNL     1       1.414   7.214  20.724  0.00  0.00    +0.000 C 
ATOM      3  O   UNL     1       2.332   7.911  20.312  0.00  0.00    +0.000 OA
ATOM      4  N   UNL     1       1.454   5.840  20.630  0.00  0.00    +0.000 N 
ATOM      5  H   UNL     1      -0.405   6.933  21.598  0.00  0.00    +0.000 HD
ATOM      6  H   UNL     1       0.785   5.287  21.146  0.00  0.00    +0.000 HD
ENDROOT
BRANCH   1  10
ATOM      7  C   UNL     1      -1.040  11.653  22.041  0.00  0.00    +0.000 A 
ATOM      8  C   UNL     1      -0.809  11.200  20.730  0.00  0.00    +0.000 A 
ATOM      9  C   UNL     1      -0.383   9.892  20.463  0.00  0.00    +0.000 A 
ATOM     10  C   UNL     1      -0.179   8.984  21.495  0.00  0.00    +0.000 A 
ATOM     11  C   UNL     1      -0.409   9.410  22.808  0.00  0.00    +0.000 A 
ATOM     12  C   UNL     1      -0.831  10.724  23.074  0.00  0.00    +0.000 A 
BRANCH   7  18
ATOM     13  C   UNL     1      -2.700  14.986  25.151  0.00  0.00    +0.000 C 
ATOM     14  C   UNL     1      -2.225  14.650  23.771  0.00  0.00    +0.000 A 
ATOM     15  C   UNL     1      -2.089  15.631  22.810  0.00  0.00    +0.000 A 
ATOM     16  C   UNL     1      -1.627  15.216  21.585  0.00  0.00    +0.000 A 
ATOM     17  N   UNL     1      -1.304  13.943  21.306  0.00  0.00    +0.000 NA
ATOM     18  C   UNL     1      -1.456  13.048  22.304  0.00  0.00    +0.000 A 
ATOM     19  N   UNL     1      -1.918  13.356  23.533  0.00  0.00    +0.000 NA
ENDBRANCH   7  18
ENDBRANCH   1  10
BRANCH   4  20
ATOM     20  C   UNL     1       2.639   5.132  20.116  0.00  0.00    +0.000 C 
ATOM     21  C   UNL     1       2.623   3.667  20.566  0.00  0.00    +0.000 C 
ATOM     22  C   UNL     1       1.502   2.890  19.890  0.00  0.00    +0.000 C 
ATOM     23  C   UNL     1       1.457   3.127  18.391  0.00  0.00    +0.000 C 
ATOM     24  O   UNL     1       1.561   4.500  18.012  0.00  0.00    +0.000 OA
ATOM     25  C   UNL     1       2.682   5.222  18.565  0.00  0.00    +0.000 C 
BRANCH  25  26
ATOM     26  C   UNL     1       4.027   4.889  17.922  0.00  0.00    +0.000 A 
ATOM     27  C   UNL     1       4.132   4.204  16.706  0.00  0.00    +0.000 A 
ATOM     28  C   UNL     1       5.388   3.916  16.190  0.00  0.00    +0.000 A 
ATOM     29  N   UNL     1       6.543   4.302  16.768  0.00  0.00    +0.000 NA
ATOM     30  C   UNL     1       6.433   5.020  17.903  0.00  0.00    +0.000 A 
ATOM     31  C   UNL     1       5.223   5.333  18.505  0.00  0.00    +0.000 A 
ENDBRANCH  25  26
ENDBRANCH   4  20
TORSDOF 4
ENDMDL
MODEL 4
REMARK VINA RESULT:      -7.8      0.521      1.510
REMARK  Name = 
REMARK  5 active torsions:
REMARK  status: ('A' for Active; 'I' for Inactive)
REMARK    1  A    between atoms: C_1  and  C_2
REMARK    2  A    between atoms: C_6  and  C_7
REMARK    3  A    between atoms: C_10  and  N_11
REMARK    4  A    between atoms: N_14  and  C_15
REMARK    5  A    between atoms: C_20  and  C_21
REMARK                            x       y       z     vdW  Elec       q    Type
REMARK                         _______ _______ _______ _____ _____    ______ ____
ROOT
ATOM      1  N   UNL     1       0.182   7.608  21.314  0.00  0.00    +0.000 N 
ATOM      2  C   UNL     1       1.391   7.178  20.808  0.00  0.00    +0.000 C 
ATOM      3  O   UNL     1       2.362   7.871  20.534  0.00  0.00    +0.000 OA
ATOM      4  N   UNL     1       1.397   5.815  20.600  0.00  0.00    +0.000 N 
ATOM      5  H   UNL     1      -0.504   6.895  21.500  0.00  0.00    +0.000 HD
ATOM      6  H   UNL     1       0.669   5.248  21.010  0.00  0.00    +0.000 HD
ENDROOT
BRANCH   1  10
ATOM      7  C   UNL     1      -0.969  11.659  22.010  0.00  0.00    +0.000 A 
ATOM      8  C   UNL     1      -0.817  10.757  23.078  0.00  0.00    +0.000 A 
ATOM      9  C   UNL     1      -0.447   9.421  22.872  0.00  0.00    +0.000 A 
ATOM     10  C   UNL     1      -0.207   8.937  21.591  0.00  0.00    +0.000 A 
ATOM     11  C   UNL     1      -0.344   9.818  20.513  0.00  0.00    +0.000 A 
ATOM     12  C   UNL     1      -0.721  11.156  20.722  0.00  0.00    +0.000 A 
BRANCH   7  18
ATOM     13  C   UNL     1      -1.546  15.371  25.080  0.00  0.00    +0.000 C 
ATOM     14  C   UNL     1      -1.656  14.838  23.684  0.00  0.00    +0.000 A 
ATOM     15  C   UNL     1      -2.046  15.654  22.642  0.00  0.00    +0.000 A 
ATOM     16  C   UNL     1      -2.093  15.067  21.401  0.00  0.00    +0.000 A 
ATOM     17  N   UNL     1      -1.774  13.782  21.176  0.00  0.00    +0.000 NA
ATOM     18  C   UNL     1      -1.394  13.056  22.247  0.00  0.00    +0.000 A 
ATOM     19  N   UNL     1      -1.331  13.538  23.505  0.00  0.00    +0.000 NA
ENDBRANCH   7  18
ENDBRANCH   1  10
BRANCH   4  20
ATOM     20  C   UNL     1       2.599   5.108  20.128  0.00  0.00    +0.000 C 
ATOM     21  C   UNL     1       2.576   3.648  20.591  0.00  0.00    +0.000 C 
ATOM     22  C   UNL     1       1.479   2.859  19.890  0.00  0.00    +0.000 C 
ATOM     23  C   UNL     1       1.477   3.083  18.387  0.00  0.00    +0.000 C 
ATOM     24  O   UNL     1       1.587   4.453  17.999  0.00  0.00    +0.000 OA
ATOM     25  C   UNL     1       2.688   5.184  18.578  0.00  0.00    +0.000 C 
BRANCH  25  26
ATOM     26  C   UNL     1       4.053   4.851  17.979  0.00  0.00    +0.000 A 
ATOM     27  C   UNL     1       5.251   5.050  18.675  0.00  0.00    +0.000 A 
ATOM     28  C   UNL     1       6.458   4.746  18.060  0.00  0.00    +0.000 A 
ATOM     29  N   UNL     1       6.557   4.214  16.826  0.00  0.00    +0.000 NA
ATOM     30  C   UNL     1       5.398   3.962  16.187  0.00  0.00    +0.000 A 
ATOM     31  C   UNL     1       4.147   4.256  16.712  0.00  0.00    +0.000 A 
ENDBRANCH  25  26
ENDBRANCH   4  20
TORSDOF 4
ENDMDL
MODEL 5
REMARK VINA RESULT:      -7.8      2.833     10.940
REMARK  Name = 
REMARK  5 active torsions:
REMARK  status: ('A' for Active; 'I' for Inactive)
REMARK    1  A    between atoms: C_1  and  C_2
REMARK    2  A    between atoms: C_6  and  C_7
REMARK    3  A    between atoms: C_10  and  N_11
REMARK    4  A    between atoms: N_14  and  C_15
REMARK    5  A    between atoms: C_20  and  C_21
REMARK                            x       y       z     vdW  Elec       q    Type
REMARK                         _______ _______ _______ _____ _____    ______ ____
ROOT
ATOM      1  N   UNL     1       0.757  10.565  20.098  0.00  0.00    +0.000 N 
ATOM      2  C   UNL     1      -0.227  10.661  21.061  0.00  0.00    +0.000 C 
ATOM      3  O   UNL     1      -0.738   9.739  21.683  0.00  0.00    +0.000 OA
ATOM      4  N   UNL     1      -0.624  11.967  21.251  0.00  0.00    +0.000 N 
ATOM      5  H   UNL     1       1.078  11.433  19.699  0.00  0.00    +0.000 HD
ATOM      6  H   UNL     1      -0.061  12.717  20.876  0.00  0.00    +0.000 HD
ENDROOT
BRANCH   1  10
ATOM      7  C   UNL     1       2.559   7.063  18.455  0.00  0.00    +0.000 A 
ATOM      8  C   UNL     1       2.203   7.123  19.813  0.00  0.00    +0.000 A 
ATOM      9  C   UNL     1       1.617   8.265  20.376  0.00  0.00    +0.000 A 
ATOM     10  C   UNL     1       1.357   9.388  19.600  0.00  0.00    +0.000 A 
ATOM     11  C   UNL     1       1.696   9.350  18.242  0.00  0.00    +0.000 A 
ATOM     12  C   UNL     1       2.288   8.205  17.682  0.00  0.00    +0.000 A 
BRANCH   7  18
ATOM     13  C   UNL     1       2.518   2.268  17.720  0.00  0.00    +0.000 C 
ATOM     14  C   UNL     1       3.197   3.587  17.512  0.00  0.00    +0.000 A 
ATOM     15  C   UNL     1       4.332   3.684  16.734  0.00  0.00    +0.000 A 
ATOM     16  C   UNL     1       4.860   4.945  16.593  0.00  0.00    +0.000 A 
ATOM     17  N   UNL     1       4.323   6.041  17.152  0.00  0.00    +0.000 NA
ATOM     18  C   UNL     1       3.208   5.860  17.889  0.00  0.00    +0.000 A 
ATOM     19  N   UNL     1       2.625   4.662  18.098  0.00  0.00    +0.000 NA
ENDBRANCH   7  18
ENDBRANCH   1  10
BRANCH   4  20
ATOM     20  C   UNL     1      -1.615  12.335  22.277  0.00  0.00    +0.000 C 
ATOM     21  C   UNL     1      -1.103  13.509  23.118  0.00  0.00    +0.000 C 
ATOM     22  C   UNL     1      -1.039  14.792  22.300  0.00  0.00    +0.000 C 
ATOM     23  C   UNL     1      -2.314  15.040  21.514  0.00  0.00    +0.000 C 
ATOM     24  O   UNL     1      -2.803  13.895  20.814  0.00  0.00    +0.000 OA
ATOM     25  C   UNL     1      -2.967  12.699  21.604  0.00  0.00    +0.000 C 
BRANCH  25  26
ATOM     26  C   UNL     1      -4.182  12.715  22.530  0.00  0.00    +0.000 A 
ATOM     27  C   UNL     1      -5.485  12.921  22.062  0.00  0.00    +0.000 A 
ATOM     28  C   UNL     1      -6.540  12.944  22.963  0.00  0.00    +0.000 A 
ATOM     29  N   UNL     1      -6.400  12.730  24.286  0.00  0.00    +0.000 NA
ATOM     30  C   UNL     1      -5.153  12.466  24.722  0.00  0.00    +0.000 A 
ATOM     31  C   UNL     1      -4.035  12.446  23.899  0.00  0.00    +0.000 A 
ENDBRANCH  25  26
ENDBRANCH   4  20
TORSDOF 4
ENDMDL
MODEL 6
REMARK VINA RESULT:      -7.8      0.750      1.427
REMARK  Name = 
REMARK  5 active torsions:
REMARK  status: ('A' for Active; 'I' for Inactive)
REMARK    1  A    between atoms: C_1  and  C_2
REMARK    2  A    between atoms: C_6  and  C_7
REMARK    3  A    between atoms: C_10  and  N_11
REMARK    4  A    between atoms: N_14  and  C_15
REMARK    5  A    between atoms: C_20  and  C_21
REMARK                            x       y       z     vdW  Elec       q    Type
REMARK                         _______ _______ _______ _____ _____    ______ ____
ROOT
ATOM      1  N   UNL     1       0.008   8.031  21.365  0.00  0.00    +0.000 N 
ATOM      2  C   UNL     1       1.227   7.545  20.942  0.00  0.00    +0.000 C 
ATOM      3  O   UNL     1       2.244   8.193  20.733  0.00  0.00    +0.000 OA
ATOM      4  N   UNL     1       1.187   6.182  20.739  0.00  0.00    +0.000 N 
ATOM      5  H   UNL     1      -0.721   7.350  21.506  0.00  0.00    +0.000 HD
ATOM      6  H   UNL     1       0.408   5.650  21.100  0.00  0.00    +0.000 HD
ENDROOT
BRANCH   1  10
ATOM      7  C   UNL     1      -1.080  12.062  22.250  0.00  0.00    +0.000 A 
ATOM      8  C   UNL     1      -0.757  11.672  20.939  0.00  0.00    +0.000 A 
ATOM      9  C   UNL     1      -0.390  10.356  20.627  0.00  0.00    +0.000 A 
ATOM     10  C   UNL     1      -0.340   9.377  21.612  0.00  0.00    +0.000 A 
ATOM     11  C   UNL     1      -0.666   9.740  22.924  0.00  0.00    +0.000 A 
ATOM     12  C   UNL     1      -1.029  11.062  23.235  0.00  0.00    +0.000 A 
BRANCH   7  18
ATOM     13  C   UNL     1      -1.048  15.759  25.391  0.00  0.00    +0.000 C 
ATOM     14  C   UNL     1      -1.409  15.239  24.033  0.00  0.00    +0.000 A 
ATOM     15  C   UNL     1      -1.959  16.070  23.079  0.00  0.00    +0.000 A 
ATOM     16  C   UNL     1      -2.233  15.493  21.862  0.00  0.00    +0.000 A 
ATOM     17  N   UNL     1      -1.980  14.205  21.578  0.00  0.00    +0.000 NA
ATOM     18  C   UNL     1      -1.432  13.464  22.563  0.00  0.00    +0.000 A 
ATOM     19  N   UNL     1      -1.143  13.935  23.793  0.00  0.00    +0.000 NA
ENDBRANCH   7  18
ENDBRANCH   1  10
BRANCH   4  20
ATOM     20  C   UNL     1       2.385   5.420  20.351  0.00  0.00    +0.000 C 
ATOM     21  C   UNL     1       2.299   3.984  20.878  0.00  0.00    +0.000 C 
ATOM     22  C   UNL     1       1.208   3.195  20.166  0.00  0.00    +0.000 C 
ATOM     23  C   UNL     1       1.275   3.349  18.657  0.00  0.00    +0.000 C 
ATOM     24  O   UNL     1       1.442   4.696  18.213  0.00  0.00    +0.000 OA
ATOM     25  C   UNL     1       2.540   5.421  18.805  0.00  0.00    +0.000 C 
BRANCH  25  26
ATOM     26  C   UNL     1       3.918   5.023  18.279  0.00  0.00    +0.000 A 
ATOM     27  C   UNL     1       5.093   5.230  19.011  0.00  0.00    +0.000 A 
ATOM     28  C   UNL     1       6.314   4.863  18.462  0.00  0.00    +0.000 A 
ATOM     29  N   UNL     1       6.447   4.262  17.264  0.00  0.00    +0.000 NA
ATOM     30  C   UNL     1       5.307   4.004  16.594  0.00  0.00    +0.000 A 
ATOM     31  C   UNL     1       4.045   4.357  17.051  0.00  0.00    +0.000 A 
ENDBRANCH  25  26
ENDBRANCH   4  20
TORSDOF 4
ENDMDL
MODEL 7
REMARK VINA RESULT:      -7.7      2.766     10.910
REMARK  Name = 
REMARK  5 active torsions:
REMARK  status: ('A' for Active; 'I' for Inactive)
REMARK    1  A    between atoms: C_1  and  C_2
REMARK    2  A    between atoms: C_6  and  C_7
REMARK    3  A    between atoms: C_10  and  N_11
REMARK    4  A    between atoms: N_14  and  C_15
REMARK    5  A    between atoms: C_20  and  C_21
REMARK                            x       y       z     vdW  Elec       q    Type
REMARK                         _______ _______ _______ _____ _____    ______ ____
ROOT
ATOM      1  N   UNL     1       0.932  10.485  19.922  0.00  0.00    +0.000 N 
ATOM      2  C   UNL     1      -0.004  10.643  20.923  0.00  0.00    +0.000 C 
ATOM      3  O   UNL     1      -0.493   9.762  21.618  0.00  0.00    +0.000 OA
ATOM      4  N   UNL     1      -0.381  11.962  21.061  0.00  0.00    +0.000 N 
ATOM      5  H   UNL     1       1.241  11.326  19.461  0.00  0.00    +0.000 HD
ATOM      6  H   UNL     1       0.170  12.684  20.619  0.00  0.00    +0.000 HD
ENDROOT
BRANCH   1  10
ATOM      7  C   UNL     1       2.634   6.884  18.388  0.00  0.00    +0.000 A 
ATOM      8  C   UNL     1       2.267   6.991  19.741  0.00  0.00    +0.000 A 
ATOM      9  C   UNL     1       1.713   8.166  20.267  0.00  0.00    +0.000 A 
ATOM     10  C   UNL     1       1.498   9.277  19.460  0.00  0.00    +0.000 A 
ATOM     11  C   UNL     1       1.848   9.191  18.108  0.00  0.00    +0.000 A 
ATOM     12  C   UNL     1       2.408   8.014  17.583  0.00  0.00    +0.000 A 
BRANCH   7  18
ATOM     13  C   UNL     1       6.065   4.761  15.694  0.00  0.00    +0.000 C 
ATOM     14  C   UNL     1       4.882   4.618  16.602  0.00  0.00    +0.000 A 
ATOM     15  C   UNL     1       4.447   3.373  17.008  0.00  0.00    +0.000 A 
ATOM     16  C   UNL     1       3.367   3.358  17.857  0.00  0.00    +0.000 A 
ATOM     17  N   UNL     1       2.754   4.470  18.297  0.00  0.00    +0.000 NA
ATOM     18  C   UNL     1       3.248   5.647  17.861  0.00  0.00    +0.000 A 
ATOM     19  N   UNL     1       4.293   5.762  17.015  0.00  0.00    +0.000 NA
ENDBRANCH   7  18
ENDBRANCH   1  10
BRANCH   4  20
ATOM     20  C   UNL     1      -1.319  12.395  22.110  0.00  0.00    +0.000 C 
ATOM     21  C   UNL     1      -0.835  13.698  22.754  0.00  0.00    +0.000 C 
ATOM     22  C   UNL     1      -0.925  14.866  21.782  0.00  0.00    +0.000 C 
ATOM     23  C   UNL     1      -2.269  14.929  21.077  0.00  0.00    +0.000 C 
ATOM     24  O   UNL     1      -2.722  13.674  20.567  0.00  0.00    +0.000 OA
ATOM     25  C   UNL     1      -2.740  12.582  21.510  0.00  0.00    +0.000 C 
BRANCH  25  26
ATOM     26  C   UNL     1      -3.882  12.640  22.523  0.00  0.00    +0.000 A 
ATOM     27  C   UNL     1      -3.693  12.387  23.887  0.00  0.00    +0.000 A 
ATOM     28  C   UNL     1      -4.780  12.436  24.748  0.00  0.00    +0.000 A 
ATOM     29  N   UNL     1      -6.028  12.766  24.362  0.00  0.00    +0.000 NA
ATOM     30  C   UNL     1      -6.190  13.074  23.061  0.00  0.00    +0.000 A 
ATOM     31  C   UNL     1      -5.169  13.028  22.122  0.00  0.00    +0.000 A 
ENDBRANCH  25  26
ENDBRANCH   4  20
TORSDOF 4
ENDMDL
MODEL 8
REMARK VINA RESULT:      -7.7      1.173      1.709
REMARK  Name = 
REMARK  5 active torsions:
REMARK  status: ('A' for Active; 'I' for Inactive)
REMARK    1  A    between atoms: C_1  and  C_2
REMARK    2  A    between atoms: C_6  and  C_7
REMARK    3  A    between atoms: C_10  and  N_11
REMARK    4  A    between atoms: N_14  and  C_15
REMARK    5  A    between atoms: C_20  and  C_21
REMARK                            x       y       z     vdW  Elec       q    Type
REMARK                         _______ _______ _______ _____ _____    ______ ____
ROOT
ATOM      1  N   UNL     1       1.515   7.027  20.918  0.00  0.00    +0.000 N 
ATOM      2  C   UNL     1       2.533   6.679  20.055  0.00  0.00    +0.000 C 
ATOM      3  O   UNL     1       3.092   7.408  19.245  0.00  0.00    +0.000 OA
ATOM      4  N   UNL     1       2.865   5.347  20.175  0.00  0.00    +0.000 N 
ATOM      5  H   UNL     1       1.182   6.303  21.533  0.00  0.00    +0.000 HD
ATOM      6  H   UNL     1       2.533   4.823  20.971  0.00  0.00    +0.000 HD
ENDROOT
BRANCH   1  10
ATOM      7  C   UNL     1      -0.467  10.778  21.385  0.00  0.00    +0.000 A 
ATOM      8  C   UNL     1       0.164  10.440  20.176  0.00  0.00    +0.000 A 
ATOM      9  C   UNL     1       0.827   9.218  20.002  0.00  0.00    +0.000 A 
ATOM     10  C   UNL     1       0.877   8.282  21.029  0.00  0.00    +0.000 A 
ATOM     11  C   UNL     1       0.248   8.593  22.241  0.00  0.00    +0.000 A 
ATOM     12  C   UNL     1      -0.411   9.822  22.413  0.00  0.00    +0.000 A 
BRANCH   7  18
ATOM     13  C   UNL     1      -1.310  14.688  24.131  0.00  0.00    +0.000 C 
ATOM     14  C   UNL     1      -1.529  13.963  22.839  0.00  0.00    +0.000 A 
ATOM     15  C   UNL     1      -2.244  14.544  21.812  0.00  0.00    +0.000 A 
ATOM     16  C   UNL     1      -2.366  13.799  20.664  0.00  0.00    +0.000 A 
ATOM     17  N   UNL     1      -1.824  12.580  20.510  0.00  0.00    +0.000 NA
ATOM     18  C   UNL     1      -1.132  12.088  21.558  0.00  0.00    +0.000 A 
ATOM     19  N   UNL     1      -0.971  12.736  22.730  0.00  0.00    +0.000 NA
ENDBRANCH   7  18
ENDBRANCH   1  10
BRANCH   4  20
ATOM     20  C   UNL     1       3.971   4.751  19.407  0.00  0.00    +0.000 C 
ATOM     21  C   UNL     1       4.043   3.241  19.657  0.00  0.00    +0.000 C 
ATOM     22  C   UNL     1       2.846   2.520  19.053  0.00  0.00    +0.000 C 
ATOM     23  C   UNL     1       2.577   2.947  17.620  0.00  0.00    +0.000 C 
ATOM     24  O   UNL     1       2.605   4.360  17.415  0.00  0.00    +0.000 OA
ATOM     25  C   UNL     1       3.785   5.041  17.892  0.00  0.00    +0.000 C 
BRANCH  25  26
ATOM     26  C   UNL     1       5.025   4.839  17.024  0.00  0.00    +0.000 A 
ATOM     27  C   UNL     1       6.322   4.828  17.552  0.00  0.00    +0.000 A 
ATOM     28  C   UNL     1       7.405   4.661  16.701  0.00  0.00    +0.000 A 
ATOM     29  N   UNL     1       7.292   4.456  15.374  0.00  0.00    +0.000 NA
ATOM     30  C   UNL     1       6.039   4.401  14.882  0.00  0.00    +0.000 A 
ATOM     31  C   UNL     1       4.898   4.581  15.651  0.00  0.00    +0.000 A 
ENDBRANCH  25  26
ENDBRANCH   4  20
TORSDOF 4
ENDMDL
MODEL 9
REMARK VINA RESULT:      -7.7      1.187      1.688
REMARK  Name = 
REMARK  5 active torsions:
REMARK  status: ('A' for Active; 'I' for Inactive)
REMARK    1  A    between atoms: C_1  and  C_2
REMARK    2  A    between atoms: C_6  and  C_7
REMARK    3  A    between atoms: C_10  and  N_11
REMARK    4  A    between atoms: N_14  and  C_15
REMARK    5  A    between atoms: C_20  and  C_21
REMARK                            x       y       z     vdW  Elec       q    Type
REMARK                         _______ _______ _______ _____ _____    ______ ____
ROOT
ATOM      1  N   UNL     1       1.402   7.183  20.999  0.00  0.00    +0.000 N 
ATOM      2  C   UNL     1       2.421   6.812  20.146  0.00  0.00    +0.000 C 
ATOM      3  O   UNL     1       2.988   7.522  19.326  0.00  0.00    +0.000 OA
ATOM      4  N   UNL     1       2.744   5.481  20.292  0.00  0.00    +0.000 N 
ATOM      5  H   UNL     1       1.063   6.472  21.626  0.00  0.00    +0.000 HD
ATOM      6  H   UNL     1       2.406   4.973  21.096  0.00  0.00    +0.000 HD
ENDROOT
BRANCH   1  10
ATOM      7  C   UNL     1      -0.535  10.965  21.401  0.00  0.00    +0.000 A 
ATOM      8  C   UNL     1      -0.088  10.512  20.148  0.00  0.00    +0.000 A 
ATOM      9  C   UNL     1       0.557   9.277  19.994  0.00  0.00    +0.000 A 
ATOM     10  C   UNL     1       0.773   8.444  21.085  0.00  0.00    +0.000 A 
ATOM     11  C   UNL     1       0.329   8.871  22.343  0.00  0.00    +0.000 A 
ATOM     12  C   UNL     1      -0.312  10.112  22.495  0.00  0.00    +0.000 A 
BRANCH   7  18
ATOM     13  C   UNL     1      -3.158  14.040  24.083  0.00  0.00    +0.000 C 
ATOM     14  C   UNL     1      -2.411  13.770  22.814  0.00  0.00    +0.000 A 
ATOM     15  C   UNL     1      -2.250  14.755  21.861  0.00  0.00    +0.000 A 
ATOM     16  C   UNL     1      -1.530  14.405  20.745  0.00  0.00    +0.000 A 
ATOM     17  N   UNL     1      -0.988  13.189  20.564  0.00  0.00    +0.000 NA
ATOM     18  C   UNL     1      -1.183  12.286  21.547  0.00  0.00    +0.000 A 
ATOM     19  N   UNL     1      -1.888  12.531  22.671  0.00  0.00    +0.000 NA
ENDBRANCH   7  18
ENDBRANCH   1  10
BRANCH   4  20
ATOM     20  C   UNL     1       3.849   4.864  19.538  0.00  0.00    +0.000 C 
ATOM     21  C   UNL     1       3.847   3.344  19.736  0.00  0.00    +0.000 C 
ATOM     22  C   UNL     1       2.641   2.698  19.068  0.00  0.00    +0.000 C 
ATOM     23  C   UNL     1       2.440   3.186  17.643  0.00  0.00    +0.000 C 
ATOM     24  O   UNL     1       2.534   4.602  17.491  0.00  0.00    +0.000 OA
ATOM     25  C   UNL     1       3.726   5.214  18.029  0.00  0.00    +0.000 C 
BRANCH  25  26
ATOM     26  C   UNL     1       4.985   4.988  17.195  0.00  0.00    +0.000 A 
ATOM     27  C   UNL     1       4.978   5.022  15.795  0.00  0.00    +0.000 A 
ATOM     28  C   UNL     1       6.156   4.786  15.100  0.00  0.00    +0.000 A 
ATOM     29  N   UNL     1       7.346   4.569  15.693  0.00  0.00    +0.000 NA
ATOM     30  C   UNL     1       7.359   4.604  17.040  0.00  0.00    +0.000 A 
ATOM     31  C   UNL     1       6.229   4.807  17.819  0.00  0.00    +0.000 A 
ENDBRANCH  25  26
ENDBRANCH   4  20
TORSDOF 4
ENDMDL
