MODEL 1
REMARK VINA RESULT:      -9.0      0.000      0.000
REMARK  Name = 
REMARK  6 active torsions:
REMARK  status: ('A' for Active; 'I' for Inactive)
REMARK    1  A    between atoms: C_1  and  C_2
REMARK    2  A    between atoms: C_4  and  C_5
REMARK    3  A    between atoms: N_6  and  C_7
REMARK    4  A    between atoms: C_11  and  N_12
REMARK    5  A    between atoms: C_13  and  C_15
REMARK    6  A    between atoms: C_17  and  C_18
REMARK                            x       y       z     vdW  Elec       q    Type
REMARK                         _______ _______ _______ _____ _____    ______ ____
ROOT
ATOM      1  N   UNL     1       2.465   6.304  20.477  0.00  0.00    +0.000 N 
ATOM      2  C   UNL     1       2.034   7.451  19.836  0.00  0.00    +0.000 C 
ATOM      3  O   UNL     1       2.037   7.618  18.620  0.00  0.00    +0.000 OA
ATOM      4  H   UNL     1       2.281   6.239  21.468  0.00  0.00    +0.000 HD
ENDROOT
BRANCH   1   9
ATOM      5  C   UNL     1       4.450   4.235  18.124  0.00  0.00    +0.000 A 
ATOM      6  C   UNL     1       4.151   2.938  18.563  0.00  0.00    +0.000 A 
ATOM      7  C   UNL     1       3.288   2.747  19.639  0.00  0.00    +0.000 A 
ATOM      8  C   UNL     1       2.717   3.846  20.284  0.00  0.00    +0.000 A 
ATOM      9  C   UNL     1       2.976   5.145  19.843  0.00  0.00    +0.000 A 
ATOM     10  C   UNL     1       3.806   5.327  18.730  0.00  0.00    +0.000 A 
BRANCH   5  16
ATOM     11  C   UNL     1       6.317   3.950  13.679  0.00  0.00    +0.000 C 
ATOM     12  C   UNL     1       6.259   4.264  15.126  0.00  0.00    +0.000 A 
ATOM     13  C   UNL     1       7.265   4.827  15.926  0.00  0.00    +0.000 A 
ATOM     14  C   UNL     1       6.740   4.885  17.201  0.00  0.00    +0.000 A 
ATOM     15  C   UNL     1       7.447   5.252  18.453  0.00  0.00    +0.000 C 
ATOM     16  N   UNL     1       5.436   4.404  17.106  0.00  0.00    +0.000 N 
ATOM     17  N   UNL     1       5.168   3.977  15.839  0.00  0.00    +0.000 NA
ENDBRANCH   5  16
ENDBRANCH   1   9
BRANCH   2  18
ATOM     18  C   UNL     1       1.521   8.491  20.690  0.00  0.00    +0.000 A 
ATOM     19  C   UNL     1       0.720   9.603  20.522  0.00  0.00    +0.000 A 
ATOM     20  C   UNL     1       0.557  10.171  21.822  0.00  0.00    +0.000 A 
ATOM     21  N   UNL     1       1.258   9.468  22.730  0.00  0.00    +0.000 NA
ATOM     22  N   UNL     1       1.816   8.478  22.027  0.00  0.00    +0.000 N 
ATOM     23  H   UNL     1       2.393   7.792  22.505  0.00  0.00    +0.000 HD
BRANCH  20  24
ATOM     24  C   UNL     1      -0.263  11.331  22.195  0.00  0.00    +0.000 A 
ATOM     25  C   UNL     1      -1.462  11.167  22.887  0.00  0.00    +0.000 A 
ATOM     26  C   UNL     1      -2.236  12.288  23.175  0.00  0.00    +0.000 A 
ATOM     27  C   UNL     1      -1.786  13.539  22.774  0.00  0.00    +0.000 A 
ATOM     28  C   UNL     1      -0.579  13.617  22.101  0.00  0.00    +0.000 A 
ATOM     29  N   UNL     1       0.195  12.550  21.802  0.00  0.00    +0.000 NA
ENDBRANCH  20  24
ENDBRANCH   2  18
TORSDOF 4
ENDMDL
MODEL 2
REMARK VINA RESULT:      -8.9      5.459      7.808
REMARK  Name = 
REMARK  6 active torsions:
REMARK  status: ('A' for Active; 'I' for Inactive)
REMARK    1  A    between atoms: C_1  and  C_2
REMARK    2  A    between atoms: C_4  and  C_5
REMARK    3  A    between atoms: N_6  and  C_7
REMARK    4  A    between atoms: C_11  and  N_12
REMARK    5  A    between atoms: C_13  and  C_15
REMARK    6  A    between atoms: C_17  and  C_18
REMARK                            x       y       z     vdW  Elec       q    Type
REMARK                         _______ _______ _______ _____ _____    ______ ____
ROOT
ATOM      1  N   UNL     1       7.090   7.644  17.120  0.00  0.00    +0.000 N 
ATOM      2  C   UNL     1       7.975   7.786  18.173  0.00  0.00    +0.000 C 
ATOM      3  O   UNL     1       8.324   6.881  18.923  0.00  0.00    +0.000 OA
ATOM      4  H   UNL     1       6.994   8.432  16.495  0.00  0.00    +0.000 HD
ENDROOT
BRANCH   1   9
ATOM      5  C   UNL     1       4.587   4.907  17.121  0.00  0.00    +0.000 A 
ATOM      6  C   UNL     1       5.004   4.139  16.025  0.00  0.00    +0.000 A 
ATOM      7  C   UNL     1       6.119   4.526  15.286  0.00  0.00    +0.000 A 
ATOM      8  C   UNL     1       6.825   5.680  15.632  0.00  0.00    +0.000 A 
ATOM      9  C   UNL     1       6.445   6.442  16.739  0.00  0.00    +0.000 A 
ATOM     10  C   UNL     1       5.353   6.019  17.507  0.00  0.00    +0.000 A 
BRANCH   5  16
ATOM     11  C   UNL     1       1.178   1.954  18.849  0.00  0.00    +0.000 C 
ATOM     12  C   UNL     1       1.855   3.235  18.536  0.00  0.00    +0.000 A 
ATOM     13  C   UNL     1       1.406   4.536  18.809  0.00  0.00    +0.000 A 
ATOM     14  C   UNL     1       2.368   5.380  18.292  0.00  0.00    +0.000 A 
ATOM     15  C   UNL     1       2.304   6.857  18.174  0.00  0.00    +0.000 C 
ATOM     16  N   UNL     1       3.369   4.558  17.778  0.00  0.00    +0.000 N 
ATOM     17  N   UNL     1       3.021   3.244  17.887  0.00  0.00    +0.000 NA
ENDBRANCH   5  16
ENDBRANCH   1   9
BRANCH   2  18
ATOM     18  C   UNL     1       8.534   9.103  18.349  0.00  0.00    +0.000 A 
ATOM     19  C   UNL     1       8.645  10.241  17.576  0.00  0.00    +0.000 A 
ATOM     20  C   UNL     1       9.270  11.221  18.406  0.00  0.00    +0.000 A 
ATOM     21  N   UNL     1       9.566  10.695  19.608  0.00  0.00    +0.000 NA
ATOM     22  N   UNL     1       9.114   9.439  19.542  0.00  0.00    +0.000 N 
ATOM     23  H   UNL     1       9.212   8.832  20.352  0.00  0.00    +0.000 HD
BRANCH  20  24
ATOM     24  C   UNL     1       9.553  12.624  18.075  0.00  0.00    +0.000 A 
ATOM     25  C   UNL     1      10.769  12.992  17.501  0.00  0.00    +0.000 A 
ATOM     26  C   UNL     1      11.019  14.339  17.252  0.00  0.00    +0.000 A 
ATOM     27  C   UNL     1      10.046  15.276  17.574  0.00  0.00    +0.000 A 
ATOM     28  C   UNL     1       8.861  14.827  18.131  0.00  0.00    +0.000 A 
ATOM     29  N   UNL     1       8.588  13.528  18.389  0.00  0.00    +0.000 NA
ENDBRANCH  20  24
ENDBRANCH   2  18
TORSDOF 4
ENDMDL
MODEL 3
REMARK VINA RESULT:      -8.8      5.569      7.841
REMARK  Name = 
REMARK  6 active torsions:
REMARK  status: ('A' for Active; 'I' for Inactive)
REMARK    1  A    between atoms: C_1  and  C_2
REMARK    2  A    between atoms: C_4  and  C_5
REMARK    3  A    between atoms: N_6  and  C_7
REMARK    4  A    between atoms: C_11  and  N_12
REMARK    5  A    between atoms: C_13  and  C_15
REMARK    6  A    between atoms: C_17  and  C_18
REMARK                            x       y       z     vdW  Elec       q    Type
REMARK                         _______ _______ _______ _____ _____    ______ ____
ROOT
ATOM      1  N   UNL     1       6.793   7.475  17.285  0.00  0.00    +0.000 N 
ATOM      2  C   UNL     1       7.816   7.576  18.211  0.00  0.00    +0.000 C 
ATOM      3  O   UNL     1       8.246   6.645  18.884  0.00  0.00    +0.000 OA
ATOM      4  H   UNL     1       6.628   8.280  16.699  0.00  0.00    +0.000 HD
ENDROOT
BRANCH   1   9
ATOM      5  C   UNL     1       4.399   4.668  17.659  0.00  0.00    +0.000 A 
ATOM      6  C   UNL     1       4.522   4.021  16.422  0.00  0.00    +0.000 A 
ATOM      7  C   UNL     1       5.403   4.513  15.462  0.00  0.00    +0.000 A 
ATOM      8  C   UNL     1       6.165   5.652  15.728  0.00  0.00    +0.000 A 
ATOM      9  C   UNL     1       6.081   6.294  16.965  0.00  0.00    +0.000 A 
ATOM     10  C   UNL     1       5.230   5.764  17.944  0.00  0.00    +0.000 A 
BRANCH   5  16
ATOM     11  C   UNL     1       2.661   2.544  21.634  0.00  0.00    +0.000 C 
ATOM     12  C   UNL     1       2.635   3.263  20.338  0.00  0.00    +0.000 A 
ATOM     13  C   UNL     1       1.512   3.689  19.613  0.00  0.00    +0.000 A 
ATOM     14  C   UNL     1       2.008   4.273  18.465  0.00  0.00    +0.000 A 
ATOM     15  C   UNL     1       1.240   4.745  17.287  0.00  0.00    +0.000 C 
ATOM     16  N   UNL     1       3.396   4.218  18.571  0.00  0.00    +0.000 N 
ATOM     17  N   UNL     1       3.771   3.551  19.699  0.00  0.00    +0.000 NA
ENDBRANCH   5  16
ENDBRANCH   1   9
BRANCH   2  18
ATOM     18  C   UNL     1       8.417   8.878  18.342  0.00  0.00    +0.000 A 
ATOM     19  C   UNL     1       8.451  10.032  17.585  0.00  0.00    +0.000 A 
ATOM     20  C   UNL     1       9.195  10.983  18.349  0.00  0.00    +0.000 A 
ATOM     21  N   UNL     1       9.631  10.424  19.492  0.00  0.00    +0.000 NA
ATOM     22  N   UNL     1       9.150   9.177  19.458  0.00  0.00    +0.000 N 
ATOM     23  H   UNL     1       9.338   8.551  20.236  0.00  0.00    +0.000 HD
BRANCH  20  24
ATOM     24  C   UNL     1       9.460  12.388  18.015  0.00  0.00    +0.000 A 
ATOM     25  C   UNL     1      10.633  12.758  17.359  0.00  0.00    +0.000 A 
ATOM     26  C   UNL     1      10.872  14.106  17.108  0.00  0.00    +0.000 A 
ATOM     27  C   UNL     1       9.929  15.044  17.508  0.00  0.00    +0.000 A 
ATOM     28  C   UNL     1       8.785  14.593  18.144  0.00  0.00    +0.000 A 
ATOM     29  N   UNL     1       8.524  13.293  18.407  0.00  0.00    +0.000 NA
ENDBRANCH  20  24
ENDBRANCH   2  18
TORSDOF 4
ENDMDL
MODEL 4
REMARK VINA RESULT:      -8.6      5.638      8.343
REMARK  Name = 
REMARK  6 active torsions:
REMARK  status: ('A' for Active; 'I' for Inactive)
REMARK    1  A    between atoms: C_1  and  C_2
REMARK    2  A    between atoms: C_4  and  C_5
REMARK    3  A    between atoms: N_6  and  C_7
REMARK    4  A    between atoms: C_11  and  N_12
REMARK    5  A    between atoms: C_13  and  C_15
REMARK    6  A    between atoms: C_17  and  C_18
REMARK                            x       y       z     vdW  Elec       q    Type
REMARK                         _______ _______ _______ _____ _____    ______ ____
ROOT
ATOM      1  N   UNL     1       7.942   7.263  18.334  0.00  0.00    +0.000 N 
ATOM      2  C   UNL     1       7.766   8.538  17.828  0.00  0.00    +0.000 C 
ATOM      3  O   UNL     1       6.884   8.864  17.040  0.00  0.00    +0.000 OA
ATOM      4  H   UNL     1       8.616   7.158  19.079  0.00  0.00    +0.000 HD
ENDROOT
BRANCH   1   9
ATOM      5  C   UNL     1       5.128   4.857  18.539  0.00  0.00    +0.000 A 
ATOM      6  C   UNL     1       5.409   3.998  17.467  0.00  0.00    +0.000 A 
ATOM      7  C   UNL     1       6.534   4.214  16.676  0.00  0.00    +0.000 A 
ATOM      8  C   UNL     1       7.386   5.286  16.947  0.00  0.00    +0.000 A 
ATOM      9  C   UNL     1       7.143   6.135  18.029  0.00  0.00    +0.000 A 
ATOM     10  C   UNL     1       6.037   5.882  18.850  0.00  0.00    +0.000 A 
BRANCH   5  16
ATOM     11  C   UNL     1       1.985   2.679  21.490  0.00  0.00    +0.000 C 
ATOM     12  C   UNL     1       2.509   3.705  20.558  0.00  0.00    +0.000 A 
ATOM     13  C   UNL     1       1.852   4.850  20.081  0.00  0.00    +0.000 A 
ATOM     14  C   UNL     1       2.741   5.458  19.217  0.00  0.00    +0.000 A 
ATOM     15  C   UNL     1       2.485   6.616  18.326  0.00  0.00    +0.000 C 
ATOM     16  N   UNL     1       3.901   4.688  19.250  0.00  0.00    +0.000 N 
ATOM     17  N   UNL     1       3.731   3.586  20.035  0.00  0.00    +0.000 NA
ENDBRANCH   5  16
ENDBRANCH   1   9
BRANCH   2  18
ATOM     18  C   UNL     1       8.684   9.537  18.311  0.00  0.00    +0.000 A 
ATOM     19  C   UNL     1       9.341  10.623  17.767  0.00  0.00    +0.000 A 
ATOM     20  C   UNL     1      10.064  11.225  18.841  0.00  0.00    +0.000 A 
ATOM     21  N   UNL     1       9.894  10.518  19.973  0.00  0.00    +0.000 NA
ATOM     22  N   UNL     1       9.069   9.526  19.625  0.00  0.00    +0.000 N 
ATOM     23  H   UNL     1       8.776   8.853  20.328  0.00  0.00    +0.000 HD
BRANCH  20  24
ATOM     24  C   UNL     1      10.871  12.452  18.800  0.00  0.00    +0.000 A 
ATOM     25  C   UNL     1      11.215  13.122  19.973  0.00  0.00    +0.000 A 
ATOM     26  C   UNL     1      11.935  14.310  19.887  0.00  0.00    +0.000 A 
ATOM     27  C   UNL     1      12.301  14.788  18.635  0.00  0.00    +0.000 A 
ATOM     28  C   UNL     1      11.930  14.056  17.520  0.00  0.00    +0.000 A 
ATOM     29  N   UNL     1      11.227  12.902  17.568  0.00  0.00    +0.000 NA
ENDBRANCH  20  24
ENDBRANCH   2  18
TORSDOF 4
ENDMDL
MODEL 5
REMARK VINA RESULT:      -8.5      2.622      9.898
REMARK  Name = 
REMARK  6 active torsions:
REMARK  status: ('A' for Active; 'I' for Inactive)
REMARK    1  A    between atoms: C_1  and  C_2
REMARK    2  A    between atoms: C_4  and  C_5
REMARK    3  A    between atoms: N_6  and  C_7
REMARK    4  A    between atoms: C_11  and  N_12
REMARK    5  A    between atoms: C_13  and  C_15
REMARK    6  A    between atoms: C_17  and  C_18
REMARK                            x       y       z     vdW  Elec       q    Type
REMARK                         _______ _______ _______ _____ _____    ______ ____
ROOT
ATOM      1  N   UNL     1       3.018   7.031  18.225  0.00  0.00    +0.000 N 
ATOM      2  C   UNL     1       3.927   6.048  18.572  0.00  0.00    +0.000 C 
ATOM      3  O   UNL     1       4.153   5.676  19.719  0.00  0.00    +0.000 OA
ATOM      4  H   UNL     1       2.824   7.145  17.240  0.00  0.00    +0.000 HD
ENDROOT
BRANCH   1   9
ATOM      5  C   UNL     1       0.795   9.722  19.479  0.00  0.00    +0.000 A 
ATOM      6  C   UNL     1       0.493   9.264  20.769  0.00  0.00    +0.000 A 
ATOM      7  C   UNL     1       1.029   8.063  21.227  0.00  0.00    +0.000 A 
ATOM      8  C   UNL     1       1.869   7.311  20.403  0.00  0.00    +0.000 A 
ATOM      9  C   UNL     1       2.207   7.763  19.126  0.00  0.00    +0.000 A 
ATOM     10  C   UNL     1       1.704   8.997  18.692  0.00  0.00    +0.000 A 
BRANCH   5  16
ATOM     11  C   UNL     1       0.063  14.450  18.816  0.00  0.00    +0.000 C 
ATOM     12  C   UNL     1      -0.190  12.993  18.712  0.00  0.00    +0.000 A 
ATOM     13  C   UNL     1      -1.262  12.349  18.074  0.00  0.00    +0.000 A 
ATOM     14  C   UNL     1      -1.066  10.999  18.286  0.00  0.00    +0.000 A 
ATOM     15  C   UNL     1      -1.994   9.890  17.957  0.00  0.00    +0.000 C 
ATOM     16  N   UNL     1       0.129  10.887  18.992  0.00  0.00    +0.000 N 
ATOM     17  N   UNL     1       0.632  12.118  19.293  0.00  0.00    +0.000 NA
ENDBRANCH   5  16
ENDBRANCH   1   9
BRANCH   2  18
ATOM     18  C   UNL     1       4.614   5.415  17.476  0.00  0.00    +0.000 A 
ATOM     19  C   UNL     1       4.897   5.741  16.165  0.00  0.00    +0.000 A 
ATOM     20  C   UNL     1       5.681   4.664  15.651  0.00  0.00    +0.000 A 
ATOM     21  N   UNL     1       5.832   3.708  16.585  0.00  0.00    +0.000 NA
ATOM     22  N   UNL     1       5.189   4.186  17.656  0.00  0.00    +0.000 N 
ATOM     23  H   UNL     1       5.175   3.638  18.512  0.00  0.00    +0.000 HD
BRANCH  20  24
ATOM     24  C   UNL     1       6.292   4.558  14.319  0.00  0.00    +0.000 A 
ATOM     25  C   UNL     1       5.789   3.671  13.369  0.00  0.00    +0.000 A 
ATOM     26  C   UNL     1       6.429   3.562  12.138  0.00  0.00    +0.000 A 
ATOM     27  C   UNL     1       7.545   4.349  11.887  0.00  0.00    +0.000 A 
ATOM     28  C   UNL     1       7.975   5.213  12.880  0.00  0.00    +0.000 A 
ATOM     29  N   UNL     1       7.380   5.340  14.087  0.00  0.00    +0.000 NA
ENDBRANCH  20  24
ENDBRANCH   2  18
TORSDOF 4
ENDMDL
MODEL 6
REMARK VINA RESULT:      -8.5      5.303      7.719
REMARK  Name = 
REMARK  6 active torsions:
REMARK  status: ('A' for Active; 'I' for Inactive)
REMARK    1  A    between atoms: C_1  and  C_2
REMARK    2  A    between atoms: C_4  and  C_5
REMARK    3  A    between atoms: N_6  and  C_7
REMARK    4  A    between atoms: C_11  and  N_12
REMARK    5  A    between atoms: C_13  and  C_15
REMARK    6  A    between atoms: C_17  and  C_18
REMARK                            x       y       z     vdW  Elec       q    Type
REMARK                         _______ _______ _______ _____ _____    ______ ____
ROOT
ATOM      1  N   UNL     1       6.854   7.528  17.088  0.00  0.00    +0.000 N 
ATOM      2  C   UNL     1       7.810   7.645  18.081  0.00  0.00    +0.000 C 
ATOM      3  O   UNL     1       8.210   6.720  18.781  0.00  0.00    +0.000 OA
ATOM      4  H   UNL     1       6.715   8.332  16.493  0.00  0.00    +0.000 HD
ENDROOT
BRANCH   1   9
ATOM      5  C   UNL     1       4.528   4.649  17.317  0.00  0.00    +0.000 A 
ATOM      6  C   UNL     1       4.714   4.033  16.071  0.00  0.00    +0.000 A 
ATOM      7  C   UNL     1       5.613   4.569  15.155  0.00  0.00    +0.000 A 
ATOM      8  C   UNL     1       6.334   5.723  15.471  0.00  0.00    +0.000 A 
ATOM      9  C   UNL     1       6.188   6.335  16.718  0.00  0.00    +0.000 A 
ATOM     10  C   UNL     1       5.318   5.761  17.654  0.00  0.00    +0.000 A 
BRANCH   5  16
ATOM     11  C   UNL     1       0.980   4.908  20.584  0.00  0.00    +0.000 C 
ATOM     12  C   UNL     1       1.936   4.279  19.642  0.00  0.00    +0.000 A 
ATOM     13  C   UNL     1       2.103   2.913  19.370  0.00  0.00    +0.000 A 
ATOM     14  C   UNL     1       3.135   2.838  18.455  0.00  0.00    +0.000 A 
ATOM     15  C   UNL     1       3.813   1.616  17.957  0.00  0.00    +0.000 C 
ATOM     16  N   UNL     1       3.507   4.152  18.182  0.00  0.00    +0.000 N 
ATOM     17  N   UNL     1       2.801   5.027  18.953  0.00  0.00    +0.000 NA
ENDBRANCH   5  16
ENDBRANCH   1   9
BRANCH   2  18
ATOM     18  C   UNL     1       8.376   8.958  18.255  0.00  0.00    +0.000 A 
ATOM     19  C   UNL     1       8.344  10.149  17.559  0.00  0.00    +0.000 A 
ATOM     20  C   UNL     1       9.090  11.083  18.340  0.00  0.00    +0.000 A 
ATOM     21  N   UNL     1       9.590  10.482  19.435  0.00  0.00    +0.000 NA
ATOM     22  N   UNL     1       9.146   9.223  19.356  0.00  0.00    +0.000 N 
ATOM     23  H   UNL     1       9.385   8.565  20.092  0.00  0.00    +0.000 HD
BRANCH  20  24
ATOM     24  C   UNL     1       9.299  12.511  18.069  0.00  0.00    +0.000 A 
ATOM     25  C   UNL     1      10.545  12.988  17.665  0.00  0.00    +0.000 A 
ATOM     26  C   UNL     1      10.716  14.356  17.469  0.00  0.00    +0.000 A 
ATOM     27  C   UNL     1       9.636  15.205  17.672  0.00  0.00    +0.000 A 
ATOM     28  C   UNL     1       8.429  14.651  18.062  0.00  0.00    +0.000 A 
ATOM     29  N   UNL     1       8.230  13.329  18.264  0.00  0.00    +0.000 NA
ENDBRANCH  20  24
ENDBRANCH   2  18
TORSDOF 4
ENDMDL
MODEL 7
REMARK VINA RESULT:      -8.4      1.479      2.412
REMARK  Name = 
REMARK  6 active torsions:
REMARK  status: ('A' for Active; 'I' for Inactive)
REMARK    1  A    between atoms: C_1  and  C_2
REMARK    2  A    between atoms: C_4  and  C_5
REMARK    3  A    between atoms: N_6  and  C_7
REMARK    4  A    between atoms: C_11  and  N_12
REMARK    5  A    between atoms: C_13  and  C_15
REMARK    6  A    between atoms: C_17  and  C_18
REMARK                            x       y       z     vdW  Elec       q    Type
REMARK                         _______ _______ _______ _____ _____    ______ ____
ROOT
ATOM      1  N   UNL     1       1.316   6.890  21.137  0.00  0.00    +0.000 N 
ATOM      2  C   UNL     1       1.246   8.159  20.590  0.00  0.00    +0.000 C 
ATOM      3  O   UNL     1       1.631   8.460  19.464  0.00  0.00    +0.000 OA
ATOM      4  H   UNL     1       0.840   6.746  22.015  0.00  0.00    +0.000 HD
ENDROOT
BRANCH   1   9
ATOM      5  C   UNL     1       3.719   4.739  19.307  0.00  0.00    +0.000 A 
ATOM      6  C   UNL     1       3.042   3.511  19.284  0.00  0.00    +0.000 A 
ATOM      7  C   UNL     1       1.786   3.396  19.872  0.00  0.00    +0.000 A 
ATOM      8  C   UNL     1       1.195   4.502  20.487  0.00  0.00    +0.000 A 
ATOM      9  C   UNL     1       1.838   5.741  20.495  0.00  0.00    +0.000 A 
ATOM     10  C   UNL     1       3.080   5.862  19.857  0.00  0.00    +0.000 A 
BRANCH   5  16
ATOM     11  C   UNL     1       8.459   5.657  19.449  0.00  0.00    +0.000 C 
ATOM     12  C   UNL     1       7.163   5.213  18.884  0.00  0.00    +0.000 A 
ATOM     13  C   UNL     1       6.909   4.721  17.595  0.00  0.00    +0.000 A 
ATOM     14  C   UNL     1       5.550   4.484  17.546  0.00  0.00    +0.000 A 
ATOM     15  C   UNL     1       4.741   4.106  16.361  0.00  0.00    +0.000 C 
ATOM     16  N   UNL     1       5.057   4.793  18.812  0.00  0.00    +0.000 N 
ATOM     17  N   UNL     1       6.046   5.289  19.610  0.00  0.00    +0.000 NA
ENDBRANCH   5  16
ENDBRANCH   1   9
BRANCH   2  18
ATOM     18  C   UNL     1       0.641   9.168  21.421  0.00  0.00    +0.000 A 
ATOM     19  C   UNL     1      -0.089  10.319  21.206  0.00  0.00    +0.000 A 
ATOM     20  C   UNL     1      -0.431  10.816  22.501  0.00  0.00    +0.000 A 
ATOM     21  N   UNL     1       0.100  10.034  23.457  0.00  0.00    +0.000 NA
ATOM     22  N   UNL     1       0.728   9.064  22.784  0.00  0.00    +0.000 N 
ATOM     23  H   UNL     1       1.203   8.329  23.299  0.00  0.00    +0.000 HD
BRANCH  20  24
ATOM     24  C   UNL     1      -1.262  11.985  22.819  0.00  0.00    +0.000 A 
ATOM     25  C   UNL     1      -0.774  13.279  22.642  0.00  0.00    +0.000 A 
ATOM     26  C   UNL     1      -1.573  14.359  23.006  0.00  0.00    +0.000 A 
ATOM     27  C   UNL     1      -2.838  14.117  23.526  0.00  0.00    +0.000 A 
ATOM     28  C   UNL     1      -3.252  12.803  23.660  0.00  0.00    +0.000 A 
ATOM     29  N   UNL     1      -2.500  11.731  23.320  0.00  0.00    +0.000 NA
ENDBRANCH  20  24
ENDBRANCH   2  18
TORSDOF 4
ENDMDL
MODEL 8
REMARK VINA RESULT:      -8.4      2.701      9.814
REMARK  Name = 
REMARK  6 active torsions:
REMARK  status: ('A' for Active; 'I' for Inactive)
REMARK    1  A    between atoms: C_1  and  C_2
REMARK    2  A    between atoms: C_4  and  C_5
REMARK    3  A    between atoms: N_6  and  C_7
REMARK    4  A    between atoms: C_11  and  N_12
REMARK    5  A    between atoms: C_13  and  C_15
REMARK    6  A    between atoms: C_17  and  C_18
REMARK                            x       y       z     vdW  Elec       q    Type
REMARK                         _______ _______ _______ _____ _____    ______ ____
ROOT
ATOM      1  N   UNL     1       3.030   7.008  18.208  0.00  0.00    +0.000 N 
ATOM      2  C   UNL     1       3.917   6.004  18.550  0.00  0.00    +0.000 C 
ATOM      3  O   UNL     1       4.119   5.606  19.693  0.00  0.00    +0.000 OA
ATOM      4  H   UNL     1       2.855   7.145  17.223  0.00  0.00    +0.000 HD
ENDROOT
BRANCH   1   9
ATOM      5  C   UNL     1       0.627   9.562  19.415  0.00  0.00    +0.000 A 
ATOM      6  C   UNL     1       0.481   9.202  20.762  0.00  0.00    +0.000 A 
ATOM      7  C   UNL     1       1.182   8.113  21.273  0.00  0.00    +0.000 A 
ATOM      8  C   UNL     1       2.033   7.376  20.447  0.00  0.00    +0.000 A 
ATOM      9  C   UNL     1       2.217   7.736  19.110  0.00  0.00    +0.000 A 
ATOM     10  C   UNL     1       1.546   8.862  18.616  0.00  0.00    +0.000 A 
BRANCH   5  16
ATOM     11  C   UNL     1      -3.253  11.464  17.256  0.00  0.00    +0.000 C 
ATOM     12  C   UNL     1      -1.928  11.433  17.920  0.00  0.00    +0.000 A 
ATOM     13  C   UNL     1      -1.076  12.513  18.192  0.00  0.00    +0.000 A 
ATOM     14  C   UNL     1       0.044  11.966  18.785  0.00  0.00    +0.000 A 
ATOM     15  C   UNL     1       1.313  12.655  19.125  0.00  0.00    +0.000 C 
ATOM     16  N   UNL     1      -0.201  10.599  18.889  0.00  0.00    +0.000 N 
ATOM     17  N   UNL     1      -1.392  10.274  18.309  0.00  0.00    +0.000 NA
ENDBRANCH   5  16
ENDBRANCH   1   9
BRANCH   2  18
ATOM     18  C   UNL     1       4.613   5.381  17.454  0.00  0.00    +0.000 A 
ATOM     19  C   UNL     1       4.900   5.717  16.146  0.00  0.00    +0.000 A 
ATOM     20  C   UNL     1       5.691   4.646  15.628  0.00  0.00    +0.000 A 
ATOM     21  N   UNL     1       5.842   3.685  16.557  0.00  0.00    +0.000 NA
ATOM     22  N   UNL     1       5.193   4.153  17.629  0.00  0.00    +0.000 N 
ATOM     23  H   UNL     1       5.177   3.600  18.481  0.00  0.00    +0.000 HD
BRANCH  20  24
ATOM     24  C   UNL     1       6.308   4.552  14.299  0.00  0.00    +0.000 A 
ATOM     25  C   UNL     1       5.830   3.650  13.350  0.00  0.00    +0.000 A 
ATOM     26  C   UNL     1       6.476   3.554  12.121  0.00  0.00    +0.000 A 
ATOM     27  C   UNL     1       7.574   4.367  11.871  0.00  0.00    +0.000 A 
ATOM     28  C   UNL     1       7.980   5.244  12.863  0.00  0.00    +0.000 A 
ATOM     29  N   UNL     1       7.377   5.360  14.067  0.00  0.00    +0.000 NA
ENDBRANCH  20  24
ENDBRANCH   2  18
TORSDOF 4
ENDMDL
MODEL 9
REMARK VINA RESULT:      -8.3      3.665     10.021
REMARK  Name = 
REMARK  6 active torsions:
REMARK  status: ('A' for Active; 'I' for Inactive)
REMARK    1  A    between atoms: C_1  and  C_2
REMARK    2  A    between atoms: C_4  and  C_5
REMARK    3  A    between atoms: N_6  and  C_7
REMARK    4  A    between atoms: C_11  and  N_12
REMARK    5  A    between atoms: C_13  and  C_15
REMARK    6  A    between atoms: C_17  and  C_18
REMARK                            x       y       z     vdW  Elec       q    Type
REMARK                         _______ _______ _______ _____ _____    ______ ____
ROOT
ATOM      1  N   UNL     1       0.771   9.235  19.000  0.00  0.00    +0.000 N 
ATOM      2  C   UNL     1       1.845   9.118  18.135  0.00  0.00    +0.000 C 
ATOM      3  O   UNL     1       2.285  10.026  17.437  0.00  0.00    +0.000 OA
ATOM      4  H   UNL     1       0.598   8.456  19.618  0.00  0.00    +0.000 HD
ENDROOT
BRANCH   1   9
ATOM      5  C   UNL     1      -2.072  11.606  18.788  0.00  0.00    +0.000 A 
ATOM      6  C   UNL     1      -1.653  12.631  19.648  0.00  0.00    +0.000 A 
ATOM      7  C   UNL     1      -0.426  12.539  20.297  0.00  0.00    +0.000 A 
ATOM      8  C   UNL     1       0.393  11.426  20.095  0.00  0.00    +0.000 A 
ATOM      9  C   UNL     1       0.010  10.409  19.218  0.00  0.00    +0.000 A 
ATOM     10  C   UNL     1      -1.204  10.533  18.530  0.00  0.00    +0.000 A 
BRANCH   5  16
ATOM     11  C   UNL     1      -6.870  12.165  18.842  0.00  0.00    +0.000 C 
ATOM     12  C   UNL     1      -5.523  11.910  18.277  0.00  0.00    +0.000 A 
ATOM     13  C   UNL     1      -5.190  11.610  16.948  0.00  0.00    +0.000 A 
ATOM     14  C   UNL     1      -3.822  11.424  16.938  0.00  0.00    +0.000 A 
ATOM     15  C   UNL     1      -2.986  10.934  15.815  0.00  0.00    +0.000 C 
ATOM     16  N   UNL     1      -3.389  11.668  18.239  0.00  0.00    +0.000 N 
ATOM     17  N   UNL     1      -4.446  11.914  19.064  0.00  0.00    +0.000 NA
ENDBRANCH   5  16
ENDBRANCH   1   9
BRANCH   2  18
ATOM     18  C   UNL     1       2.488   7.830  18.105  0.00  0.00    +0.000 A 
ATOM     19  C   UNL     1       2.189   6.564  18.567  0.00  0.00    +0.000 A 
ATOM     20  C   UNL     1       3.259   5.723  18.133  0.00  0.00    +0.000 A 
ATOM     21  N   UNL     1       4.186   6.446  17.480  0.00  0.00    +0.000 NA
ATOM     22  N   UNL     1       3.698   7.691  17.478  0.00  0.00    +0.000 N 
ATOM     23  H   UNL     1       4.223   8.430  17.021  0.00  0.00    +0.000 HD
BRANCH  20  24
ATOM     24  C   UNL     1       3.384   4.271  18.311  0.00  0.00    +0.000 A 
ATOM     25  C   UNL     1       2.678   3.387  17.496  0.00  0.00    +0.000 A 
ATOM     26  C   UNL     1       2.783   2.019  17.732  0.00  0.00    +0.000 A 
ATOM     27  C   UNL     1       3.595   1.573  18.766  0.00  0.00    +0.000 A 
ATOM     28  C   UNL     1       4.271   2.515  19.523  0.00  0.00    +0.000 A 
ATOM     29  N   UNL     1       4.188   3.850  19.323  0.00  0.00    +0.000 NA
ENDBRANCH  20  24
ENDBRANCH   2  18
TORSDOF 4
ENDMDL
