MODEL 1
REMARK VINA RESULT:      -7.7      0.000      0.000
REMARK  Name = 
REMARK  6 active torsions:
REMARK  status: ('A' for Active; 'I' for Inactive)
REMARK    1  A    between atoms: C_1  and  C_2
REMARK    2  A    between atoms: C_2  and  C_3
REMARK    3  A    between atoms: N_11  and  C_12
REMARK    4  A    between atoms: C_12  and  C_13
REMARK    5  A    between atoms: C_16  and  C_17
REMARK    6  A    between atoms: C_19  and  C_20
REMARK                            x       y       z     vdW  Elec       q    Type
REMARK                         _______ _______ _______ _____ _____    ______ ____
ROOT
ATOM      1  C   UNL     1       1.833   8.694  18.564  0.00  0.00    +0.000 A 
ATOM      2  N   UNL     1       2.027   8.264  19.818  0.00  0.00    +0.000 NA
ATOM      3  O   UNL     1       2.194   6.889  19.664  0.00  0.00    +0.000 OA
ATOM      4  C   UNL     1       2.106   6.623  18.324  0.00  0.00    +0.000 A 
ATOM      5  N   UNL     1       1.897   7.708  17.606  0.00  0.00    +0.000 NA
ENDROOT
BRANCH   4   6
ATOM      6  C   UNL     1       2.294   5.215  17.773  0.00  0.00    +0.000 C 
ATOM      7  C   UNL     1       2.751   4.136  18.730  0.00  0.00    +0.000 C 
ATOM      8  C   UNL     1       3.662   4.564  17.621  0.00  0.00    +0.000 C 
BRANCH   8   9
ATOM      9  C   UNL     1       4.946   5.321  17.869  0.00  0.00    +0.000 A 
ATOM     10  C   UNL     1       5.823   5.028  18.923  0.00  0.00    +0.000 A 
ATOM     11  F   UNL     1       5.524   4.046  19.787  0.00  0.00    +0.000 F 
ATOM     12  C   UNL     1       7.028   5.710  19.106  0.00  0.00    +0.000 A 
ATOM     13  C   UNL     1       7.402   6.712  18.216  0.00  0.00    +0.000 A 
ATOM     14  C   UNL     1       6.564   7.022  17.150  0.00  0.00    +0.000 A 
ATOM     15  C   UNL     1       5.361   6.332  16.989  0.00  0.00    +0.000 A 
ATOM     16  F   UNL     1       4.588   6.638  15.934  0.00  0.00    +0.000 F 
ENDBRANCH   8   9
ENDBRANCH   4   6
BRANCH   1  17
ATOM     17  C   UNL     1       1.709  10.134  18.234  0.00  0.00    +0.000 C 
BRANCH  17  26
ATOM     18  C   UNL     1       0.391  11.651  19.784  0.00  0.00    +0.000 A 
ATOM     19  N   UNL     1      -0.846  12.097  19.887  0.00  0.00    +0.000 NA
ATOM     20  C   UNL     1      -1.577  11.409  18.961  0.00  0.00    +0.000 A 
ATOM     21  C   UNL     1      -2.946  11.495  18.675  0.00  0.00    +0.000 A 
ATOM     22  C   UNL     1      -3.477  10.680  17.670  0.00  0.00    +0.000 A 
ATOM     23  C   UNL     1      -2.655   9.799  16.965  0.00  0.00    +0.000 A 
ATOM     24  C   UNL     1      -1.284   9.701  17.237  0.00  0.00    +0.000 A 
ATOM     25  C   UNL     1      -0.775  10.526  18.247  0.00  0.00    +0.000 A 
ATOM     26  N   UNL     1       0.490  10.716  18.771  0.00  0.00    +0.000 N 
BRANCH  18  28
ATOM     27  C   UNL     1       1.359  13.585  20.996  0.00  0.00    +0.000 C 
ATOM     28  C   UNL     1       1.508  12.106  20.666  0.00  0.00    +0.000 C 
ENDBRANCH  18  28
ENDBRANCH  17  26
ENDBRANCH   1  17
TORSDOF 5
ENDMDL
MODEL 2
REMARK VINA RESULT:      -7.5      0.867      1.007
REMARK  Name = 
REMARK  6 active torsions:
REMARK  status: ('A' for Active; 'I' for Inactive)
REMARK    1  A    between atoms: C_1  and  C_2
REMARK    2  A    between atoms: C_2  and  C_3
REMARK    3  A    between atoms: N_11  and  C_12
REMARK    4  A    between atoms: C_12  and  C_13
REMARK    5  A    between atoms: C_16  and  C_17
REMARK    6  A    between atoms: C_19  and  C_20
REMARK                            x       y       z     vdW  Elec       q    Type
REMARK                         _______ _______ _______ _____ _____    ______ ____
ROOT
ATOM      1  C   UNL     1       1.845   8.244  18.858  0.00  0.00    +0.000 A 
ATOM      2  N   UNL     1       2.033   7.670  20.054  0.00  0.00    +0.000 NA
ATOM      3  O   UNL     1       2.273   6.335  19.736  0.00  0.00    +0.000 OA
ATOM      4  C   UNL     1       2.228   6.234  18.372  0.00  0.00    +0.000 A 
ATOM      5  N   UNL     1       1.980   7.389  17.787  0.00  0.00    +0.000 NA
ENDROOT
BRANCH   4   6
ATOM      6  C   UNL     1       2.498   4.917  17.656  0.00  0.00    +0.000 C 
ATOM      7  C   UNL     1       3.053   3.770  18.472  0.00  0.00    +0.000 C 
ATOM      8  C   UNL     1       3.904   4.387  17.407  0.00  0.00    +0.000 C 
BRANCH   8   9
ATOM      9  C   UNL     1       5.139   5.201  17.720  0.00  0.00    +0.000 A 
ATOM     10  C   UNL     1       5.947   4.974  18.843  0.00  0.00    +0.000 A 
ATOM     11  F   UNL     1       5.622   4.007  19.716  0.00  0.00    +0.000 F 
ATOM     12  C   UNL     1       7.110   5.706  19.089  0.00  0.00    +0.000 A 
ATOM     13  C   UNL     1       7.511   6.694  18.196  0.00  0.00    +0.000 A 
ATOM     14  C   UNL     1       6.741   6.940  17.062  0.00  0.00    +0.000 A 
ATOM     15  C   UNL     1       5.579   6.199  16.839  0.00  0.00    +0.000 A 
ATOM     16  F   UNL     1       4.874   6.443  15.722  0.00  0.00    +0.000 F 
ENDBRANCH   8   9
ENDBRANCH   4   6
BRANCH   1  17
ATOM     17  C   UNL     1       1.656   9.706  18.705  0.00  0.00    +0.000 C 
BRANCH  17  26
ATOM     18  C   UNL     1      -0.013  10.671  20.356  0.00  0.00    +0.000 A 
ATOM     19  N   UNL     1      -1.252  11.121  20.334  0.00  0.00    +0.000 NA
ATOM     20  C   UNL     1      -1.740  10.832  19.091  0.00  0.00    +0.000 A 
ATOM     21  C   UNL     1      -3.013  11.085  18.561  0.00  0.00    +0.000 A 
ATOM     22  C   UNL     1      -3.284  10.693  17.246  0.00  0.00    +0.000 A 
ATOM     23  C   UNL     1      -2.304  10.063  16.478  0.00  0.00    +0.000 A 
ATOM     24  C   UNL     1      -1.027   9.804  16.992  0.00  0.00    +0.000 A 
ATOM     25  C   UNL     1      -0.777  10.205  18.310  0.00  0.00    +0.000 A 
ATOM     26  N   UNL     1       0.333  10.135  19.129  0.00  0.00    +0.000 N 
BRANCH  18  28
ATOM     27  C   UNL     1       0.316   9.853  22.673  0.00  0.00    +0.000 C 
ATOM     28  C   UNL     1       0.867  10.735  21.562  0.00  0.00    +0.000 C 
ENDBRANCH  18  28
ENDBRANCH  17  26
ENDBRANCH   1  17
TORSDOF 5
ENDMDL
MODEL 3
REMARK VINA RESULT:      -7.5      2.941      7.708
REMARK  Name = 
REMARK  6 active torsions:
REMARK  status: ('A' for Active; 'I' for Inactive)
REMARK    1  A    between atoms: C_1  and  C_2
REMARK    2  A    between atoms: C_2  and  C_3
REMARK    3  A    between atoms: N_11  and  C_12
REMARK    4  A    between atoms: C_12  and  C_13
REMARK    5  A    between atoms: C_16  and  C_17
REMARK    6  A    between atoms: C_19  and  C_20
REMARK                            x       y       z     vdW  Elec       q    Type
REMARK                         _______ _______ _______ _____ _____    ______ ____
ROOT
ATOM      1  C   UNL     1       2.896   7.449  18.124  0.00  0.00    +0.000 A 
ATOM      2  N   UNL     1       2.335   8.522  17.550  0.00  0.00    +0.000 NA
ATOM      3  O   UNL     1       1.615   9.104  18.591  0.00  0.00    +0.000 OA
ATOM      4  C   UNL     1       1.829   8.336  19.703  0.00  0.00    +0.000 A 
ATOM      5  N   UNL     1       2.623   7.311  19.466  0.00  0.00    +0.000 NA
ENDROOT
BRANCH   4   6
ATOM      6  C   UNL     1       1.234   8.702  21.057  0.00  0.00    +0.000 C 
ATOM      7  C   UNL     1      -0.261   8.551  21.238  0.00  0.00    +0.000 C 
ATOM      8  C   UNL     1       0.343   9.920  21.265  0.00  0.00    +0.000 C 
BRANCH   8   9
ATOM      9  C   UNL     1       0.104  10.938  20.173  0.00  0.00    +0.000 A 
ATOM     10  C   UNL     1      -0.928  10.829  19.230  0.00  0.00    +0.000 A 
ATOM     11  F   UNL     1      -1.748   9.766  19.257  0.00  0.00    +0.000 F 
ATOM     12  C   UNL     1      -1.161  11.804  18.259  0.00  0.00    +0.000 A 
ATOM     13  C   UNL     1      -0.363  12.942  18.211  0.00  0.00    +0.000 A 
ATOM     14  C   UNL     1       0.663  13.093  19.139  0.00  0.00    +0.000 A 
ATOM     15  C   UNL     1       0.882  12.102  20.099  0.00  0.00    +0.000 A 
ATOM     16  F   UNL     1       1.863  12.291  20.995  0.00  0.00    +0.000 F 
ENDBRANCH   8   9
ENDBRANCH   4   6
BRANCH   1  17
ATOM     17  C   UNL     1       3.848   6.575  17.399  0.00  0.00    +0.000 C 
BRANCH  17  26
ATOM     18  C   UNL     1       5.222   4.925  18.753  0.00  0.00    +0.000 A 
ATOM     19  N   UNL     1       5.015   3.809  19.425  0.00  0.00    +0.000 NA
ATOM     20  C   UNL     1       3.727   3.439  19.161  0.00  0.00    +0.000 A 
ATOM     21  C   UNL     1       3.019   2.318  19.616  0.00  0.00    +0.000 A 
ATOM     22  C   UNL     1       1.692   2.148  19.207  0.00  0.00    +0.000 A 
ATOM     23  C   UNL     1       1.086   3.079  18.361  0.00  0.00    +0.000 A 
ATOM     24  C   UNL     1       1.779   4.205  17.898  0.00  0.00    +0.000 A 
ATOM     25  C   UNL     1       3.106   4.355  18.320  0.00  0.00    +0.000 A 
ATOM     26  N   UNL     1       4.072   5.316  18.092  0.00  0.00    +0.000 N 
BRANCH  18  28
ATOM     27  C   UNL     1       7.480   4.970  17.732  0.00  0.00    +0.000 C 
ATOM     28  C   UNL     1       6.535   5.637  18.721  0.00  0.00    +0.000 C 
ENDBRANCH  18  28
ENDBRANCH  17  26
ENDBRANCH   1  17
TORSDOF 5
ENDMDL
MODEL 4
REMARK VINA RESULT:      -7.5      0.152      1.562
REMARK  Name = 
REMARK  6 active torsions:
REMARK  status: ('A' for Active; 'I' for Inactive)
REMARK    1  A    between atoms: C_1  and  C_2
REMARK    2  A    between atoms: C_2  and  C_3
REMARK    3  A    between atoms: N_11  and  C_12
REMARK    4  A    between atoms: C_12  and  C_13
REMARK    5  A    between atoms: C_16  and  C_17
REMARK    6  A    between atoms: C_19  and  C_20
REMARK                            x       y       z     vdW  Elec       q    Type
REMARK                         _______ _______ _______ _____ _____    ______ ____
ROOT
ATOM      1  C   UNL     1       1.914   8.666  18.526  0.00  0.00    +0.000 A 
ATOM      2  N   UNL     1       2.070   8.245  19.788  0.00  0.00    +0.000 NA
ATOM      3  O   UNL     1       2.207   6.865  19.652  0.00  0.00    +0.000 OA
ATOM      4  C   UNL     1       2.141   6.587  18.313  0.00  0.00    +0.000 A 
ATOM      5  N   UNL     1       1.974   7.669  17.579  0.00  0.00    +0.000 NA
ENDROOT
BRANCH   4   6
ATOM      6  C   UNL     1       2.306   5.169  17.780  0.00  0.00    +0.000 C 
ATOM      7  C   UNL     1       2.803   4.107  18.737  0.00  0.00    +0.000 C 
ATOM      8  C   UNL     1       3.667   4.514  17.585  0.00  0.00    +0.000 C 
BRANCH   8   9
ATOM      9  C   UNL     1       4.960   5.275  17.765  0.00  0.00    +0.000 A 
ATOM     10  C   UNL     1       5.351   6.339  16.938  0.00  0.00    +0.000 A 
ATOM     11  F   UNL     1       4.569   6.708  15.910  0.00  0.00    +0.000 F 
ATOM     12  C   UNL     1       6.527   7.060  17.150  0.00  0.00    +0.000 A 
ATOM     13  C   UNL     1       7.353   6.741  18.223  0.00  0.00    +0.000 A 
ATOM     14  C   UNL     1       6.993   5.701  19.074  0.00  0.00    +0.000 A 
ATOM     15  C   UNL     1       5.815   4.989  18.840  0.00  0.00    +0.000 A 
ATOM     16  F   UNL     1       5.483   4.009  19.696  0.00  0.00    +0.000 F 
ENDBRANCH   8   9
ENDBRANCH   4   6
BRANCH   1  17
ATOM     17  C   UNL     1       1.833  10.105  18.179  0.00  0.00    +0.000 C 
BRANCH  17  26
ATOM     18  C   UNL     1       0.619  11.722  19.713  0.00  0.00    +0.000 A 
ATOM     19  N   UNL     1      -0.602  12.199  19.852  0.00  0.00    +0.000 NA
ATOM     20  C   UNL     1      -1.390  11.486  18.993  0.00  0.00    +0.000 A 
ATOM     21  C   UNL     1      -2.769  11.589  18.767  0.00  0.00    +0.000 A 
ATOM     22  C   UNL     1      -3.362  10.741  17.826  0.00  0.00    +0.000 A 
ATOM     23  C   UNL     1      -2.592   9.809  17.127  0.00  0.00    +0.000 A 
ATOM     24  C   UNL     1      -1.212   9.694  17.340  0.00  0.00    +0.000 A 
ATOM     25  C   UNL     1      -0.640  10.553  18.286  0.00  0.00    +0.000 A 
ATOM     26  N   UNL     1       0.651  10.738  18.742  0.00  0.00    +0.000 N 
BRANCH  18  28
ATOM     27  C   UNL     1       1.612  13.655  20.906  0.00  0.00    +0.000 C 
ATOM     28  C   UNL     1       1.785  12.192  20.521  0.00  0.00    +0.000 C 
ENDBRANCH  18  28
ENDBRANCH  17  26
ENDBRANCH   1  17
TORSDOF 5
ENDMDL
MODEL 5
REMARK VINA RESULT:      -7.5      0.923      1.887
REMARK  Name = 
REMARK  6 active torsions:
REMARK  status: ('A' for Active; 'I' for Inactive)
REMARK    1  A    between atoms: C_1  and  C_2
REMARK    2  A    between atoms: C_2  and  C_3
REMARK    3  A    between atoms: N_11  and  C_12
REMARK    4  A    between atoms: C_12  and  C_13
REMARK    5  A    between atoms: C_16  and  C_17
REMARK    6  A    between atoms: C_19  and  C_20
REMARK                            x       y       z     vdW  Elec       q    Type
REMARK                         _______ _______ _______ _____ _____    ______ ____
ROOT
ATOM      1  C   UNL     1       1.899   8.128  18.858  0.00  0.00    +0.000 A 
ATOM      2  N   UNL     1       2.062   7.545  20.052  0.00  0.00    +0.000 NA
ATOM      3  O   UNL     1       2.287   6.208  19.730  0.00  0.00    +0.000 OA
ATOM      4  C   UNL     1       2.259   6.116  18.364  0.00  0.00    +0.000 A 
ATOM      5  N   UNL     1       2.036   7.278  17.783  0.00  0.00    +0.000 NA
ENDROOT
BRANCH   4   6
ATOM      6  C   UNL     1       2.520   4.800  17.643  0.00  0.00    +0.000 C 
ATOM      7  C   UNL     1       3.122   3.664  18.442  0.00  0.00    +0.000 C 
ATOM      8  C   UNL     1       3.923   4.288  17.343  0.00  0.00    +0.000 C 
BRANCH   8   9
ATOM      9  C   UNL     1       5.157   5.120  17.606  0.00  0.00    +0.000 A 
ATOM     10  C   UNL     1       5.542   6.203  16.802  0.00  0.00    +0.000 A 
ATOM     11  F   UNL     1       4.811   6.528  15.724  0.00  0.00    +0.000 F 
ATOM     12  C   UNL     1       6.660   6.988  17.089  0.00  0.00    +0.000 A 
ATOM     13  C   UNL     1       7.430   6.716  18.215  0.00  0.00    +0.000 A 
ATOM     14  C   UNL     1       7.072   5.658  19.045  0.00  0.00    +0.000 A 
ATOM     15  C   UNL     1       5.953   4.881  18.736  0.00  0.00    +0.000 A 
ATOM     16  F   UNL     1       5.620   3.885  19.571  0.00  0.00    +0.000 F 
ENDBRANCH   8   9
ENDBRANCH   4   6
BRANCH   1  17
ATOM     17  C   UNL     1       1.733   9.594  18.712  0.00  0.00    +0.000 C 
BRANCH  17  26
ATOM     18  C   UNL     1       0.109  10.563  20.405  0.00  0.00    +0.000 A 
ATOM     19  N   UNL     1      -1.119  11.042  20.409  0.00  0.00    +0.000 NA
ATOM     20  C   UNL     1      -1.630  10.792  19.167  0.00  0.00    +0.000 A 
ATOM     21  C   UNL     1      -2.902  11.087  18.660  0.00  0.00    +0.000 A 
ATOM     22  C   UNL     1      -3.200  10.731  17.340  0.00  0.00    +0.000 A 
ATOM     23  C   UNL     1      -2.245  10.094  16.545  0.00  0.00    +0.000 A 
ATOM     24  C   UNL     1      -0.968   9.794  17.037  0.00  0.00    +0.000 A 
ATOM     25  C   UNL     1      -0.692  10.159  18.360  0.00  0.00    +0.000 A 
ATOM     26  N   UNL     1       0.427  10.045  19.163  0.00  0.00    +0.000 N 
BRANCH  18  28
ATOM     27  C   UNL     1       0.506   9.603  22.656  0.00  0.00    +0.000 C 
ATOM     28  C   UNL     1       1.006  10.580  21.600  0.00  0.00    +0.000 C 
ENDBRANCH  18  28
ENDBRANCH  17  26
ENDBRANCH   1  17
TORSDOF 5
ENDMDL
MODEL 6
REMARK VINA RESULT:      -7.5      4.540      7.095
REMARK  Name = 
REMARK  6 active torsions:
REMARK  status: ('A' for Active; 'I' for Inactive)
REMARK    1  A    between atoms: C_1  and  C_2
REMARK    2  A    between atoms: C_2  and  C_3
REMARK    3  A    between atoms: N_11  and  C_12
REMARK    4  A    between atoms: C_12  and  C_13
REMARK    5  A    between atoms: C_16  and  C_17
REMARK    6  A    between atoms: C_19  and  C_20
REMARK                            x       y       z     vdW  Elec       q    Type
REMARK                         _______ _______ _______ _____ _____    ______ ____
ROOT
ATOM      1  C   UNL     1      -3.478  11.379  18.022  0.00  0.00    +0.000 A 
ATOM      2  N   UNL     1      -3.549  10.042  18.002  0.00  0.00    +0.000 NA
ATOM      3  O   UNL     1      -2.212   9.650  17.977  0.00  0.00    +0.000 OA
ATOM      4  C   UNL     1      -1.460  10.793  18.005  0.00  0.00    +0.000 A 
ATOM      5  N   UNL     1      -2.198  11.884  18.047  0.00  0.00    +0.000 NA
ENDROOT
BRANCH   4   6
ATOM      6  C   UNL     1       0.063  10.750  18.041  0.00  0.00    +0.000 C 
ATOM      7  C   UNL     1       0.727   9.415  18.297  0.00  0.00    +0.000 C 
ATOM      8  C   UNL     1       0.852  10.501  19.320  0.00  0.00    +0.000 C 
BRANCH   8   9
ATOM      9  C   UNL     1       0.186  10.425  20.674  0.00  0.00    +0.000 A 
ATOM     10  C   UNL     1       0.112   9.247  21.432  0.00  0.00    +0.000 A 
ATOM     11  F   UNL     1       0.630   8.107  20.947  0.00  0.00    +0.000 F 
ATOM     12  C   UNL     1      -0.465   9.209  22.702  0.00  0.00    +0.000 A 
ATOM     13  C   UNL     1      -0.983  10.371  23.265  0.00  0.00    +0.000 A 
ATOM     14  C   UNL     1      -0.917  11.563  22.549  0.00  0.00    +0.000 A 
ATOM     15  C   UNL     1      -0.339  11.577  21.278  0.00  0.00    +0.000 A 
ATOM     16  F   UNL     1      -0.267  12.748  20.625  0.00  0.00    +0.000 F 
ENDBRANCH   8   9
ENDBRANCH   4   6
BRANCH   1  17
ATOM     17  C   UNL     1      -4.685  12.231  18.157  0.00  0.00    +0.000 C 
BRANCH  17  26
ATOM     18  C   UNL     1      -6.220  11.571  20.067  0.00  0.00    +0.000 A 
ATOM     19  N   UNL     1      -6.262  11.722  21.376  0.00  0.00    +0.000 NA
ATOM     20  C   UNL     1      -5.252  12.585  21.693  0.00  0.00    +0.000 A 
ATOM     21  C   UNL     1      -4.879  13.086  22.947  0.00  0.00    +0.000 A 
ATOM     22  C   UNL     1      -3.797  13.968  23.025  0.00  0.00    +0.000 A 
ATOM     23  C   UNL     1      -3.103  14.342  21.873  0.00  0.00    +0.000 A 
ATOM     24  C   UNL     1      -3.463  13.851  20.611  0.00  0.00    +0.000 A 
ATOM     25  C   UNL     1      -4.549  12.968  20.557  0.00  0.00    +0.000 A 
ATOM     26  N   UNL     1      -5.167  12.286  19.527  0.00  0.00    +0.000 N 
BRANCH  18  28
ATOM     27  C   UNL     1      -6.941   9.261  19.530  0.00  0.00    +0.000 C 
ATOM     28  C   UNL     1      -7.200  10.743  19.300  0.00  0.00    +0.000 C 
ENDBRANCH  18  28
ENDBRANCH  17  26
ENDBRANCH   1  17
TORSDOF 5
ENDMDL
MODEL 7
REMARK VINA RESULT:      -7.4      2.606      4.086
REMARK  Name = 
REMARK  6 active torsions:
REMARK  status: ('A' for Active; 'I' for Inactive)
REMARK    1  A    between atoms: C_1  and  C_2
REMARK    2  A    between atoms: C_2  and  C_3
REMARK    3  A    between atoms: N_11  and  C_12
REMARK    4  A    between atoms: C_12  and  C_13
REMARK    5  A    between atoms: C_16  and  C_17
REMARK    6  A    between atoms: C_19  and  C_20
REMARK                            x       y       z     vdW  Elec       q    Type
REMARK                         _______ _______ _______ _____ _____    ______ ____
ROOT
ATOM      1  C   UNL     1       2.449   7.924  18.088  0.00  0.00    +0.000 A 
ATOM      2  N   UNL     1       3.205   7.939  16.982  0.00  0.00    +0.000 NA
ATOM      3  O   UNL     1       4.274   7.108  17.313  0.00  0.00    +0.000 OA
ATOM      4  C   UNL     1       4.049   6.653  18.584  0.00  0.00    +0.000 A 
ATOM      5  N   UNL     1       2.928   7.120  19.097  0.00  0.00    +0.000 NA
ENDROOT
BRANCH   4   6
ATOM      6  C   UNL     1       4.994   5.670  19.263  0.00  0.00    +0.000 C 
ATOM      7  C   UNL     1       5.515   4.509  18.444  0.00  0.00    +0.000 C 
ATOM      8  C   UNL     1       4.596   4.238  19.595  0.00  0.00    +0.000 C 
BRANCH   8   9
ATOM      9  C   UNL     1       3.185   3.730  19.409  0.00  0.00    +0.000 A 
ATOM     10  C   UNL     1       2.802   2.885  18.357  0.00  0.00    +0.000 A 
ATOM     11  F   UNL     1       3.707   2.507  17.440  0.00  0.00    +0.000 F 
ATOM     12  C   UNL     1       1.503   2.389  18.230  0.00  0.00    +0.000 A 
ATOM     13  C   UNL     1       0.537   2.721  19.175  0.00  0.00    +0.000 A 
ATOM     14  C   UNL     1       0.882   3.547  20.240  0.00  0.00    +0.000 A 
ATOM     15  C   UNL     1       2.186   4.036  20.345  0.00  0.00    +0.000 A 
ATOM     16  F   UNL     1       2.493   4.809  21.399  0.00  0.00    +0.000 F 
ENDBRANCH   8   9
ENDBRANCH   4   6
BRANCH   1  17
ATOM     17  C   UNL     1       1.133   8.604  18.152  0.00  0.00    +0.000 C 
BRANCH  17  26
ATOM     18  C   UNL     1       1.491  10.956  19.036  0.00  0.00    +0.000 A 
ATOM     19  N   UNL     1       1.152  11.657  20.100  0.00  0.00    +0.000 NA
ATOM     20  C   UNL     1       0.573  10.774  20.968  0.00  0.00    +0.000 A 
ATOM     21  C   UNL     1       0.055  11.007  22.249  0.00  0.00    +0.000 A 
ATOM     22  C   UNL     1      -0.495   9.934  22.958  0.00  0.00    +0.000 A 
ATOM     23  C   UNL     1      -0.527   8.656  22.396  0.00  0.00    +0.000 A 
ATOM     24  C   UNL     1      -0.014   8.407  21.117  0.00  0.00    +0.000 A 
ATOM     25  C   UNL     1       0.532   9.496  20.426  0.00  0.00    +0.000 A 
ATOM     26  N   UNL     1       1.100   9.637  19.175  0.00  0.00    +0.000 N 
BRANCH  18  28
ATOM     27  C   UNL     1       2.631  12.971  18.149  0.00  0.00    +0.000 C 
ATOM     28  C   UNL     1       2.212  11.536  17.862  0.00  0.00    +0.000 C 
ENDBRANCH  18  28
ENDBRANCH  17  26
ENDBRANCH   1  17
TORSDOF 5
ENDMDL
MODEL 8
REMARK VINA RESULT:      -7.3      1.807      4.224
REMARK  Name = 
REMARK  6 active torsions:
REMARK  status: ('A' for Active; 'I' for Inactive)
REMARK    1  A    between atoms: C_1  and  C_2
REMARK    2  A    between atoms: C_2  and  C_3
REMARK    3  A    between atoms: N_11  and  C_12
REMARK    4  A    between atoms: C_12  and  C_13
REMARK    5  A    between atoms: C_16  and  C_17
REMARK    6  A    between atoms: C_19  and  C_20
REMARK                            x       y       z     vdW  Elec       q    Type
REMARK                         _______ _______ _______ _____ _____    ______ ____
ROOT
ATOM      1  C   UNL     1       1.437   8.879  18.734  0.00  0.00    +0.000 A 
ATOM      2  N   UNL     1       1.392   8.923  17.396  0.00  0.00    +0.000 NA
ATOM      3  O   UNL     1       2.484   8.147  17.012  0.00  0.00    +0.000 OA
ATOM      4  C   UNL     1       3.073   7.690  18.161  0.00  0.00    +0.000 A 
ATOM      5  N   UNL     1       2.453   8.105  19.247  0.00  0.00    +0.000 NA
ENDROOT
BRANCH   4   6
ATOM      6  C   UNL     1       4.278   6.758  18.128  0.00  0.00    +0.000 C 
ATOM      7  C   UNL     1       4.392   5.791  16.970  0.00  0.00    +0.000 C 
ATOM      8  C   UNL     1       4.165   5.255  18.349  0.00  0.00    +0.000 C 
BRANCH   8   9
ATOM      9  C   UNL     1       2.870   4.598  18.764  0.00  0.00    +0.000 A 
ATOM     10  C   UNL     1       2.142   3.734  17.933  0.00  0.00    +0.000 A 
ATOM     11  F   UNL     1       2.580   3.476  16.690  0.00  0.00    +0.000 F 
ATOM     12  C   UNL     1       0.972   3.100  18.353  0.00  0.00    +0.000 A 
ATOM     13  C   UNL     1       0.495   3.304  19.644  0.00  0.00    +0.000 A 
ATOM     14  C   UNL     1       1.197   4.144  20.503  0.00  0.00    +0.000 A 
ATOM     15  C   UNL     1       2.363   4.773  20.060  0.00  0.00    +0.000 A 
ATOM     16  F   UNL     1       3.030   5.556  20.923  0.00  0.00    +0.000 F 
ENDBRANCH   8   9
ENDBRANCH   4   6
BRANCH   1  17
ATOM     17  C   UNL     1       0.385   9.495  19.578  0.00  0.00    +0.000 C 
BRANCH  17  26
ATOM     18  C   UNL     1      -1.299  10.932  18.338  0.00  0.00    +0.000 A 
ATOM     19  N   UNL     1      -1.517  12.216  18.133  0.00  0.00    +0.000 NA
ATOM     20  C   UNL     1      -0.432  12.873  18.641  0.00  0.00    +0.000 A 
ATOM     21  C   UNL     1      -0.161  14.248  18.663  0.00  0.00    +0.000 A 
ATOM     22  C   UNL     1       1.030  14.690  19.247  0.00  0.00    +0.000 A 
ATOM     23  C   UNL     1       1.932  13.777  19.797  0.00  0.00    +0.000 A 
ATOM     24  C   UNL     1       1.676  12.400  19.784  0.00  0.00    +0.000 A 
ATOM     25  C   UNL     1       0.477  11.979  19.195  0.00  0.00    +0.000 A 
ATOM     26  N   UNL     1      -0.109  10.741  19.016  0.00  0.00    +0.000 N 
BRANCH  18  28
ATOM     27  C   UNL     1      -2.457   9.958  16.375  0.00  0.00    +0.000 C 
ATOM     28  C   UNL     1      -2.225   9.854  17.875  0.00  0.00    +0.000 C 
ENDBRANCH  18  28
ENDBRANCH  17  26
ENDBRANCH   1  17
TORSDOF 5
ENDMDL
MODEL 9
REMARK VINA RESULT:      -7.3      2.932      7.674
REMARK  Name = 
REMARK  6 active torsions:
REMARK  status: ('A' for Active; 'I' for Inactive)
REMARK    1  A    between atoms: C_1  and  C_2
REMARK    2  A    between atoms: C_2  and  C_3
REMARK    3  A    between atoms: N_11  and  C_12
REMARK    4  A    between atoms: C_12  and  C_13
REMARK    5  A    between atoms: C_16  and  C_17
REMARK    6  A    between atoms: C_19  and  C_20
REMARK                            x       y       z     vdW  Elec       q    Type
REMARK                         _______ _______ _______ _____ _____    ______ ____
ROOT
ATOM      1  C   UNL     1       2.853   7.418  18.246  0.00  0.00    +0.000 A 
ATOM      2  N   UNL     1       2.192   8.426  17.663  0.00  0.00    +0.000 NA
ATOM      3  O   UNL     1       1.469   8.987  18.713  0.00  0.00    +0.000 OA
ATOM      4  C   UNL     1       1.781   8.274  19.839  0.00  0.00    +0.000 A 
ATOM      5  N   UNL     1       2.641   7.304  19.601  0.00  0.00    +0.000 NA
ENDROOT
BRANCH   4   6
ATOM      6  C   UNL     1       1.210   8.640  21.203  0.00  0.00    +0.000 C 
ATOM      7  C   UNL     1      -0.287   8.532  21.396  0.00  0.00    +0.000 C 
ATOM      8  C   UNL     1       0.359   9.881  21.436  0.00  0.00    +0.000 C 
BRANCH   8   9
ATOM      9  C   UNL     1       0.142  10.921  20.361  0.00  0.00    +0.000 A 
ATOM     10  C   UNL     1       0.964  12.045  20.198  0.00  0.00    +0.000 A 
ATOM     11  F   UNL     1       1.991  12.249  21.039  0.00  0.00    +0.000 F 
ATOM     12  C   UNL     1       0.775  12.969  19.169  0.00  0.00    +0.000 A 
ATOM     13  C   UNL     1      -0.253  12.784  18.250  0.00  0.00    +0.000 A 
ATOM     14  C   UNL     1      -1.082  11.673  18.370  0.00  0.00    +0.000 A 
ATOM     15  C   UNL     1      -0.878  10.764  19.410  0.00  0.00    +0.000 A 
ATOM     16  F   UNL     1      -1.679   9.689  19.482  0.00  0.00    +0.000 F 
ENDBRANCH   8   9
ENDBRANCH   4   6
BRANCH   1  17
ATOM     17  C   UNL     1       3.842   6.593  17.511  0.00  0.00    +0.000 C 
BRANCH  17  26
ATOM     18  C   UNL     1       5.231   4.903  18.799  0.00  0.00    +0.000 A 
ATOM     19  N   UNL     1       5.033   3.764  19.432  0.00  0.00    +0.000 NA
ATOM     20  C   UNL     1       3.745   3.397  19.163  0.00  0.00    +0.000 A 
ATOM     21  C   UNL     1       3.045   2.258  19.583  0.00  0.00    +0.000 A 
ATOM     22  C   UNL     1       1.717   2.096  19.176  0.00  0.00    +0.000 A 
ATOM     23  C   UNL     1       1.102   3.053  18.367  0.00  0.00    +0.000 A 
ATOM     24  C   UNL     1       1.787   4.198  17.939  0.00  0.00    +0.000 A 
ATOM     25  C   UNL     1       3.116   4.339  18.359  0.00  0.00    +0.000 A 
ATOM     26  N   UNL     1       4.076   5.312  18.158  0.00  0.00    +0.000 N 
BRANCH  18  28
ATOM     27  C   UNL     1       7.532   4.908  17.877  0.00  0.00    +0.000 C 
ATOM     28  C   UNL     1       6.541   5.623  18.785  0.00  0.00    +0.000 C 
ENDBRANCH  18  28
ENDBRANCH  17  26
ENDBRANCH   1  17
TORSDOF 5
ENDMDL
