MODEL 1
REMARK VINA RESULT:      -8.6      0.000      0.000
REMARK  Name = 
REMARK  7 active torsions:
REMARK  status: ('A' for Active; 'I' for Inactive)
REMARK    1  A    between atoms: C_1  and  C_2
REMARK    2  A    between atoms: C_5  and  S_6
REMARK    3  A    between atoms: S_6  and  C_9
REMARK    4  A    between atoms: C_9  and  C_10
REMARK    5  A    between atoms: C_10  and  C_11
REMARK    6  A    between atoms: N_13  and  C_14
REMARK    7  A    between atoms: C_19  and  C_20
REMARK                            x       y       z     vdW  Elec       q    Type
REMARK                         _______ _______ _______ _____ _____    ______ ____
ROOT
ATOM      1  C   UNL     1       2.606   6.955  18.606  0.00  0.00    +0.000 C 
ATOM      2  O   UNL     1       2.471   6.786  19.815  0.00  0.00    +0.000 OA
ATOM      3  N   UNL     1       2.677   5.965  17.644  0.00  0.00    +0.000 N 
ATOM      4  H   UNL     1       2.384   6.207  16.705  0.00  0.00    +0.000 HD
ENDROOT
BRANCH   3   5
ATOM      5  C   UNL     1       2.590   4.598  17.991  0.00  0.00    +0.000 A 
ATOM      6  C   UNL     1       1.310   4.046  18.163  0.00  0.00    +0.000 A 
ATOM      7  C   UNL     1       1.155   2.727  18.577  0.00  0.00    +0.000 A 
ATOM      8  C   UNL     1       2.277   1.931  18.756  0.00  0.00    +0.000 A 
ATOM      9  C   UNL     1       3.553   2.472  18.570  0.00  0.00    +0.000 A 
ATOM     10  C   UNL     1       3.751   3.830  18.236  0.00  0.00    +0.000 A 
BRANCH  10  11
ATOM     11  C   UNL     1       5.134   4.377  18.175  0.00  0.00    +0.000 A 
ATOM     12  C   UNL     1       5.918   4.356  17.006  0.00  0.00    +0.000 A 
ATOM     13  C   UNL     1       7.152   5.012  16.940  0.00  0.00    +0.000 A 
ATOM     14  C   UNL     1       7.665   5.646  18.067  0.00  0.00    +0.000 A 
ATOM     15  C   UNL     1       6.951   5.612  19.260  0.00  0.00    +0.000 A 
ATOM     16  C   UNL     1       5.700   4.992  19.308  0.00  0.00    +0.000 A 
ENDBRANCH  10  11
ENDBRANCH   3   5
BRANCH   1  17
ATOM     17  C   UNL     1       2.687   8.353  18.038  0.00  0.00    +0.000 C 
BRANCH  17  18
ATOM     18  C   UNL     1       1.285   8.854  17.742  0.00  0.00    +0.000 C 
BRANCH  18  19
ATOM     19  S   UNL     1       0.812  10.144  18.886  0.00  0.00    +0.000 S 
ATOM     20  O   UNL     1       1.647  11.301  18.601  0.00  0.00    +0.000 OA
ATOM     21  O   UNL     1       0.734   9.610  20.229  0.00  0.00    +0.000 OA
BRANCH  19  26
ATOM     22  C   UNL     1      -4.928  11.326  17.384  0.00  0.00    +0.000 C 
ATOM     23  C   UNL     1      -3.491  11.053  17.719  0.00  0.00    +0.000 A 
ATOM     24  C   UNL     1      -2.758  10.093  17.011  0.00  0.00    +0.000 A 
ATOM     25  C   UNL     1      -1.431   9.832  17.353  0.00  0.00    +0.000 A 
ATOM     26  C   UNL     1      -0.838  10.543  18.399  0.00  0.00    +0.000 A 
ATOM     27  C   UNL     1      -1.558  11.498  19.117  0.00  0.00    +0.000 A 
ATOM     28  C   UNL     1      -2.883  11.755  18.769  0.00  0.00    +0.000 A 
ENDBRANCH  19  26
ENDBRANCH  18  19
ENDBRANCH  17  18
ENDBRANCH   1  17
TORSDOF 6
ENDMDL
MODEL 2
REMARK VINA RESULT:      -8.6      0.545      1.124
REMARK  Name = 
REMARK  7 active torsions:
REMARK  status: ('A' for Active; 'I' for Inactive)
REMARK    1  A    between atoms: C_1  and  C_2
REMARK    2  A    between atoms: C_5  and  S_6
REMARK    3  A    between atoms: S_6  and  C_9
REMARK    4  A    between atoms: C_9  and  C_10
REMARK    5  A    between atoms: C_10  and  C_11
REMARK    6  A    between atoms: N_13  and  C_14
REMARK    7  A    between atoms: C_19  and  C_20
REMARK                            x       y       z     vdW  Elec       q    Type
REMARK                         _______ _______ _______ _____ _____    ______ ____
ROOT
ATOM      1  C   UNL     1       2.656   6.827  18.604  0.00  0.00    +0.000 C 
ATOM      2  O   UNL     1       2.758   6.655  19.816  0.00  0.00    +0.000 OA
ATOM      3  N   UNL     1       2.480   5.842  17.650  0.00  0.00    +0.000 N 
ATOM      4  H   UNL     1       2.018   6.107  16.789  0.00  0.00    +0.000 HD
ENDROOT
BRANCH   3   5
ATOM      5  C   UNL     1       2.391   4.479  18.011  0.00  0.00    +0.000 A 
ATOM      6  C   UNL     1       1.172   4.018  18.537  0.00  0.00    +0.000 A 
ATOM      7  C   UNL     1       1.041   2.707  18.982  0.00  0.00    +0.000 A 
ATOM      8  C   UNL     1       2.105   1.828  18.840  0.00  0.00    +0.000 A 
ATOM      9  C   UNL     1       3.315   2.278  18.302  0.00  0.00    +0.000 A 
ATOM     10  C   UNL     1       3.513   3.623  17.922  0.00  0.00    +0.000 A 
BRANCH  10  11
ATOM     11  C   UNL     1       4.860   4.070  17.474  0.00  0.00    +0.000 A 
ATOM     12  C   UNL     1       5.847   4.541  18.359  0.00  0.00    +0.000 A 
ATOM     13  C   UNL     1       7.150   4.811  17.927  0.00  0.00    +0.000 A 
ATOM     14  C   UNL     1       7.478   4.682  16.582  0.00  0.00    +0.000 A 
ATOM     15  C   UNL     1       6.502   4.299  15.669  0.00  0.00    +0.000 A 
ATOM     16  C   UNL     1       5.214   3.990  16.113  0.00  0.00    +0.000 A 
ENDBRANCH  10  11
ENDBRANCH   3   5
BRANCH   1  17
ATOM     17  C   UNL     1       2.697   8.223  18.028  0.00  0.00    +0.000 C 
BRANCH  17  18
ATOM     18  C   UNL     1       1.278   8.701  17.777  0.00  0.00    +0.000 C 
BRANCH  18  19
ATOM     19  S   UNL     1       0.848  10.034  18.889  0.00  0.00    +0.000 S 
ATOM     20  O   UNL     1       1.722  11.154  18.578  0.00  0.00    +0.000 OA
ATOM     21  O   UNL     1       0.749   9.536  20.244  0.00  0.00    +0.000 OA
BRANCH  19  26
ATOM     22  C   UNL     1      -4.846  11.368  17.337  0.00  0.00    +0.000 C 
ATOM     23  C   UNL     1      -3.420  11.057  17.685  0.00  0.00    +0.000 A 
ATOM     24  C   UNL     1      -2.703  10.083  16.978  0.00  0.00    +0.000 A 
ATOM     25  C   UNL     1      -1.387   9.787  17.331  0.00  0.00    +0.000 A 
ATOM     26  C   UNL     1      -0.787  10.477  18.388  0.00  0.00    +0.000 A 
ATOM     27  C   UNL     1      -1.490  11.446  19.105  0.00  0.00    +0.000 A 
ATOM     28  C   UNL     1      -2.804  11.737  18.745  0.00  0.00    +0.000 A 
ENDBRANCH  19  26
ENDBRANCH  18  19
ENDBRANCH  17  18
ENDBRANCH   1  17
TORSDOF 6
ENDMDL
MODEL 3
REMARK VINA RESULT:      -8.5      1.323      1.872
REMARK  Name = 
REMARK  7 active torsions:
REMARK  status: ('A' for Active; 'I' for Inactive)
REMARK    1  A    between atoms: C_1  and  C_2
REMARK    2  A    between atoms: C_5  and  S_6
REMARK    3  A    between atoms: S_6  and  C_9
REMARK    4  A    between atoms: C_9  and  C_10
REMARK    5  A    between atoms: C_10  and  C_11
REMARK    6  A    between atoms: N_13  and  C_14
REMARK    7  A    between atoms: C_19  and  C_20
REMARK                            x       y       z     vdW  Elec       q    Type
REMARK                         _______ _______ _______ _____ _____    ______ ____
ROOT
ATOM      1  C   UNL     1       2.525   6.846  18.382  0.00  0.00    +0.000 C 
ATOM      2  O   UNL     1       1.882   6.134  17.616  0.00  0.00    +0.000 OA
ATOM      3  N   UNL     1       3.123   6.447  19.563  0.00  0.00    +0.000 N 
ATOM      4  H   UNL     1       3.926   6.977  19.880  0.00  0.00    +0.000 HD
ENDROOT
BRANCH   3   5
ATOM      5  C   UNL     1       3.043   5.110  20.010  0.00  0.00    +0.000 A 
ATOM      6  C   UNL     1       2.106   4.808  21.013  0.00  0.00    +0.000 A 
ATOM      7  C   UNL     1       2.029   3.527  21.550  0.00  0.00    +0.000 A 
ATOM      8  C   UNL     1       2.840   2.522  21.041  0.00  0.00    +0.000 A 
ATOM      9  C   UNL     1       3.763   2.815  20.032  0.00  0.00    +0.000 A 
ATOM     10  C   UNL     1       3.931   4.122  19.524  0.00  0.00    +0.000 A 
BRANCH  10  11
ATOM     11  C   UNL     1       5.015   4.395  18.542  0.00  0.00    +0.000 A 
ATOM     12  C   UNL     1       6.246   4.975  18.898  0.00  0.00    +0.000 A 
ATOM     13  C   UNL     1       7.299   5.081  17.982  0.00  0.00    +0.000 A 
ATOM     14  C   UNL     1       7.119   4.672  16.665  0.00  0.00    +0.000 A 
ATOM     15  C   UNL     1       5.885   4.173  16.262  0.00  0.00    +0.000 A 
ATOM     16  C   UNL     1       4.852   4.030  17.192  0.00  0.00    +0.000 A 
ENDBRANCH  10  11
ENDBRANCH   3   5
BRANCH   1  17
ATOM     17  C   UNL     1       2.746   8.305  18.058  0.00  0.00    +0.000 C 
BRANCH  17  18
ATOM     18  C   UNL     1       1.420   8.939  17.679  0.00  0.00    +0.000 C 
BRANCH  18  19
ATOM     19  S   UNL     1       0.862  10.064  18.952  0.00  0.00    +0.000 S 
ATOM     20  O   UNL     1       1.635  11.290  18.812  0.00  0.00    +0.000 OA
ATOM     21  O   UNL     1       0.798   9.379  20.225  0.00  0.00    +0.000 OA
BRANCH  19  26
ATOM     22  C   UNL     1      -4.745  11.493  17.186  0.00  0.00    +0.000 C 
ATOM     23  C   UNL     1      -3.372  11.118  17.660  0.00  0.00    +0.000 A 
ATOM     24  C   UNL     1      -2.794  11.756  18.765  0.00  0.00    +0.000 A 
ATOM     25  C   UNL     1      -1.505  11.415  19.176  0.00  0.00    +0.000 A 
ATOM     26  C   UNL     1      -0.802  10.426  18.483  0.00  0.00    +0.000 A 
ATOM     27  C   UNL     1      -1.363   9.787  17.378  0.00  0.00    +0.000 A 
ATOM     28  C   UNL     1      -2.651  10.132  16.974  0.00  0.00    +0.000 A 
ENDBRANCH  19  26
ENDBRANCH  18  19
ENDBRANCH  17  18
ENDBRANCH   1  17
TORSDOF 6
ENDMDL
MODEL 4
REMARK VINA RESULT:      -8.4      0.593      1.208
REMARK  Name = 
REMARK  7 active torsions:
REMARK  status: ('A' for Active; 'I' for Inactive)
REMARK    1  A    between atoms: C_1  and  C_2
REMARK    2  A    between atoms: C_5  and  S_6
REMARK    3  A    between atoms: S_6  and  C_9
REMARK    4  A    between atoms: C_9  and  C_10
REMARK    5  A    between atoms: C_10  and  C_11
REMARK    6  A    between atoms: N_13  and  C_14
REMARK    7  A    between atoms: C_19  and  C_20
REMARK                            x       y       z     vdW  Elec       q    Type
REMARK                         _______ _______ _______ _____ _____    ______ ____
ROOT
ATOM      1  C   UNL     1       2.564   6.874  18.690  0.00  0.00    +0.000 C 
ATOM      2  O   UNL     1       2.421   6.710  19.899  0.00  0.00    +0.000 OA
ATOM      3  N   UNL     1       2.595   5.881  17.728  0.00  0.00    +0.000 N 
ATOM      4  H   UNL     1       2.313   6.135  16.789  0.00  0.00    +0.000 HD
ENDROOT
BRANCH   3   5
ATOM      5  C   UNL     1       2.449   4.519  18.075  0.00  0.00    +0.000 A 
ATOM      6  C   UNL     1       1.251   4.125  18.694  0.00  0.00    +0.000 A 
ATOM      7  C   UNL     1       1.074   2.816  19.128  0.00  0.00    +0.000 A 
ATOM      8  C   UNL     1       2.064   1.874  18.884  0.00  0.00    +0.000 A 
ATOM      9  C   UNL     1       3.252   2.259  18.253  0.00  0.00    +0.000 A 
ATOM     10  C   UNL     1       3.503   3.597  17.878  0.00  0.00    +0.000 A 
BRANCH  10  11
ATOM     11  C   UNL     1       4.834   3.968  17.325  0.00  0.00    +0.000 A 
ATOM     12  C   UNL     1       5.123   3.959  15.948  0.00  0.00    +0.000 A 
ATOM     13  C   UNL     1       6.333   4.455  15.450  0.00  0.00    +0.000 A 
ATOM     14  C   UNL     1       7.313   4.908  16.327  0.00  0.00    +0.000 A 
ATOM     15  C   UNL     1       7.089   4.852  17.698  0.00  0.00    +0.000 A 
ATOM     16  C   UNL     1       5.862   4.395  18.187  0.00  0.00    +0.000 A 
ENDBRANCH  10  11
ENDBRANCH   3   5
BRANCH   1  17
ATOM     17  C   UNL     1       2.706   8.266  18.123  0.00  0.00    +0.000 C 
BRANCH  17  18
ATOM     18  C   UNL     1       1.330   8.805  17.773  0.00  0.00    +0.000 C 
BRANCH  18  19
ATOM     19  S   UNL     1       0.858  10.123  18.885  0.00  0.00    +0.000 S 
ATOM     20  O   UNL     1       1.647  11.292  18.529  0.00  0.00    +0.000 OA
ATOM     21  O   UNL     1       0.841   9.638  20.249  0.00  0.00    +0.000 OA
BRANCH  19  26
ATOM     22  C   UNL     1      -4.800  11.453  17.204  0.00  0.00    +0.000 C 
ATOM     23  C   UNL     1      -3.413  11.103  17.657  0.00  0.00    +0.000 A 
ATOM     24  C   UNL     1      -2.827  11.756  18.749  0.00  0.00    +0.000 A 
ATOM     25  C   UNL     1      -1.527  11.438  19.140  0.00  0.00    +0.000 A 
ATOM     26  C   UNL     1      -0.819  10.456  18.442  0.00  0.00    +0.000 A 
ATOM     27  C   UNL     1      -1.388   9.801  17.350  0.00  0.00    +0.000 A 
ATOM     28  C   UNL     1      -2.688  10.123  16.965  0.00  0.00    +0.000 A 
ENDBRANCH  19  26
ENDBRANCH  18  19
ENDBRANCH  17  18
ENDBRANCH   1  17
TORSDOF 6
ENDMDL
MODEL 5
REMARK VINA RESULT:      -8.3      0.797      1.476
REMARK  Name = 
REMARK  7 active torsions:
REMARK  status: ('A' for Active; 'I' for Inactive)
REMARK    1  A    between atoms: C_1  and  C_2
REMARK    2  A    between atoms: C_5  and  S_6
REMARK    3  A    between atoms: S_6  and  C_9
REMARK    4  A    between atoms: C_9  and  C_10
REMARK    5  A    between atoms: C_10  and  C_11
REMARK    6  A    between atoms: N_13  and  C_14
REMARK    7  A    between atoms: C_19  and  C_20
REMARK                            x       y       z     vdW  Elec       q    Type
REMARK                         _______ _______ _______ _____ _____    ______ ____
ROOT
ATOM      1  C   UNL     1       2.518   7.455  18.637  0.00  0.00    +0.000 C 
ATOM      2  O   UNL     1       2.357   7.158  19.817  0.00  0.00    +0.000 OA
ATOM      3  N   UNL     1       2.784   6.578  17.601  0.00  0.00    +0.000 N 
ATOM      4  H   UNL     1       2.500   6.859  16.670  0.00  0.00    +0.000 HD
ENDROOT
BRANCH   3   5
ATOM      5  C   UNL     1       2.891   5.188  17.826  0.00  0.00    +0.000 A 
ATOM      6  C   UNL     1       1.708   4.430  17.820  0.00  0.00    +0.000 A 
ATOM      7  C   UNL     1       1.736   3.070  18.109  0.00  0.00    +0.000 A 
ATOM      8  C   UNL     1       2.953   2.444  18.339  0.00  0.00    +0.000 A 
ATOM      9  C   UNL     1       4.134   3.192  18.330  0.00  0.00    +0.000 A 
ATOM     10  C   UNL     1       4.136   4.590  18.128  0.00  0.00    +0.000 A 
BRANCH  10  11
ATOM     11  C   UNL     1       5.410   5.349  18.254  0.00  0.00    +0.000 A 
ATOM     12  C   UNL     1       6.283   5.207  19.349  0.00  0.00    +0.000 A 
ATOM     13  C   UNL     1       7.541   5.820  19.366  0.00  0.00    +0.000 A 
ATOM     14  C   UNL     1       7.926   6.649  18.318  0.00  0.00    +0.000 A 
ATOM     15  C   UNL     1       7.051   6.874  17.262  0.00  0.00    +0.000 A 
ATOM     16  C   UNL     1       5.814   6.226  17.229  0.00  0.00    +0.000 A 
ENDBRANCH  10  11
ENDBRANCH   3   5
BRANCH   1  17
ATOM     17  C   UNL     1       2.411   8.896  18.194  0.00  0.00    +0.000 C 
BRANCH  17  18
ATOM     18  C   UNL     1       0.954   9.228  17.929  0.00  0.00    +0.000 C 
BRANCH  18  19
ATOM     19  S   UNL     1       0.326  10.371  19.153  0.00  0.00    +0.000 S 
ATOM     20  O   UNL     1       1.094  11.601  19.029  0.00  0.00    +0.000 OA
ATOM     21  O   UNL     1       0.207   9.707  20.434  0.00  0.00    +0.000 OA
BRANCH  19  26
ATOM     22  C   UNL     1      -5.203  11.728  17.107  0.00  0.00    +0.000 C 
ATOM     23  C   UNL     1      -3.851  11.370  17.649  0.00  0.00    +0.000 A 
ATOM     24  C   UNL     1      -3.356  11.979  18.809  0.00  0.00    +0.000 A 
ATOM     25  C   UNL     1      -2.085  11.654  19.284  0.00  0.00    +0.000 A 
ATOM     26  C   UNL     1      -1.316  10.709  18.599  0.00  0.00    +0.000 A 
ATOM     27  C   UNL     1      -1.794  10.099  17.440  0.00  0.00    +0.000 A 
ATOM     28  C   UNL     1      -3.065  10.428  16.972  0.00  0.00    +0.000 A 
ENDBRANCH  19  26
ENDBRANCH  18  19
ENDBRANCH  17  18
ENDBRANCH   1  17
TORSDOF 6
ENDMDL
MODEL 6
REMARK VINA RESULT:      -8.1      1.400      1.721
REMARK  Name = 
REMARK  7 active torsions:
REMARK  status: ('A' for Active; 'I' for Inactive)
REMARK    1  A    between atoms: C_1  and  C_2
REMARK    2  A    between atoms: C_5  and  S_6
REMARK    3  A    between atoms: S_6  and  C_9
REMARK    4  A    between atoms: C_9  and  C_10
REMARK    5  A    between atoms: C_10  and  C_11
REMARK    6  A    between atoms: N_13  and  C_14
REMARK    7  A    between atoms: C_19  and  C_20
REMARK                            x       y       z     vdW  Elec       q    Type
REMARK                         _______ _______ _______ _____ _____    ______ ____
ROOT
ATOM      1  C   UNL     1       2.371   6.843  18.620  0.00  0.00    +0.000 C 
ATOM      2  O   UNL     1       1.886   6.144  17.735  0.00  0.00    +0.000 OA
ATOM      3  N   UNL     1       3.025   6.393  19.752  0.00  0.00    +0.000 N 
ATOM      4  H   UNL     1       3.706   7.014  20.172  0.00  0.00    +0.000 HD
ENDROOT
BRANCH   3   5
ATOM      5  C   UNL     1       3.205   5.014  19.995  0.00  0.00    +0.000 A 
ATOM      6  C   UNL     1       2.300   4.376  20.860  0.00  0.00    +0.000 A 
ATOM      7  C   UNL     1       2.465   3.038  21.200  0.00  0.00    +0.000 A 
ATOM      8  C   UNL     1       3.497   2.309  20.626  0.00  0.00    +0.000 A 
ATOM      9  C   UNL     1       4.391   2.936  19.752  0.00  0.00    +0.000 A 
ATOM     10  C   UNL     1       4.307   4.313  19.452  0.00  0.00    +0.000 A 
BRANCH  10  11
ATOM     11  C   UNL     1       5.361   4.949  18.615  0.00  0.00    +0.000 A 
ATOM     12  C   UNL     1       5.242   5.111  17.223  0.00  0.00    +0.000 A 
ATOM     13  C   UNL     1       6.180   5.846  16.488  0.00  0.00    +0.000 A 
ATOM     14  C   UNL     1       7.299   6.376  17.121  0.00  0.00    +0.000 A 
ATOM     15  C   UNL     1       7.486   6.161  18.482  0.00  0.00    +0.000 A 
ATOM     16  C   UNL     1       6.525   5.463  19.218  0.00  0.00    +0.000 A 
ENDBRANCH  10  11
ENDBRANCH   3   5
BRANCH   1  17
ATOM     17  C   UNL     1       2.304   8.349  18.521  0.00  0.00    +0.000 C 
BRANCH  17  18
ATOM     18  C   UNL     1       1.313   8.873  19.545  0.00  0.00    +0.000 C 
BRANCH  18  19
ATOM     19  S   UNL     1       1.042  10.628  19.332  0.00  0.00    +0.000 S 
ATOM     20  O   UNL     1       1.927  11.075  18.268  0.00  0.00    +0.000 OA
ATOM     21  O   UNL     1       1.051  11.289  20.619  0.00  0.00    +0.000 OA
BRANCH  19  26
ATOM     22  C   UNL     1      -4.551  11.134  17.082  0.00  0.00    +0.000 C 
ATOM     23  C   UNL     1      -3.181  10.988  17.676  0.00  0.00    +0.000 A 
ATOM     24  C   UNL     1      -2.789  11.759  18.777  0.00  0.00    +0.000 A 
ATOM     25  C   UNL     1      -1.502  11.631  19.300  0.00  0.00    +0.000 A 
ATOM     26  C   UNL     1      -0.613  10.719  18.724  0.00  0.00    +0.000 A 
ATOM     27  C   UNL     1      -0.988   9.948  17.623  0.00  0.00    +0.000 A 
ATOM     28  C   UNL     1      -2.276  10.081  17.107  0.00  0.00    +0.000 A 
ENDBRANCH  19  26
ENDBRANCH  18  19
ENDBRANCH  17  18
ENDBRANCH   1  17
TORSDOF 6
ENDMDL
MODEL 7
REMARK VINA RESULT:      -8.1      1.575      3.305
REMARK  Name = 
REMARK  7 active torsions:
REMARK  status: ('A' for Active; 'I' for Inactive)
REMARK    1  A    between atoms: C_1  and  C_2
REMARK    2  A    between atoms: C_5  and  S_6
REMARK    3  A    between atoms: S_6  and  C_9
REMARK    4  A    between atoms: C_9  and  C_10
REMARK    5  A    between atoms: C_10  and  C_11
REMARK    6  A    between atoms: N_13  and  C_14
REMARK    7  A    between atoms: C_19  and  C_20
REMARK                            x       y       z     vdW  Elec       q    Type
REMARK                         _______ _______ _______ _____ _____    ______ ____
ROOT
ATOM      1  C   UNL     1       2.337   7.339  18.482  0.00  0.00    +0.000 C 
ATOM      2  O   UNL     1       1.662   7.251  17.460  0.00  0.00    +0.000 OA
ATOM      3  N   UNL     1       3.528   6.683  18.735  0.00  0.00    +0.000 N 
ATOM      4  H   UNL     1       4.170   7.121  19.385  0.00  0.00    +0.000 HD
ENDROOT
BRANCH   3   5
ATOM      5  C   UNL     1       4.102   5.813  17.783  0.00  0.00    +0.000 A 
ATOM      6  C   UNL     1       4.844   6.385  16.735  0.00  0.00    +0.000 A 
ATOM      7  C   UNL     1       5.373   5.590  15.724  0.00  0.00    +0.000 A 
ATOM      8  C   UNL     1       5.223   4.212  15.788  0.00  0.00    +0.000 A 
ATOM      9  C   UNL     1       4.499   3.638  16.837  0.00  0.00    +0.000 A 
ATOM     10  C   UNL     1       3.874   4.419  17.834  0.00  0.00    +0.000 A 
BRANCH  10  11
ATOM     11  C   UNL     1       3.013   3.758  18.853  0.00  0.00    +0.000 A 
ATOM     12  C   UNL     1       3.517   3.224  20.053  0.00  0.00    +0.000 A 
ATOM     13  C   UNL     1       2.666   2.746  21.056  0.00  0.00    +0.000 A 
ATOM     14  C   UNL     1       1.290   2.726  20.850  0.00  0.00    +0.000 A 
ATOM     15  C   UNL     1       0.769   3.170  19.640  0.00  0.00    +0.000 A 
ATOM     16  C   UNL     1       1.621   3.686  18.660  0.00  0.00    +0.000 A 
ENDBRANCH  10  11
ENDBRANCH   3   5
BRANCH   1  17
ATOM     17  C   UNL     1       1.899   8.248  19.606  0.00  0.00    +0.000 C 
BRANCH  17  18
ATOM     18  C   UNL     1       1.463   9.582  19.028  0.00  0.00    +0.000 C 
BRANCH  18  19
ATOM     19  S   UNL     1       0.295  10.396  20.110  0.00  0.00    +0.000 S 
ATOM     20  O   UNL     1       0.879  11.672  20.495  0.00  0.00    +0.000 OA
ATOM     21  O   UNL     1      -0.173   9.470  21.120  0.00  0.00    +0.000 OA
BRANCH  19  26
ATOM     22  C   UNL     1      -4.548  11.371  16.617  0.00  0.00    +0.000 C 
ATOM     23  C   UNL     1      -3.322  11.150  17.453  0.00  0.00    +0.000 A 
ATOM     24  C   UNL     1      -2.348  10.219  17.069  0.00  0.00    +0.000 A 
ATOM     25  C   UNL     1      -1.227  10.006  17.871  0.00  0.00    +0.000 A 
ATOM     26  C   UNL     1      -1.079  10.736  19.054  0.00  0.00    +0.000 A 
ATOM     27  C   UNL     1      -2.044  11.662  19.451  0.00  0.00    +0.000 A 
ATOM     28  C   UNL     1      -3.160  11.870  18.644  0.00  0.00    +0.000 A 
ENDBRANCH  19  26
ENDBRANCH  18  19
ENDBRANCH  17  18
ENDBRANCH   1  17
TORSDOF 6
ENDMDL
MODEL 8
REMARK VINA RESULT:      -8.0      1.187      1.418
REMARK  Name = 
REMARK  7 active torsions:
REMARK  status: ('A' for Active; 'I' for Inactive)
REMARK    1  A    between atoms: C_1  and  C_2
REMARK    2  A    between atoms: C_5  and  S_6
REMARK    3  A    between atoms: S_6  and  C_9
REMARK    4  A    between atoms: C_9  and  C_10
REMARK    5  A    between atoms: C_10  and  C_11
REMARK    6  A    between atoms: N_13  and  C_14
REMARK    7  A    between atoms: C_19  and  C_20
REMARK                            x       y       z     vdW  Elec       q    Type
REMARK                         _______ _______ _______ _____ _____    ______ ____
ROOT
ATOM      1  C   UNL     1       2.156   7.020  18.913  0.00  0.00    +0.000 C 
ATOM      2  O   UNL     1       1.911   7.123  17.715  0.00  0.00    +0.000 OA
ATOM      3  N   UNL     1       2.521   5.863  19.577  0.00  0.00    +0.000 N 
ATOM      4  H   UNL     1       3.071   5.965  20.421  0.00  0.00    +0.000 HD
ENDROOT
BRANCH   3   5
ATOM      5  C   UNL     1       2.654   4.636  18.892  0.00  0.00    +0.000 A 
ATOM      6  C   UNL     1       1.573   3.739  18.934  0.00  0.00    +0.000 A 
ATOM      7  C   UNL     1       1.668   2.484  18.344  0.00  0.00    +0.000 A 
ATOM      8  C   UNL     1       2.819   2.140  17.648  0.00  0.00    +0.000 A 
ATOM      9  C   UNL     1       3.892   3.036  17.589  0.00  0.00    +0.000 A 
ATOM     10  C   UNL     1       3.865   4.284  18.250  0.00  0.00    +0.000 A 
BRANCH  10  11
ATOM     11  C   UNL     1       5.083   5.138  18.256  0.00  0.00    +0.000 A 
ATOM     12  C   UNL     1       6.084   5.042  19.240  0.00  0.00    +0.000 A 
ATOM     13  C   UNL     1       7.285   5.752  19.135  0.00  0.00    +0.000 A 
ATOM     14  C   UNL     1       7.483   6.633  18.077  0.00  0.00    +0.000 A 
ATOM     15  C   UNL     1       6.477   6.812  17.134  0.00  0.00    +0.000 A 
ATOM     16  C   UNL     1       5.298   6.068  17.221  0.00  0.00    +0.000 A 
ENDBRANCH  10  11
ENDBRANCH   3   5
BRANCH   1  17
ATOM     17  C   UNL     1       2.096   8.235  19.809  0.00  0.00    +0.000 C 
BRANCH  17  18
ATOM     18  C   UNL     1       1.471   9.388  19.045  0.00  0.00    +0.000 C 
BRANCH  18  19
ATOM     19  S   UNL     1       0.281  10.256  20.059  0.00  0.00    +0.000 S 
ATOM     20  O   UNL     1       0.882  11.525  20.439  0.00  0.00    +0.000 OA
ATOM     21  O   UNL     1      -0.252   9.366  21.068  0.00  0.00    +0.000 OA
BRANCH  19  26
ATOM     22  C   UNL     1      -4.383  11.260  16.338  0.00  0.00    +0.000 C 
ATOM     23  C   UNL     1      -3.200  11.032  17.232  0.00  0.00    +0.000 A 
ATOM     24  C   UNL     1      -2.210  10.101  16.891  0.00  0.00    +0.000 A 
ATOM     25  C   UNL     1      -1.130   9.881  17.746  0.00  0.00    +0.000 A 
ATOM     26  C   UNL     1      -1.039  10.605  18.939  0.00  0.00    +0.000 A 
ATOM     27  C   UNL     1      -2.020  11.531  19.293  0.00  0.00    +0.000 A 
ATOM     28  C   UNL     1      -3.095  11.746  18.433  0.00  0.00    +0.000 A 
ENDBRANCH  19  26
ENDBRANCH  18  19
ENDBRANCH  17  18
ENDBRANCH   1  17
TORSDOF 6
ENDMDL
MODEL 9
REMARK VINA RESULT:      -8.0      1.697      2.570
REMARK  Name = 
REMARK  7 active torsions:
REMARK  status: ('A' for Active; 'I' for Inactive)
REMARK    1  A    between atoms: C_1  and  C_2
REMARK    2  A    between atoms: C_5  and  S_6
REMARK    3  A    between atoms: S_6  and  C_9
REMARK    4  A    between atoms: C_9  and  C_10
REMARK    5  A    between atoms: C_10  and  C_11
REMARK    6  A    between atoms: N_13  and  C_14
REMARK    7  A    between atoms: C_19  and  C_20
REMARK                            x       y       z     vdW  Elec       q    Type
REMARK                         _______ _______ _______ _____ _____    ______ ____
ROOT
ATOM      1  C   UNL     1       2.311   6.809  19.006  0.00  0.00    +0.000 C 
ATOM      2  O   UNL     1       2.310   6.484  20.190  0.00  0.00    +0.000 OA
ATOM      3  N   UNL     1       2.406   5.954  17.924  0.00  0.00    +0.000 N 
ATOM      4  H   UNL     1       2.001   6.266  17.049  0.00  0.00    +0.000 HD
ENDROOT
BRANCH   3   5
ATOM      5  C   UNL     1       2.508   4.556  18.099  0.00  0.00    +0.000 A 
ATOM      6  C   UNL     1       1.319   3.828  18.272  0.00  0.00    +0.000 A 
ATOM      7  C   UNL     1       1.354   2.461  18.524  0.00  0.00    +0.000 A 
ATOM      8  C   UNL     1       2.574   1.799  18.538  0.00  0.00    +0.000 A 
ATOM      9  C   UNL     1       3.759   2.517  18.351  0.00  0.00    +0.000 A 
ATOM     10  C   UNL     1       3.768   3.919  18.180  0.00  0.00    +0.000 A 
BRANCH  10  11
ATOM     11  C   UNL     1       5.067   4.642  18.111  0.00  0.00    +0.000 A 
ATOM     12  C   UNL     1       5.739   5.124  19.250  0.00  0.00    +0.000 A 
ATOM     13  C   UNL     1       7.027   5.665  19.166  0.00  0.00    +0.000 A 
ATOM     14  C   UNL     1       7.645   5.803  17.927  0.00  0.00    +0.000 A 
ATOM     15  C   UNL     1       6.971   5.413  16.775  0.00  0.00    +0.000 A 
ATOM     16  C   UNL     1       5.703   4.834  16.870  0.00  0.00    +0.000 A 
ENDBRANCH  10  11
ENDBRANCH   3   5
BRANCH   1  17
ATOM     17  C   UNL     1       2.179   8.262  18.616  0.00  0.00    +0.000 C 
BRANCH  17  18
ATOM     18  C   UNL     1       1.384   8.995  19.682  0.00  0.00    +0.000 C 
BRANCH  18  19
ATOM     19  S   UNL     1       0.560  10.425  18.994  0.00  0.00    +0.000 S 
ATOM     20  O   UNL     1      -0.307   9.951  17.927  0.00  0.00    +0.000 OA
ATOM     21  O   UNL     1       1.521  11.478  18.745  0.00  0.00    +0.000 OA
BRANCH  19  26
ATOM     22  C   UNL     1      -2.803  12.519  23.567  0.00  0.00    +0.000 C 
ATOM     23  C   UNL     1      -1.991  11.961  22.436  0.00  0.00    +0.000 A 
ATOM     24  C   UNL     1      -1.019  10.978  22.664  0.00  0.00    +0.000 A 
ATOM     25  C   UNL     1      -0.254  10.490  21.605  0.00  0.00    +0.000 A 
ATOM     26  C   UNL     1      -0.473  10.981  20.314  0.00  0.00    +0.000 A 
ATOM     27  C   UNL     1      -1.434  11.963  20.074  0.00  0.00    +0.000 A 
ATOM     28  C   UNL     1      -2.195  12.445  21.137  0.00  0.00    +0.000 A 
ENDBRANCH  19  26
ENDBRANCH  18  19
ENDBRANCH  17  18
ENDBRANCH   1  17
TORSDOF 6
ENDMDL
