MODEL 1
REMARK VINA RESULT:      -9.2      0.000      0.000
REMARK  Name = 
REMARK  8 active torsions:
REMARK  status: ('A' for Active; 'I' for Inactive)
REMARK    1  A    between atoms: C_1  and  C_2
REMARK    2  A    between atoms: C_5  and  N_6
REMARK    3  A    between atoms: C_7  and  C_9
REMARK    4  A    between atoms: C_11  and  C_12
REMARK    5  A    between atoms: C_18  and  C_19
REMARK    6  A    between atoms: C_25  and  C_26
REMARK    7  A    between atoms: C_26  and  C_27
REMARK    8  A    between atoms: N_31  and  C_32
REMARK                            x       y       z     vdW  Elec       q    Type
REMARK                         _______ _______ _______ _____ _____    ______ ____
ROOT
ATOM      1  N   UNL     1       1.836   8.604  17.830  0.00  0.00    +0.000 N 
ATOM      2  C   UNL     1       1.335   9.119  19.023  0.00  0.00    +0.000 C 
ATOM      3  O   UNL     1       1.518   8.642  20.145  0.00  0.00    +0.000 OA
ATOM      4  H   UNL     1       1.752   9.202  17.011  0.00  0.00    +0.000 HD
ENDROOT
BRANCH   1   9
ATOM      5  C   UNL     1       4.998   3.903  16.862  0.00  0.00    +0.000 C 
ATOM      6  C   UNL     1       4.105   5.047  17.273  0.00  0.00    +0.000 A 
ATOM      7  C   UNL     1       4.677   6.315  17.121  0.00  0.00    +0.000 A 
ATOM      8  C   UNL     1       3.943   7.470  17.349  0.00  0.00    +0.000 A 
ATOM      9  C   UNL     1       2.607   7.414  17.730  0.00  0.00    +0.000 A 
ATOM     10  C   UNL     1       2.047   6.160  17.985  0.00  0.00    +0.000 A 
ATOM     11  C   UNL     1       2.786   4.953  17.782  0.00  0.00    +0.000 A 
BRANCH  11  12
ATOM     12  C   UNL     1       2.119   3.625  18.146  0.00  0.00    +0.000 C 
BRANCH  12  13
ATOM     13  C   UNL     1       2.022   3.324  19.614  0.00  0.00    +0.000 A 
ATOM     14  N   UNL     1       0.979   3.566  20.390  0.00  0.00    +0.000 NA
ATOM     15  N   UNL     1       1.226   3.027  21.632  0.00  0.00    +0.000 NA
ATOM     16  C   UNL     1       2.423   2.493  21.597  0.00  0.00    +0.000 A 
ATOM     17  N   UNL     1       2.994   2.740  20.386  0.00  0.00    +0.000 N 
ATOM     18  C   UNL     1       4.318   2.344  19.992  0.00  0.00    +0.000 C 
ENDBRANCH  12  13
ENDBRANCH  11  12
ENDBRANCH   1   9
BRANCH   2  19
ATOM     19  C   UNL     1       0.579  10.397  18.959  0.00  0.00    +0.000 A 
ATOM     20  C   UNL     1      -0.785  10.351  18.677  0.00  0.00    +0.000 A 
ATOM     21  C   UNL     1      -1.495  11.545  18.717  0.00  0.00    +0.000 A 
ATOM     22  C   UNL     1      -0.802  12.730  18.964  0.00  0.00    +0.000 A 
ATOM     23  C   UNL     1       0.547  12.673  19.250  0.00  0.00    +0.000 A 
ATOM     24  N   UNL     1       1.266  11.533  19.252  0.00  0.00    +0.000 NA
BRANCH  21  25
ATOM     25  C   UNL     1      -2.968  11.519  18.471  0.00  0.00    +0.000 C 
ATOM     26  O   UNL     1      -3.375  10.879  17.516  0.00  0.00    +0.000 OA
ATOM     27  N   UNL     1      -3.801  12.229  19.354  0.00  0.00    +0.000 N 
ATOM     28  C   UNL     1      -3.392  12.983  20.538  0.00  0.00    +0.000 C 
ATOM     29  C   UNL     1      -4.197  12.652  21.776  0.00  0.00    +0.000 C 
ATOM     30  C   UNL     1      -5.691  12.693  21.501  0.00  0.00    +0.000 C 
ATOM     31  C   UNL     1      -6.049  11.870  20.253  0.00  0.00    +0.000 C 
ATOM     32  C   UNL     1      -7.544  11.949  19.974  0.00  0.00    +0.000 C 
ATOM     33  C   UNL     1      -5.224  12.331  19.046  0.00  0.00    +0.000 C 
ENDBRANCH  21  25
ENDBRANCH   2  19
TORSDOF 5
ENDMDL
MODEL 2
REMARK VINA RESULT:      -9.0      6.376     10.386
REMARK  Name = 
REMARK  8 active torsions:
REMARK  status: ('A' for Active; 'I' for Inactive)
REMARK    1  A    between atoms: C_1  and  C_2
REMARK    2  A    between atoms: C_5  and  N_6
REMARK    3  A    between atoms: C_7  and  C_9
REMARK    4  A    between atoms: C_11  and  C_12
REMARK    5  A    between atoms: C_18  and  C_19
REMARK    6  A    between atoms: C_25  and  C_26
REMARK    7  A    between atoms: C_26  and  C_27
REMARK    8  A    between atoms: N_31  and  C_32
REMARK                            x       y       z     vdW  Elec       q    Type
REMARK                         _______ _______ _______ _____ _____    ______ ____
ROOT
ATOM      1  N   UNL     1       7.781   8.411  17.393  0.00  0.00    +0.000 N 
ATOM      2  C   UNL     1       7.781   7.108  17.882  0.00  0.00    +0.000 C 
ATOM      3  O   UNL     1       8.275   6.740  18.950  0.00  0.00    +0.000 OA
ATOM      4  H   UNL     1       7.183   8.591  16.589  0.00  0.00    +0.000 HD
ENDROOT
BRANCH   1   9
ATOM      5  C   UNL     1       9.867  12.809  20.450  0.00  0.00    +0.000 C 
ATOM      6  C   UNL     1       9.404  11.736  19.495  0.00  0.00    +0.000 A 
ATOM      7  C   UNL     1       9.500  10.433  19.995  0.00  0.00    +0.000 A 
ATOM      8  C   UNL     1       9.009   9.349  19.282  0.00  0.00    +0.000 A 
ATOM      9  C   UNL     1       8.395   9.514  18.046  0.00  0.00    +0.000 A 
ATOM     10  C   UNL     1       8.380  10.793  17.485  0.00  0.00    +0.000 A 
ATOM     11  C   UNL     1       8.899  11.926  18.186  0.00  0.00    +0.000 A 
BRANCH  11  12
ATOM     12  C   UNL     1       8.902  13.281  17.473  0.00  0.00    +0.000 C 
BRANCH  12  13
ATOM     13  C   UNL     1       7.783  14.214  17.841  0.00  0.00    +0.000 A 
ATOM     14  N   UNL     1       6.494  13.999  17.642  0.00  0.00    +0.000 NA
ATOM     15  N   UNL     1       5.786  15.019  18.234  0.00  0.00    +0.000 NA
ATOM     16  C   UNL     1       6.656  15.848  18.757  0.00  0.00    +0.000 A 
ATOM     17  N   UNL     1       7.917  15.435  18.451  0.00  0.00    +0.000 N 
ATOM     18  C   UNL     1       9.129  16.112  18.818  0.00  0.00    +0.000 C 
ENDBRANCH  12  13
ENDBRANCH  11  12
ENDBRANCH   1   9
BRANCH   2  19
ATOM     19  C   UNL     1       7.059   6.076  17.094  0.00  0.00    +0.000 A 
ATOM     20  C   UNL     1       6.102   5.293  17.737  0.00  0.00    +0.000 A 
ATOM     21  C   UNL     1       5.369   4.400  16.964  0.00  0.00    +0.000 A 
ATOM     22  C   UNL     1       5.671   4.281  15.609  0.00  0.00    +0.000 A 
ATOM     23  C   UNL     1       6.624   5.112  15.056  0.00  0.00    +0.000 A 
ATOM     24  N   UNL     1       7.336   6.012  15.763  0.00  0.00    +0.000 NA
BRANCH  21  25
ATOM     25  C   UNL     1       4.301   3.587  17.618  0.00  0.00    +0.000 C 
ATOM     26  O   UNL     1       4.390   2.372  17.555  0.00  0.00    +0.000 OA
ATOM     27  N   UNL     1       3.256   4.264  18.271  0.00  0.00    +0.000 N 
ATOM     28  C   UNL     1       3.102   5.710  18.423  0.00  0.00    +0.000 C 
ATOM     29  C   UNL     1       2.808   6.143  19.843  0.00  0.00    +0.000 C 
ATOM     30  C   UNL     1       1.677   5.333  20.454  0.00  0.00    +0.000 C 
ATOM     31  C   UNL     1       1.911   3.825  20.269  0.00  0.00    +0.000 C 
ATOM     32  C   UNL     1       0.753   3.029  20.857  0.00  0.00    +0.000 C 
ATOM     33  C   UNL     1       2.133   3.489  18.789  0.00  0.00    +0.000 C 
ENDBRANCH  21  25
ENDBRANCH   2  19
TORSDOF 5
ENDMDL
MODEL 3
REMARK VINA RESULT:      -9.0      2.640      3.586
REMARK  Name = 
REMARK  8 active torsions:
REMARK  status: ('A' for Active; 'I' for Inactive)
REMARK    1  A    between atoms: C_1  and  C_2
REMARK    2  A    between atoms: C_5  and  N_6
REMARK    3  A    between atoms: C_7  and  C_9
REMARK    4  A    between atoms: C_11  and  C_12
REMARK    5  A    between atoms: C_18  and  C_19
REMARK    6  A    between atoms: C_25  and  C_26
REMARK    7  A    between atoms: C_26  and  C_27
REMARK    8  A    between atoms: N_31  and  C_32
REMARK                            x       y       z     vdW  Elec       q    Type
REMARK                         _______ _______ _______ _____ _____    ______ ____
ROOT
ATOM      1  N   UNL     1       2.250   7.866  18.999  0.00  0.00    +0.000 N 
ATOM      2  C   UNL     1       1.699   7.716  20.269  0.00  0.00    +0.000 C 
ATOM      3  O   UNL     1       1.865   6.747  21.015  0.00  0.00    +0.000 OA
ATOM      4  H   UNL     1       2.170   8.790  18.581  0.00  0.00    +0.000 HD
ENDROOT
BRANCH   1   9
ATOM      5  C   UNL     1       5.296   4.104  15.900  0.00  0.00    +0.000 C 
ATOM      6  C   UNL     1       4.527   4.975  16.863  0.00  0.00    +0.000 A 
ATOM      7  C   UNL     1       4.763   6.346  16.722  0.00  0.00    +0.000 A 
ATOM      8  C   UNL     1       4.048   7.281  17.456  0.00  0.00    +0.000 A 
ATOM      9  C   UNL     1       3.062   6.893  18.356  0.00  0.00    +0.000 A 
ATOM     10  C   UNL     1       2.881   5.527  18.585  0.00  0.00    +0.000 A 
ATOM     11  C   UNL     1       3.620   4.541  17.861  0.00  0.00    +0.000 A 
BRANCH  11  12
ATOM     12  C   UNL     1       3.408   3.068  18.218  0.00  0.00    +0.000 C 
BRANCH  12  13
ATOM     13  C   UNL     1       2.889   2.800  19.602  0.00  0.00    +0.000 A 
ATOM     14  N   UNL     1       3.616   2.734  20.705  0.00  0.00    +0.000 NA
ATOM     15  N   UNL     1       2.766   2.608  21.780  0.00  0.00    +0.000 NA
ATOM     16  C   UNL     1       1.542   2.572  21.309  0.00  0.00    +0.000 A 
ATOM     17  N   UNL     1       1.579   2.591  19.948  0.00  0.00    +0.000 N 
ATOM     18  C   UNL     1       0.435   2.523  19.082  0.00  0.00    +0.000 C 
ENDBRANCH  12  13
ENDBRANCH  11  12
ENDBRANCH   1   9
BRANCH   2  19
ATOM     19  C   UNL     1       0.904   8.846  20.814  0.00  0.00    +0.000 A 
ATOM     20  C   UNL     1       0.606   9.919  19.976  0.00  0.00    +0.000 A 
ATOM     21  C   UNL     1      -0.219  10.920  20.473  0.00  0.00    +0.000 A 
ATOM     22  C   UNL     1      -0.648  10.840  21.797  0.00  0.00    +0.000 A 
ATOM     23  C   UNL     1      -0.316   9.730  22.546  0.00  0.00    +0.000 A 
ATOM     24  N   UNL     1       0.456   8.722  22.093  0.00  0.00    +0.000 NA
BRANCH  21  25
ATOM     25  C   UNL     1      -0.597  12.055  19.579  0.00  0.00    +0.000 C 
ATOM     26  O   UNL     1      -1.591  11.926  18.884  0.00  0.00    +0.000 OA
ATOM     27  N   UNL     1       0.208  13.207  19.591  0.00  0.00    +0.000 N 
ATOM     28  C   UNL     1       1.387  13.450  20.422  0.00  0.00    +0.000 C 
ATOM     29  C   UNL     1       1.362  14.787  21.132  0.00  0.00    +0.000 C 
ATOM     30  C   UNL     1       1.032  15.922  20.179  0.00  0.00    +0.000 C 
ATOM     31  C   UNL     1      -0.222  15.604  19.349  0.00  0.00    +0.000 C 
ATOM     32  C   UNL     1      -0.519  16.738  18.376  0.00  0.00    +0.000 C 
ATOM     33  C   UNL     1      -0.064  14.263  18.622  0.00  0.00    +0.000 C 
ENDBRANCH  21  25
ENDBRANCH   2  19
TORSDOF 5
ENDMDL
MODEL 4
REMARK VINA RESULT:      -9.0      2.282      3.550
REMARK  Name = 
REMARK  8 active torsions:
REMARK  status: ('A' for Active; 'I' for Inactive)
REMARK    1  A    between atoms: C_1  and  C_2
REMARK    2  A    between atoms: C_5  and  N_6
REMARK    3  A    between atoms: C_7  and  C_9
REMARK    4  A    between atoms: C_11  and  C_12
REMARK    5  A    between atoms: C_18  and  C_19
REMARK    6  A    between atoms: C_25  and  C_26
REMARK    7  A    between atoms: C_26  and  C_27
REMARK    8  A    between atoms: N_31  and  C_32
REMARK                            x       y       z     vdW  Elec       q    Type
REMARK                         _______ _______ _______ _____ _____    ______ ____
ROOT
ATOM      1  N   UNL     1       1.770   8.188  19.467  0.00  0.00    +0.000 N 
ATOM      2  C   UNL     1       1.956   8.952  18.318  0.00  0.00    +0.000 C 
ATOM      3  O   UNL     1       2.388   8.536  17.240  0.00  0.00    +0.000 OA
ATOM      4  H   UNL     1       1.242   8.626  20.218  0.00  0.00    +0.000 HD
ENDROOT
BRANCH   1   9
ATOM      5  C   UNL     1       3.393   2.748  20.367  0.00  0.00    +0.000 C 
ATOM      6  C   UNL     1       2.935   4.124  19.949  0.00  0.00    +0.000 A 
ATOM      7  C   UNL     1       2.097   4.762  20.870  0.00  0.00    +0.000 A 
ATOM      8  C   UNL     1       1.684   6.073  20.682  0.00  0.00    +0.000 A 
ATOM      9  C   UNL     1       2.093   6.808  19.576  0.00  0.00    +0.000 A 
ATOM     10  C   UNL     1       2.846   6.158  18.595  0.00  0.00    +0.000 A 
ATOM     11  C   UNL     1       3.267   4.800  18.750  0.00  0.00    +0.000 A 
BRANCH  11  12
ATOM     12  C   UNL     1       4.035   4.143  17.600  0.00  0.00    +0.000 C 
BRANCH  12  13
ATOM     13  C   UNL     1       5.515   4.399  17.574  0.00  0.00    +0.000 A 
ATOM     14  N   UNL     1       6.332   4.339  18.611  0.00  0.00    +0.000 NA
ATOM     15  N   UNL     1       7.622   4.501  18.159  0.00  0.00    +0.000 NA
ATOM     16  C   UNL     1       7.562   4.684  16.862  0.00  0.00    +0.000 A 
ATOM     17  N   UNL     1       6.259   4.724  16.469  0.00  0.00    +0.000 N 
ATOM     18  C   UNL     1       5.799   4.948  15.127  0.00  0.00    +0.000 C 
ENDBRANCH  12  13
ENDBRANCH  11  12
ENDBRANCH   1   9
BRANCH   2  19
ATOM     19  C   UNL     1       1.528  10.374  18.359  0.00  0.00    +0.000 A 
ATOM     20  C   UNL     1       0.208  10.665  18.696  0.00  0.00    +0.000 A 
ATOM     21  C   UNL     1      -0.149  12.002  18.823  0.00  0.00    +0.000 A 
ATOM     22  C   UNL     1       0.803  12.980  18.541  0.00  0.00    +0.000 A 
ATOM     23  C   UNL     1       2.092  12.595  18.233  0.00  0.00    +0.000 A 
ATOM     24  N   UNL     1       2.487  11.311  18.129  0.00  0.00    +0.000 NA
BRANCH  21  25
ATOM     25  C   UNL     1      -1.544  12.341  19.234  0.00  0.00    +0.000 C 
ATOM     26  O   UNL     1      -2.430  12.213  18.406  0.00  0.00    +0.000 OA
ATOM     27  N   UNL     1      -1.759  12.786  20.550  0.00  0.00    +0.000 N 
ATOM     28  C   UNL     1      -0.758  12.927  21.607  0.00  0.00    +0.000 C 
ATOM     29  C   UNL     1      -1.166  12.288  22.918  0.00  0.00    +0.000 C 
ATOM     30  C   UNL     1      -2.567  12.703  23.332  0.00  0.00    +0.000 C 
ATOM     31  C   UNL     1      -3.566  12.517  22.179  0.00  0.00    +0.000 C 
ATOM     32  C   UNL     1      -4.958  12.968  22.601  0.00  0.00    +0.000 C 
ATOM     33  C   UNL     1      -3.089  13.257  20.924  0.00  0.00    +0.000 C 
ENDBRANCH  21  25
ENDBRANCH   2  19
TORSDOF 5
ENDMDL
MODEL 5
REMARK VINA RESULT:      -9.0      2.170      9.982
REMARK  Name = 
REMARK  8 active torsions:
REMARK  status: ('A' for Active; 'I' for Inactive)
REMARK    1  A    between atoms: C_1  and  C_2
REMARK    2  A    between atoms: C_5  and  N_6
REMARK    3  A    between atoms: C_7  and  C_9
REMARK    4  A    between atoms: C_11  and  C_12
REMARK    5  A    between atoms: C_18  and  C_19
REMARK    6  A    between atoms: C_25  and  C_26
REMARK    7  A    between atoms: C_26  and  C_27
REMARK    8  A    between atoms: N_31  and  C_32
REMARK                            x       y       z     vdW  Elec       q    Type
REMARK                         _______ _______ _______ _____ _____    ______ ____
ROOT
ATOM      1  N   UNL     1       1.530   8.459  18.836  0.00  0.00    +0.000 N 
ATOM      2  C   UNL     1       1.714   7.774  20.033  0.00  0.00    +0.000 C 
ATOM      3  O   UNL     1       1.541   8.239  21.162  0.00  0.00    +0.000 OA
ATOM      4  H   UNL     1       1.538   7.896  17.989  0.00  0.00    +0.000 HD
ENDROOT
BRANCH   1   9
ATOM      5  C   UNL     1       0.344  14.083  18.904  0.00  0.00    +0.000 C 
ATOM      6  C   UNL     1       0.487  12.585  18.797  0.00  0.00    +0.000 A 
ATOM      7  C   UNL     1       1.767  12.147  18.439  0.00  0.00    +0.000 A 
ATOM      8  C   UNL     1       2.086  10.798  18.409  0.00  0.00    +0.000 A 
ATOM      9  C   UNL     1       1.150   9.826  18.743  0.00  0.00    +0.000 A 
ATOM     10  C   UNL     1      -0.160  10.236  19.005  0.00  0.00    +0.000 A 
ATOM     11  C   UNL     1      -0.524  11.618  19.019  0.00  0.00    +0.000 A 
BRANCH  11  12
ATOM     12  C   UNL     1      -1.993  11.979  19.252  0.00  0.00    +0.000 C 
BRANCH  12  13
ATOM     13  C   UNL     1      -2.921  11.713  18.102  0.00  0.00    +0.000 A 
ATOM     14  N   UNL     1      -2.561  11.376  16.875  0.00  0.00    +0.000 NA
ATOM     15  N   UNL     1      -3.696  11.088  16.152  0.00  0.00    +0.000 NA
ATOM     16  C   UNL     1      -4.724  11.282  16.942  0.00  0.00    +0.000 A 
ATOM     17  N   UNL     1      -4.291  11.766  18.139  0.00  0.00    +0.000 N 
ATOM     18  C   UNL     1      -5.132  12.135  19.243  0.00  0.00    +0.000 C 
ENDBRANCH  12  13
ENDBRANCH  11  12
ENDBRANCH   1   9
BRANCH   2  19
ATOM     19  C   UNL     1       2.075   6.335  19.955  0.00  0.00    +0.000 A 
ATOM     20  C   UNL     1       2.457   5.808  18.723  0.00  0.00    +0.000 A 
ATOM     21  C   UNL     1       2.883   4.486  18.688  0.00  0.00    +0.000 A 
ATOM     22  C   UNL     1       2.843   3.736  19.862  0.00  0.00    +0.000 A 
ATOM     23  C   UNL     1       2.466   4.350  21.039  0.00  0.00    +0.000 A 
ATOM     24  N   UNL     1       2.075   5.637  21.123  0.00  0.00    +0.000 NA
BRANCH  21  25
ATOM     25  C   UNL     1       3.348   3.911  17.390  0.00  0.00    +0.000 C 
ATOM     26  O   UNL     1       2.550   3.258  16.737  0.00  0.00    +0.000 OA
ATOM     27  N   UNL     1       4.674   4.155  16.992  0.00  0.00    +0.000 N 
ATOM     28  C   UNL     1       5.673   4.956  17.698  0.00  0.00    +0.000 C 
ATOM     29  C   UNL     1       6.375   5.966  16.816  0.00  0.00    +0.000 C 
ATOM     30  C   UNL     1       6.884   5.332  15.533  0.00  0.00    +0.000 C 
ATOM     31  C   UNL     1       5.781   4.517  14.839  0.00  0.00    +0.000 C 
ATOM     32  C   UNL     1       6.317   3.862  13.573  0.00  0.00    +0.000 C 
ATOM     33  C   UNL     1       5.184   3.483  15.802  0.00  0.00    +0.000 C 
ENDBRANCH  21  25
ENDBRANCH   2  19
TORSDOF 5
ENDMDL
MODEL 6
REMARK VINA RESULT:      -8.9      1.232      1.498
REMARK  Name = 
REMARK  8 active torsions:
REMARK  status: ('A' for Active; 'I' for Inactive)
REMARK    1  A    between atoms: C_1  and  C_2
REMARK    2  A    between atoms: C_5  and  N_6
REMARK    3  A    between atoms: C_7  and  C_9
REMARK    4  A    between atoms: C_11  and  C_12
REMARK    5  A    between atoms: C_18  and  C_19
REMARK    6  A    between atoms: C_25  and  C_26
REMARK    7  A    between atoms: C_26  and  C_27
REMARK    8  A    between atoms: N_31  and  C_32
REMARK                            x       y       z     vdW  Elec       q    Type
REMARK                         _______ _______ _______ _____ _____    ______ ____
ROOT
ATOM      1  N   UNL     1       2.188   8.759  17.787  0.00  0.00    +0.000 N 
ATOM      2  C   UNL     1       1.530   9.231  18.919  0.00  0.00    +0.000 C 
ATOM      3  O   UNL     1       1.441   8.641  19.999  0.00  0.00    +0.000 OA
ATOM      4  H   UNL     1       2.329   9.429  17.035  0.00  0.00    +0.000 HD
ENDROOT
BRANCH   1   9
ATOM      5  C   UNL     1       4.800   3.722  16.866  0.00  0.00    +0.000 C 
ATOM      6  C   UNL     1       4.049   4.967  17.271  0.00  0.00    +0.000 A 
ATOM      7  C   UNL     1       4.743   6.161  17.052  0.00  0.00    +0.000 A 
ATOM      8  C   UNL     1       4.144   7.393  17.267  0.00  0.00    +0.000 A 
ATOM      9  C   UNL     1       2.827   7.491  17.700  0.00  0.00    +0.000 A 
ATOM     10  C   UNL     1       2.150   6.312  18.021  0.00  0.00    +0.000 A 
ATOM     11  C   UNL     1       2.750   5.028  17.832  0.00  0.00    +0.000 A 
BRANCH  11  12
ATOM     12  C   UNL     1       1.964   3.789  18.268  0.00  0.00    +0.000 C 
BRANCH  12  13
ATOM     13  C   UNL     1       2.023   3.460  19.732  0.00  0.00    +0.000 A 
ATOM     14  N   UNL     1       1.125   3.799  20.641  0.00  0.00    +0.000 NA
ATOM     15  N   UNL     1       1.465   3.201  21.833  0.00  0.00    +0.000 NA
ATOM     16  C   UNL     1       2.576   2.534  21.634  0.00  0.00    +0.000 A 
ATOM     17  N   UNL     1       3.011   2.748  20.362  0.00  0.00    +0.000 N 
ATOM     18  C   UNL     1       4.217   2.214  19.792  0.00  0.00    +0.000 C 
ENDBRANCH  12  13
ENDBRANCH  11  12
ENDBRANCH   1   9
BRANCH   2  19
ATOM     19  C   UNL     1       0.948  10.597  18.858  0.00  0.00    +0.000 A 
ATOM     20  C   UNL     1      -0.389  10.769  19.214  0.00  0.00    +0.000 A 
ATOM     21  C   UNL     1      -0.889  12.065  19.244  0.00  0.00    +0.000 A 
ATOM     22  C   UNL     1      -0.060  13.114  18.852  0.00  0.00    +0.000 A 
ATOM     23  C   UNL     1       1.256  12.848  18.533  0.00  0.00    +0.000 A 
ATOM     24  N   UNL     1       1.790  11.610  18.520  0.00  0.00    +0.000 NA
BRANCH  21  25
ATOM     25  C   UNL     1      -2.303  12.284  19.673  0.00  0.00    +0.000 C 
ATOM     26  O   UNL     1      -3.191  11.897  18.931  0.00  0.00    +0.000 OA
ATOM     27  N   UNL     1      -2.532  12.918  20.907  0.00  0.00    +0.000 N 
ATOM     28  C   UNL     1      -1.525  13.372  21.865  0.00  0.00    +0.000 C 
ATOM     29  C   UNL     1      -1.794  12.922  23.285  0.00  0.00    +0.000 C 
ATOM     30  C   UNL     1      -3.224  13.215  23.705  0.00  0.00    +0.000 C 
ATOM     31  C   UNL     1      -4.227  12.700  22.660  0.00  0.00    +0.000 C 
ATOM     32  C   UNL     1      -5.653  13.030  23.080  0.00  0.00    +0.000 C 
ATOM     33  C   UNL     1      -3.901  13.267  21.272  0.00  0.00    +0.000 C 
ENDBRANCH  21  25
ENDBRANCH   2  19
TORSDOF 5
ENDMDL
MODEL 7
REMARK VINA RESULT:      -8.9      2.060      2.863
REMARK  Name = 
REMARK  8 active torsions:
REMARK  status: ('A' for Active; 'I' for Inactive)
REMARK    1  A    between atoms: C_1  and  C_2
REMARK    2  A    between atoms: C_5  and  N_6
REMARK    3  A    between atoms: C_7  and  C_9
REMARK    4  A    between atoms: C_11  and  C_12
REMARK    5  A    between atoms: C_18  and  C_19
REMARK    6  A    between atoms: C_25  and  C_26
REMARK    7  A    between atoms: C_26  and  C_27
REMARK    8  A    between atoms: N_31  and  C_32
REMARK                            x       y       z     vdW  Elec       q    Type
REMARK                         _______ _______ _______ _____ _____    ______ ____
ROOT
ATOM      1  N   UNL     1       1.488   8.631  18.075  0.00  0.00    +0.000 N 
ATOM      2  C   UNL     1       1.066   9.125  19.306  0.00  0.00    +0.000 C 
ATOM      3  O   UNL     1       1.425   8.709  20.410  0.00  0.00    +0.000 OA
ATOM      4  H   UNL     1       1.246   9.187  17.259  0.00  0.00    +0.000 HD
ENDROOT
BRANCH   1   9
ATOM      5  C   UNL     1       5.115   4.340  16.863  0.00  0.00    +0.000 C 
ATOM      6  C   UNL     1       4.109   5.361  17.333  0.00  0.00    +0.000 A 
ATOM      7  C   UNL     1       4.550   6.687  17.259  0.00  0.00    +0.000 A 
ATOM      8  C   UNL     1       3.701   7.746  17.548  0.00  0.00    +0.000 A 
ATOM      9  C   UNL     1       2.377   7.533  17.913  0.00  0.00    +0.000 A 
ATOM     10  C   UNL     1       1.947   6.216  18.090  0.00  0.00    +0.000 A 
ATOM     11  C   UNL     1       2.805   5.104  17.823  0.00  0.00    +0.000 A 
BRANCH  11  12
ATOM     12  C   UNL     1       2.277   3.696  18.104  0.00  0.00    +0.000 C 
BRANCH  12  13
ATOM     13  C   UNL     1       2.118   3.334  19.553  0.00  0.00    +0.000 A 
ATOM     14  N   UNL     1       1.037   3.530  20.289  0.00  0.00    +0.000 NA
ATOM     15  N   UNL     1       1.236   2.944  21.519  0.00  0.00    +0.000 NA
ATOM     16  C   UNL     1       2.442   2.430  21.517  0.00  0.00    +0.000 A 
ATOM     17  N   UNL     1       3.064   2.734  20.345  0.00  0.00    +0.000 N 
ATOM     18  C   UNL     1       4.410   2.375  19.996  0.00  0.00    +0.000 C 
ENDBRANCH  12  13
ENDBRANCH  11  12
ENDBRANCH   1   9
BRANCH   2  19
ATOM     19  C   UNL     1       0.164  10.306  19.302  0.00  0.00    +0.000 A 
ATOM     20  C   UNL     1       0.216  11.189  20.378  0.00  0.00    +0.000 A 
ATOM     21  C   UNL     1      -0.564  12.337  20.312  0.00  0.00    +0.000 A 
ATOM     22  C   UNL     1      -1.406  12.515  19.216  0.00  0.00    +0.000 A 
ATOM     23  C   UNL     1      -1.376  11.593  18.188  0.00  0.00    +0.000 A 
ATOM     24  N   UNL     1      -0.612  10.483  18.199  0.00  0.00    +0.000 NA
BRANCH  21  25
ATOM     25  C   UNL     1      -0.488  13.327  21.428  0.00  0.00    +0.000 C 
ATOM     26  O   UNL     1       0.303  14.249  21.319  0.00  0.00    +0.000 OA
ATOM     27  N   UNL     1      -1.334  13.145  22.536  0.00  0.00    +0.000 N 
ATOM     28  C   UNL     1      -2.332  12.093  22.720  0.00  0.00    +0.000 C 
ATOM     29  C   UNL     1      -3.688  12.611  23.150  0.00  0.00    +0.000 C 
ATOM     30  C   UNL     1      -3.575  13.569  24.324  0.00  0.00    +0.000 C 
ATOM     31  C   UNL     1      -2.519  14.653  24.057  0.00  0.00    +0.000 C 
ATOM     32  C   UNL     1      -2.396  15.584  25.256  0.00  0.00    +0.000 C 
ATOM     33  C   UNL     1      -1.171  14.019  23.694  0.00  0.00    +0.000 C 
ENDBRANCH  21  25
ENDBRANCH   2  19
TORSDOF 5
ENDMDL
MODEL 8
REMARK VINA RESULT:      -8.9      2.781      4.149
REMARK  Name = 
REMARK  8 active torsions:
REMARK  status: ('A' for Active; 'I' for Inactive)
REMARK    1  A    between atoms: C_1  and  C_2
REMARK    2  A    between atoms: C_5  and  N_6
REMARK    3  A    between atoms: C_7  and  C_9
REMARK    4  A    between atoms: C_11  and  C_12
REMARK    5  A    between atoms: C_18  and  C_19
REMARK    6  A    between atoms: C_25  and  C_26
REMARK    7  A    between atoms: C_26  and  C_27
REMARK    8  A    between atoms: N_31  and  C_32
REMARK                            x       y       z     vdW  Elec       q    Type
REMARK                         _______ _______ _______ _____ _____    ______ ____
ROOT
ATOM      1  N   UNL     1       2.193   7.791  19.107  0.00  0.00    +0.000 N 
ATOM      2  C   UNL     1       2.066   8.890  18.262  0.00  0.00    +0.000 C 
ATOM      3  O   UNL     1       2.230   8.881  17.039  0.00  0.00    +0.000 OA
ATOM      4  H   UNL     1       1.855   7.913  20.058  0.00  0.00    +0.000 HD
ENDROOT
BRANCH   1   9
ATOM      5  C   UNL     1       3.663   2.361  17.926  0.00  0.00    +0.000 C 
ATOM      6  C   UNL     1       3.375   3.834  18.078  0.00  0.00    +0.000 A 
ATOM      7  C   UNL     1       2.062   4.134  18.456  0.00  0.00    +0.000 A 
ATOM      8  C   UNL     1       1.673   5.434  18.745  0.00  0.00    +0.000 A 
ATOM      9  C   UNL     1       2.574   6.490  18.680  0.00  0.00    +0.000 A 
ATOM     10  C   UNL     1       3.862   6.227  18.207  0.00  0.00    +0.000 A 
ATOM     11  C   UNL     1       4.285   4.901  17.879  0.00  0.00    +0.000 A 
BRANCH  11  12
ATOM     12  C   UNL     1       5.692   4.709  17.307  0.00  0.00    +0.000 C 
BRANCH  12  13
ATOM     13  C   UNL     1       6.590   5.912  17.364  0.00  0.00    +0.000 A 
ATOM     14  N   UNL     1       6.702   6.842  16.432  0.00  0.00    +0.000 NA
ATOM     15  N   UNL     1       7.518   7.842  16.911  0.00  0.00    +0.000 NA
ATOM     16  C   UNL     1       7.908   7.488  18.111  0.00  0.00    +0.000 A 
ATOM     17  N   UNL     1       7.430   6.245  18.396  0.00  0.00    +0.000 N 
ATOM     18  C   UNL     1       7.682   5.511  19.604  0.00  0.00    +0.000 C 
ENDBRANCH  12  13
ENDBRANCH  11  12
ENDBRANCH   1   9
BRANCH   2  19
ATOM     19  C   UNL     1       1.620  10.174  18.863  0.00  0.00    +0.000 A 
ATOM     20  C   UNL     1       0.815  10.134  20.000  0.00  0.00    +0.000 A 
ATOM     21  C   UNL     1       0.487  11.342  20.604  0.00  0.00    +0.000 A 
ATOM     22  C   UNL     1       0.917  12.528  20.010  0.00  0.00    +0.000 A 
ATOM     23  C   UNL     1       1.727  12.466  18.894  0.00  0.00    +0.000 A 
ATOM     24  N   UNL     1       2.093  11.316  18.295  0.00  0.00    +0.000 NA
BRANCH  21  25
ATOM     25  C   UNL     1      -0.330  11.327  21.853  0.00  0.00    +0.000 C 
ATOM     26  O   UNL     1       0.168  10.841  22.855  0.00  0.00    +0.000 OA
ATOM     27  N   UNL     1      -1.624  11.874  21.807  0.00  0.00    +0.000 N 
ATOM     28  C   UNL     1      -2.273  12.507  20.659  0.00  0.00    +0.000 C 
ATOM     29  C   UNL     1      -2.899  13.848  20.979  0.00  0.00    +0.000 C 
ATOM     30  C   UNL     1      -3.770  13.778  22.222  0.00  0.00    +0.000 C 
ATOM     31  C   UNL     1      -3.021  13.115  23.389  0.00  0.00    +0.000 C 
ATOM     32  C   UNL     1      -3.919  13.023  24.616  0.00  0.00    +0.000 C 
ATOM     33  C   UNL     1      -2.486  11.738  22.977  0.00  0.00    +0.000 C 
ENDBRANCH  21  25
ENDBRANCH   2  19
TORSDOF 5
ENDMDL
MODEL 9
REMARK VINA RESULT:      -8.9      3.078      4.873
REMARK  Name = 
REMARK  8 active torsions:
REMARK  status: ('A' for Active; 'I' for Inactive)
REMARK    1  A    between atoms: C_1  and  C_2
REMARK    2  A    between atoms: C_5  and  N_6
REMARK    3  A    between atoms: C_7  and  C_9
REMARK    4  A    between atoms: C_11  and  C_12
REMARK    5  A    between atoms: C_18  and  C_19
REMARK    6  A    between atoms: C_25  and  C_26
REMARK    7  A    between atoms: C_26  and  C_27
REMARK    8  A    between atoms: N_31  and  C_32
REMARK                            x       y       z     vdW  Elec       q    Type
REMARK                         _______ _______ _______ _____ _____    ______ ____
ROOT
ATOM      1  N   UNL     1       1.736   6.418  20.560  0.00  0.00    +0.000 N 
ATOM      2  C   UNL     1       1.721   7.670  19.951  0.00  0.00    +0.000 C 
ATOM      3  O   UNL     1       2.088   7.914  18.799  0.00  0.00    +0.000 OA
ATOM      4  H   UNL     1       1.239   6.342  21.444  0.00  0.00    +0.000 HD
ENDROOT
BRANCH   1   9
ATOM      5  C   UNL     1       3.618   1.360  18.583  0.00  0.00    +0.000 C 
ATOM      6  C   UNL     1       3.225   2.767  18.960  0.00  0.00    +0.000 A 
ATOM      7  C   UNL     1       1.880   2.921  19.311  0.00  0.00    +0.000 A 
ATOM      8  C   UNL     1       1.392   4.128  19.789  0.00  0.00    +0.000 A 
ATOM      9  C   UNL     1       2.222   5.232  19.946  0.00  0.00    +0.000 A 
ATOM     10  C   UNL     1       3.544   5.129  19.507  0.00  0.00    +0.000 A 
ATOM     11  C   UNL     1       4.069   3.904  18.988  0.00  0.00    +0.000 A 
BRANCH  11  12
ATOM     12  C   UNL     1       5.509   3.894  18.469  0.00  0.00    +0.000 C 
BRANCH  12  13
ATOM     13  C   UNL     1       5.950   5.133  17.744  0.00  0.00    +0.000 A 
ATOM     14  N   UNL     1       5.451   5.588  16.607  0.00  0.00    +0.000 NA
ATOM     15  N   UNL     1       6.022   6.811  16.339  0.00  0.00    +0.000 NA
ATOM     16  C   UNL     1       6.877   7.063  17.300  0.00  0.00    +0.000 A 
ATOM     17  N   UNL     1       6.935   5.998  18.147  0.00  0.00    +0.000 N 
ATOM     18  C   UNL     1       7.789   5.892  19.297  0.00  0.00    +0.000 C 
ENDBRANCH  12  13
ENDBRANCH  11  12
ENDBRANCH   1   9
BRANCH   2  19
ATOM     19  C   UNL     1       1.142   8.803  20.718  0.00  0.00    +0.000 A 
ATOM     20  C   UNL     1       0.643   9.899  20.016  0.00  0.00    +0.000 A 
ATOM     21  C   UNL     1       0.019  10.905  20.743  0.00  0.00    +0.000 A 
ATOM     22  C   UNL     1      -0.016  10.805  22.133  0.00  0.00    +0.000 A 
ATOM     23  C   UNL     1       0.488   9.673  22.739  0.00  0.00    +0.000 A 
ATOM     24  N   UNL     1       1.074   8.661  22.069  0.00  0.00    +0.000 NA
BRANCH  21  25
ATOM     25  C   UNL     1      -0.571  12.066  20.011  0.00  0.00    +0.000 C 
ATOM     26  O   UNL     1      -1.782  12.091  19.865  0.00  0.00    +0.000 OA
ATOM     27  N   UNL     1       0.298  13.063  19.537  0.00  0.00    +0.000 N 
ATOM     28  C   UNL     1       1.749  13.122  19.708  0.00  0.00    +0.000 C 
ATOM     29  C   UNL     1       2.247  14.460  20.211  0.00  0.00    +0.000 C 
ATOM     30  C   UNL     1       1.672  15.612  19.405  0.00  0.00    +0.000 C 
ATOM     31  C   UNL     1       0.145  15.492  19.277  0.00  0.00    +0.000 C 
ATOM     32  C   UNL     1      -0.411  16.636  18.440  0.00  0.00    +0.000 C 
ATOM     33  C   UNL     1      -0.245  14.127  18.698  0.00  0.00    +0.000 C 
ENDBRANCH  21  25
ENDBRANCH   2  19
TORSDOF 5
ENDMDL
