MODEL 1
REMARK VINA RESULT:      -8.4      0.000      0.000
REMARK  Name = 
REMARK  5 active torsions:
REMARK  status: ('A' for Active; 'I' for Inactive)
REMARK    1  A    between atoms: C_2  and  C_18
REMARK    2  A    between atoms: N_3  and  C_4
REMARK    3  A    between atoms: C_9  and  C_10
REMARK    4  A    between atoms: C_10  and  O_11
REMARK    5  A    between atoms: O_11  and  C_12
REMARK                            x       y       z     vdW  Elec       q    Type
REMARK                         _______ _______ _______ _____ _____    ______ ____
ROOT
ATOM      1  C   UNL     1       4.965   6.125  17.185  0.00  0.00    +0.000 A 
ATOM      2  C   UNL     1       5.087   6.284  15.794  0.00  0.00    +0.000 A 
ATOM      3  C   UNL     1       5.930   5.476  15.031  0.00  0.00    +0.000 A 
ATOM      4  C   UNL     1       6.704   4.511  15.652  0.00  0.00    +0.000 A 
ATOM      5  C   UNL     1       6.614   4.343  17.034  0.00  0.00    +0.000 A 
ATOM      6  C   UNL     1       5.730   5.122  17.814  0.00  0.00    +0.000 A 
ENDROOT
BRANCH   1   9
ATOM      7  O   UNL     1       2.103   5.754  17.800  0.00  0.00    +0.000 OA
ATOM      8  C   UNL     1       2.748   6.742  18.143  0.00  0.00    +0.000 C 
ATOM      9  N   UNL     1       4.097   6.957  17.937  0.00  0.00    +0.000 N 
ATOM     10  H   UNL     1       4.472   7.784  18.389  0.00  0.00    +0.000 HD
BRANCH   8  11
ATOM     11  C   UNL     1       2.085   7.815  18.883  0.00  0.00    +0.000 A 
ATOM     12  C   UNL     1       1.820   7.775  20.239  0.00  0.00    +0.000 A 
ATOM     13  N   UNL     1       1.150   8.925  20.526  0.00  0.00    +0.000 N 
ATOM     14  C   UNL     1       0.650   9.365  21.748  0.00  0.00    +0.000 A 
ATOM     15  C   UNL     1      -0.027  10.524  21.793  0.00  0.00    +0.000 A 
ATOM     16  C   UNL     1      -0.225  11.268  20.556  0.00  0.00    +0.000 A 
ATOM     17  C   UNL     1       0.280  10.841  19.381  0.00  0.00    +0.000 A 
ATOM     18  C   UNL     1       1.019   9.624  19.330  0.00  0.00    +0.000 A 
ATOM     19  N   UNL     1       1.611   8.994  18.330  0.00  0.00    +0.000 NA
ENDBRANCH   8  11
ENDBRANCH   1   9
BRANCH   6  20
ATOM     20  C   UNL     1       5.606   4.772  19.283  0.00  0.00    +0.000 C 
BRANCH  20  21
ATOM     21  O   UNL     1       5.191   3.418  19.433  0.00  0.00    +0.000 OA
BRANCH  21  22
ATOM     22  C   UNL     1       3.839   3.191  19.435  0.00  0.00    +0.000 A 
ATOM     23  C   UNL     1       2.936   3.602  20.420  0.00  0.00    +0.000 A 
ATOM     24  C   UNL     1       1.572   3.324  20.287  0.00  0.00    +0.000 A 
ATOM     25  C   UNL     1       1.101   2.633  19.173  0.00  0.00    +0.000 A 
ATOM     26  C   UNL     1       1.996   2.207  18.195  0.00  0.00    +0.000 A 
ATOM     27  C   UNL     1       3.359   2.484  18.329  0.00  0.00    +0.000 A 
ENDBRANCH  21  22
ENDBRANCH  20  21
ENDBRANCH   6  20
TORSDOF 5
ENDMDL
MODEL 2
REMARK VINA RESULT:      -8.3      0.579      1.189
REMARK  Name = 
REMARK  5 active torsions:
REMARK  status: ('A' for Active; 'I' for Inactive)
REMARK    1  A    between atoms: C_2  and  C_18
REMARK    2  A    between atoms: N_3  and  C_4
REMARK    3  A    between atoms: C_9  and  C_10
REMARK    4  A    between atoms: C_10  and  O_11
REMARK    5  A    between atoms: O_11  and  C_12
REMARK                            x       y       z     vdW  Elec       q    Type
REMARK                         _______ _______ _______ _____ _____    ______ ____
ROOT
ATOM      1  C   UNL     1       5.001   6.140  17.094  0.00  0.00    +0.000 A 
ATOM      2  C   UNL     1       5.143   6.246  15.700  0.00  0.00    +0.000 A 
ATOM      3  C   UNL     1       6.000   5.413  14.981  0.00  0.00    +0.000 A 
ATOM      4  C   UNL     1       6.770   4.477  15.651  0.00  0.00    +0.000 A 
ATOM      5  C   UNL     1       6.660   4.362  17.036  0.00  0.00    +0.000 A 
ATOM      6  C   UNL     1       5.760   5.166  17.773  0.00  0.00    +0.000 A 
ENDROOT
BRANCH   1   9
ATOM      7  O   UNL     1       2.176   5.702  17.827  0.00  0.00    +0.000 OA
ATOM      8  C   UNL     1       2.785   6.743  18.065  0.00  0.00    +0.000 C 
ATOM      9  N   UNL     1       4.117   6.996  17.799  0.00  0.00    +0.000 N 
ATOM     10  H   UNL     1       4.468   7.874  18.169  0.00  0.00    +0.000 HD
BRANCH   8  11
ATOM     11  C   UNL     1       2.096   7.846  18.733  0.00  0.00    +0.000 A 
ATOM     12  C   UNL     1       1.711   9.015  18.105  0.00  0.00    +0.000 A 
ATOM     13  N   UNL     1       1.160   9.799  19.072  0.00  0.00    +0.000 N 
ATOM     14  C   UNL     1       0.626  11.080  18.963  0.00  0.00    +0.000 A 
ATOM     15  C   UNL     1       0.172  11.691  20.070  0.00  0.00    +0.000 A 
ATOM     16  C   UNL     1       0.273  10.995  21.346  0.00  0.00    +0.000 A 
ATOM     17  C   UNL     1       0.776   9.747  21.436  0.00  0.00    +0.000 A 
ATOM     18  C   UNL     1       1.237   9.083  20.263  0.00  0.00    +0.000 A 
ATOM     19  N   UNL     1       1.761   7.884  20.078  0.00  0.00    +0.000 NA
ENDBRANCH   8  11
ENDBRANCH   1   9
BRANCH   6  20
ATOM     20  C   UNL     1       5.616   4.873  19.253  0.00  0.00    +0.000 C 
BRANCH  20  21
ATOM     21  O   UNL     1       5.295   3.500  19.452  0.00  0.00    +0.000 OA
BRANCH  21  22
ATOM     22  C   UNL     1       3.966   3.169  19.389  0.00  0.00    +0.000 A 
ATOM     23  C   UNL     1       3.001   3.442  20.363  0.00  0.00    +0.000 A 
ATOM     24  C   UNL     1       1.668   3.068  20.160  0.00  0.00    +0.000 A 
ATOM     25  C   UNL     1       1.291   2.419  18.986  0.00  0.00    +0.000 A 
ATOM     26  C   UNL     1       2.249   2.131  18.018  0.00  0.00    +0.000 A 
ATOM     27  C   UNL     1       3.580   2.503  18.221  0.00  0.00    +0.000 A 
ENDBRANCH  21  22
ENDBRANCH  20  21
ENDBRANCH   6  20
TORSDOF 5
ENDMDL
MODEL 3
REMARK VINA RESULT:      -8.1      0.657      1.535
REMARK  Name = 
REMARK  5 active torsions:
REMARK  status: ('A' for Active; 'I' for Inactive)
REMARK    1  A    between atoms: C_2  and  C_18
REMARK    2  A    between atoms: N_3  and  C_4
REMARK    3  A    between atoms: C_9  and  C_10
REMARK    4  A    between atoms: C_10  and  O_11
REMARK    5  A    between atoms: O_11  and  C_12
REMARK                            x       y       z     vdW  Elec       q    Type
REMARK                         _______ _______ _______ _____ _____    ______ ____
ROOT
ATOM      1  C   UNL     1       4.962   6.104  17.166  0.00  0.00    +0.000 A 
ATOM      2  C   UNL     1       5.066   6.304  15.779  0.00  0.00    +0.000 A 
ATOM      3  C   UNL     1       5.911   5.530  14.984  0.00  0.00    +0.000 A 
ATOM      4  C   UNL     1       6.705   4.558  15.569  0.00  0.00    +0.000 A 
ATOM      5  C   UNL     1       6.632   4.349  16.946  0.00  0.00    +0.000 A 
ATOM      6  C   UNL     1       5.747   5.094  17.758  0.00  0.00    +0.000 A 
ENDROOT
BRANCH   1   9
ATOM      7  O   UNL     1       2.112   5.675  17.801  0.00  0.00    +0.000 OA
ATOM      8  C   UNL     1       2.747   6.663  18.165  0.00  0.00    +0.000 C 
ATOM      9  N   UNL     1       4.091   6.902  17.950  0.00  0.00    +0.000 N 
ATOM     10  H   UNL     1       4.460   7.721  18.422  0.00  0.00    +0.000 HD
BRANCH   8  11
ATOM     11  C   UNL     1       2.078   7.705  18.942  0.00  0.00    +0.000 A 
ATOM     12  C   UNL     1       1.800   8.972  18.466  0.00  0.00    +0.000 A 
ATOM     13  N   UNL     1       1.231   9.648  19.502  0.00  0.00    +0.000 N 
ATOM     14  C   UNL     1       0.776  10.963  19.545  0.00  0.00    +0.000 A 
ATOM     15  C   UNL     1       0.287  11.443  20.700  0.00  0.00    +0.000 A 
ATOM     16  C   UNL     1       0.267  10.572  21.868  0.00  0.00    +0.000 A 
ATOM     17  C   UNL     1       0.693   9.294  21.809  0.00  0.00    +0.000 A 
ATOM     18  C   UNL     1       1.192   8.771  20.581  0.00  0.00    +0.000 A 
ATOM     19  N   UNL     1       1.660   7.578  20.258  0.00  0.00    +0.000 NA
ENDBRANCH   8  11
ENDBRANCH   1   9
BRANCH   6  20
ATOM     20  C   UNL     1       5.643   4.701  19.218  0.00  0.00    +0.000 C 
BRANCH  20  21
ATOM     21  O   UNL     1       5.121   3.381  19.336  0.00  0.00    +0.000 OA
BRANCH  21  22
ATOM     22  C   UNL     1       3.784   3.279  19.623  0.00  0.00    +0.000 A 
ATOM     23  C   UNL     1       2.893   2.349  19.080  0.00  0.00    +0.000 A 
ATOM     24  C   UNL     1       1.552   2.339  19.480  0.00  0.00    +0.000 A 
ATOM     25  C   UNL     1       1.093   3.257  20.421  0.00  0.00    +0.000 A 
ATOM     26  C   UNL     1       1.971   4.196  20.956  0.00  0.00    +0.000 A 
ATOM     27  C   UNL     1       3.310   4.207  20.555  0.00  0.00    +0.000 A 
ENDBRANCH  21  22
ENDBRANCH  20  21
ENDBRANCH   6  20
TORSDOF 5
ENDMDL
MODEL 4
REMARK VINA RESULT:      -8.0      2.314      7.463
REMARK  Name = 
REMARK  5 active torsions:
REMARK  status: ('A' for Active; 'I' for Inactive)
REMARK    1  A    between atoms: C_2  and  C_18
REMARK    2  A    between atoms: N_3  and  C_4
REMARK    3  A    between atoms: C_9  and  C_10
REMARK    4  A    between atoms: C_10  and  O_11
REMARK    5  A    between atoms: O_11  and  C_12
REMARK                            x       y       z     vdW  Elec       q    Type
REMARK                         _______ _______ _______ _____ _____    ______ ____
ROOT
ATOM      1  C   UNL     1       3.512   3.547  19.175  0.00  0.00    +0.000 A 
ATOM      2  C   UNL     1       3.802   2.555  20.127  0.00  0.00    +0.000 A 
ATOM      3  C   UNL     1       3.076   2.436  21.312  0.00  0.00    +0.000 A 
ATOM      4  C   UNL     1       2.063   3.338  21.590  0.00  0.00    +0.000 A 
ATOM      5  C   UNL     1       1.764   4.342  20.669  0.00  0.00    +0.000 A 
ATOM      6  C   UNL     1       2.460   4.446  19.443  0.00  0.00    +0.000 A 
ENDROOT
BRANCH   1   9
ATOM      7  O   UNL     1       5.991   5.058  18.647  0.00  0.00    +0.000 OA
ATOM      8  C   UNL     1       5.394   4.414  17.788  0.00  0.00    +0.000 C 
ATOM      9  N   UNL     1       4.263   3.643  17.976  0.00  0.00    +0.000 N 
ATOM     10  H   UNL     1       3.979   3.097  17.169  0.00  0.00    +0.000 HD
BRANCH   8  11
ATOM     11  C   UNL     1       5.907   4.387  16.419  0.00  0.00    +0.000 A 
ATOM     12  C   UNL     1       6.871   5.250  15.934  0.00  0.00    +0.000 A 
ATOM     13  N   UNL     1       7.026   4.939  14.617  0.00  0.00    +0.000 N 
ATOM     14  C   UNL     1       7.870   5.518  13.674  0.00  0.00    +0.000 A 
ATOM     15  C   UNL     1       7.825   5.080  12.406  0.00  0.00    +0.000 A 
ATOM     16  C   UNL     1       6.882   4.024  12.062  0.00  0.00    +0.000 A 
ATOM     17  C   UNL     1       6.081   3.458  12.988  0.00  0.00    +0.000 A 
ATOM     18  C   UNL     1       6.140   3.902  14.341  0.00  0.00    +0.000 A 
ATOM     19  N   UNL     1       5.482   3.523  15.422  0.00  0.00    +0.000 NA
ENDBRANCH   8  11
ENDBRANCH   1   9
BRANCH   6  20
ATOM     20  C   UNL     1       1.972   5.484  18.452  0.00  0.00    +0.000 C 
BRANCH  20  21
ATOM     21  O   UNL     1       2.776   6.657  18.535  0.00  0.00    +0.000 OA
BRANCH  21  22
ATOM     22  C   UNL     1       2.139   7.805  18.930  0.00  0.00    +0.000 A 
ATOM     23  C   UNL     1       1.669   8.086  20.216  0.00  0.00    +0.000 A 
ATOM     24  C   UNL     1       1.055   9.313  20.491  0.00  0.00    +0.000 A 
ATOM     25  C   UNL     1       0.903  10.264  19.484  0.00  0.00    +0.000 A 
ATOM     26  C   UNL     1       1.355   9.986  18.197  0.00  0.00    +0.000 A 
ATOM     27  C   UNL     1       1.968   8.760  17.923  0.00  0.00    +0.000 A 
ENDBRANCH  21  22
ENDBRANCH  20  21
ENDBRANCH   6  20
TORSDOF 5
ENDMDL
MODEL 5
REMARK VINA RESULT:      -8.0      1.339      1.983
REMARK  Name = 
REMARK  5 active torsions:
REMARK  status: ('A' for Active; 'I' for Inactive)
REMARK    1  A    between atoms: C_2  and  C_18
REMARK    2  A    between atoms: N_3  and  C_4
REMARK    3  A    between atoms: C_9  and  C_10
REMARK    4  A    between atoms: C_10  and  O_11
REMARK    5  A    between atoms: O_11  and  C_12
REMARK                            x       y       z     vdW  Elec       q    Type
REMARK                         _______ _______ _______ _____ _____    ______ ____
ROOT
ATOM      1  C   UNL     1       4.788   5.977  17.599  0.00  0.00    +0.000 A 
ATOM      2  C   UNL     1       6.055   6.555  17.414  0.00  0.00    +0.000 A 
ATOM      3  C   UNL     1       7.063   5.908  16.699  0.00  0.00    +0.000 A 
ATOM      4  C   UNL     1       6.837   4.643  16.184  0.00  0.00    +0.000 A 
ATOM      5  C   UNL     1       5.593   4.040  16.367  0.00  0.00    +0.000 A 
ATOM      6  C   UNL     1       4.546   4.702  17.048  0.00  0.00    +0.000 A 
ENDROOT
BRANCH   1   9
ATOM      7  O   UNL     1       2.981   8.131  16.701  0.00  0.00    +0.000 OA
ATOM      8  C   UNL     1       3.001   7.697  17.851  0.00  0.00    +0.000 C 
ATOM      9  N   UNL     1       3.779   6.659  18.326  0.00  0.00    +0.000 N 
ATOM     10  H   UNL     1       3.576   6.372  19.278  0.00  0.00    +0.000 HD
BRANCH   8  11
ATOM     11  C   UNL     1       2.103   8.269  18.853  0.00  0.00    +0.000 A 
ATOM     12  C   UNL     1       1.370   9.425  18.669  0.00  0.00    +0.000 A 
ATOM     13  N   UNL     1       0.715   9.647  19.843  0.00  0.00    +0.000 N 
ATOM     14  C   UNL     1      -0.148  10.685  20.182  0.00  0.00    +0.000 A 
ATOM     15  C   UNL     1      -0.650  10.732  21.427  0.00  0.00    +0.000 A 
ATOM     16  C   UNL     1      -0.260   9.701  22.379  0.00  0.00    +0.000 A 
ATOM     17  C   UNL     1       0.563   8.690  22.033  0.00  0.00    +0.000 A 
ATOM     18  C   UNL     1       1.081   8.621  20.708  0.00  0.00    +0.000 A 
ATOM     19  N   UNL     1       1.887   7.753  20.121  0.00  0.00    +0.000 NA
ENDBRANCH   8  11
ENDBRANCH   1   9
BRANCH   6  20
ATOM     20  C   UNL     1       3.193   4.020  17.077  0.00  0.00    +0.000 C 
BRANCH  20  21
ATOM     21  O   UNL     1       3.269   2.810  17.824  0.00  0.00    +0.000 OA
BRANCH  21  22
ATOM     22  C   UNL     1       2.746   2.842  19.091  0.00  0.00    +0.000 A 
ATOM     23  C   UNL     1       3.391   2.427  20.259  0.00  0.00    +0.000 A 
ATOM     24  C   UNL     1       2.748   2.536  21.497  0.00  0.00    +0.000 A 
ATOM     25  C   UNL     1       1.458   3.058  21.576  0.00  0.00    +0.000 A 
ATOM     26  C   UNL     1       0.804   3.460  20.414  0.00  0.00    +0.000 A 
ATOM     27  C   UNL     1       1.446   3.348  19.178  0.00  0.00    +0.000 A 
ENDBRANCH  21  22
ENDBRANCH  20  21
ENDBRANCH   6  20
TORSDOF 5
ENDMDL
MODEL 6
REMARK VINA RESULT:      -8.0      1.532      2.510
REMARK  Name = 
REMARK  5 active torsions:
REMARK  status: ('A' for Active; 'I' for Inactive)
REMARK    1  A    between atoms: C_2  and  C_18
REMARK    2  A    between atoms: N_3  and  C_4
REMARK    3  A    between atoms: C_9  and  C_10
REMARK    4  A    between atoms: C_10  and  O_11
REMARK    5  A    between atoms: O_11  and  C_12
REMARK                            x       y       z     vdW  Elec       q    Type
REMARK                         _______ _______ _______ _____ _____    ______ ____
ROOT
ATOM      1  C   UNL     1       3.635   6.203  17.921  0.00  0.00    +0.000 A 
ATOM      2  C   UNL     1       4.954   6.628  17.691  0.00  0.00    +0.000 A 
ATOM      3  C   UNL     1       5.837   5.895  16.898  0.00  0.00    +0.000 A 
ATOM      4  C   UNL     1       5.428   4.692  16.347  0.00  0.00    +0.000 A 
ATOM      5  C   UNL     1       4.128   4.240  16.572  0.00  0.00    +0.000 A 
ATOM      6  C   UNL     1       3.208   4.994  17.334  0.00  0.00    +0.000 A 
ENDROOT
BRANCH   1   9
ATOM      7  O   UNL     1       2.327   8.778  17.318  0.00  0.00    +0.000 OA
ATOM      8  C   UNL     1       2.218   8.199  18.396  0.00  0.00    +0.000 C 
ATOM      9  N   UNL     1       2.757   6.970  18.728  0.00  0.00    +0.000 N 
ATOM     10  H   UNL     1       2.466   6.605  19.629  0.00  0.00    +0.000 HD
BRANCH   8  11
ATOM     11  C   UNL     1       1.417   8.800  19.461  0.00  0.00    +0.000 A 
ATOM     12  C   UNL     1       0.735   9.995  19.340  0.00  0.00    +0.000 A 
ATOM     13  N   UNL     1       0.168  10.231  20.555  0.00  0.00    +0.000 N 
ATOM     14  C   UNL     1      -0.615  11.307  20.963  0.00  0.00    +0.000 A 
ATOM     15  C   UNL     1      -1.035  11.358  22.238  0.00  0.00    +0.000 A 
ATOM     16  C   UNL     1      -0.640  10.293  23.149  0.00  0.00    +0.000 A 
ATOM     17  C   UNL     1       0.104   9.246  22.738  0.00  0.00    +0.000 A 
ATOM     18  C   UNL     1       0.534   9.173  21.382  0.00  0.00    +0.000 A 
ATOM     19  N   UNL     1       1.254   8.274  20.734  0.00  0.00    +0.000 NA
ENDBRANCH   8  11
ENDBRANCH   1   9
BRANCH   6  20
ATOM     20  C   UNL     1       1.783   4.485  17.409  0.00  0.00    +0.000 C 
BRANCH  20  21
ATOM     21  O   UNL     1       1.769   3.123  17.825  0.00  0.00    +0.000 OA
BRANCH  21  22
ATOM     22  C   UNL     1       2.052   2.886  19.145  0.00  0.00    +0.000 A 
ATOM     23  C   UNL     1       3.279   2.457  19.661  0.00  0.00    +0.000 A 
ATOM     24  C   UNL     1       3.440   2.275  21.039  0.00  0.00    +0.000 A 
ATOM     25  C   UNL     1       2.379   2.519  21.909  0.00  0.00    +0.000 A 
ATOM     26  C   UNL     1       1.151   2.932  21.402  0.00  0.00    +0.000 A 
ATOM     27  C   UNL     1       0.989   3.111  20.025  0.00  0.00    +0.000 A 
ENDBRANCH  21  22
ENDBRANCH  20  21
ENDBRANCH   6  20
TORSDOF 5
ENDMDL
MODEL 7
REMARK VINA RESULT:      -7.9      1.322      2.028
REMARK  Name = 
REMARK  5 active torsions:
REMARK  status: ('A' for Active; 'I' for Inactive)
REMARK    1  A    between atoms: C_2  and  C_18
REMARK    2  A    between atoms: N_3  and  C_4
REMARK    3  A    between atoms: C_9  and  C_10
REMARK    4  A    between atoms: C_10  and  O_11
REMARK    5  A    between atoms: O_11  and  C_12
REMARK                            x       y       z     vdW  Elec       q    Type
REMARK                         _______ _______ _______ _____ _____    ______ ____
ROOT
ATOM      1  C   UNL     1       4.807   5.637  16.830  0.00  0.00    +0.000 A 
ATOM      2  C   UNL     1       6.066   6.118  16.435  0.00  0.00    +0.000 A 
ATOM      3  C   UNL     1       6.977   5.320  15.744  0.00  0.00    +0.000 A 
ATOM      4  C   UNL     1       6.661   4.000  15.466  0.00  0.00    +0.000 A 
ATOM      5  C   UNL     1       5.423   3.493  15.861  0.00  0.00    +0.000 A 
ATOM      6  C   UNL     1       4.471   4.303  16.520  0.00  0.00    +0.000 A 
ENDROOT
BRANCH   1   9
ATOM      7  O   UNL     1       4.174   5.702  19.712  0.00  0.00    +0.000 OA
ATOM      8  C   UNL     1       3.615   6.412  18.879  0.00  0.00    +0.000 C 
ATOM      9  N   UNL     1       3.897   6.472  17.527  0.00  0.00    +0.000 N 
ATOM     10  H   UNL     1       3.404   7.200  17.020  0.00  0.00    +0.000 HD
BRANCH   8  11
ATOM     11  C   UNL     1       2.567   7.337  19.306  0.00  0.00    +0.000 A 
ATOM     12  C   UNL     1       2.102   8.391  18.542  0.00  0.00    +0.000 A 
ATOM     13  N   UNL     1       1.182   9.036  19.310  0.00  0.00    +0.000 N 
ATOM     14  C   UNL     1       0.427  10.166  19.009  0.00  0.00    +0.000 A 
ATOM     15  C   UNL     1      -0.397  10.665  19.945  0.00  0.00    +0.000 A 
ATOM     16  C   UNL     1      -0.458  10.012  21.245  0.00  0.00    +0.000 A 
ATOM     17  C   UNL     1       0.265   8.907  21.519  0.00  0.00    +0.000 A 
ATOM     18  C   UNL     1       1.124   8.359  20.524  0.00  0.00    +0.000 A 
ATOM     19  N   UNL     1       1.921   7.304  20.532  0.00  0.00    +0.000 NA
ENDBRANCH   8  11
ENDBRANCH   1   9
BRANCH   6  20
ATOM     20  C   UNL     1       3.107   3.699  16.786  0.00  0.00    +0.000 C 
BRANCH  20  21
ATOM     21  O   UNL     1       3.212   2.653  17.747  0.00  0.00    +0.000 OA
BRANCH  21  22
ATOM     22  C   UNL     1       2.605   2.873  18.956  0.00  0.00    +0.000 A 
ATOM     23  C   UNL     1       1.366   3.487  19.157  0.00  0.00    +0.000 A 
ATOM     24  C   UNL     1       0.849   3.628  20.449  0.00  0.00    +0.000 A 
ATOM     25  C   UNL     1       1.566   3.160  21.548  0.00  0.00    +0.000 A 
ATOM     26  C   UNL     1       2.808   2.561  21.358  0.00  0.00    +0.000 A 
ATOM     27  C   UNL     1       3.325   2.422  20.067  0.00  0.00    +0.000 A 
ENDBRANCH  21  22
ENDBRANCH  20  21
ENDBRANCH   6  20
TORSDOF 5
ENDMDL
MODEL 8
REMARK VINA RESULT:      -7.9      2.324      7.539
REMARK  Name = 
REMARK  5 active torsions:
REMARK  status: ('A' for Active; 'I' for Inactive)
REMARK    1  A    between atoms: C_2  and  C_18
REMARK    2  A    between atoms: N_3  and  C_4
REMARK    3  A    between atoms: C_9  and  C_10
REMARK    4  A    between atoms: C_10  and  O_11
REMARK    5  A    between atoms: O_11  and  C_12
REMARK                            x       y       z     vdW  Elec       q    Type
REMARK                         _______ _______ _______ _____ _____    ______ ____
ROOT
ATOM      1  C   UNL     1       3.552   3.667  19.248  0.00  0.00    +0.000 A 
ATOM      2  C   UNL     1       3.715   2.580  20.124  0.00  0.00    +0.000 A 
ATOM      3  C   UNL     1       3.007   2.487  21.321  0.00  0.00    +0.000 A 
ATOM      4  C   UNL     1       2.144   3.505  21.690  0.00  0.00    +0.000 A 
ATOM      5  C   UNL     1       1.975   4.602  20.846  0.00  0.00    +0.000 A 
ATOM      6  C   UNL     1       2.650   4.689  19.607  0.00  0.00    +0.000 A 
ENDROOT
BRANCH   1   9
ATOM      7  O   UNL     1       6.103   5.039  18.683  0.00  0.00    +0.000 OA
ATOM      8  C   UNL     1       5.451   4.441  17.829  0.00  0.00    +0.000 C 
ATOM      9  N   UNL     1       4.281   3.734  18.033  0.00  0.00    +0.000 N 
ATOM     10  H   UNL     1       3.949   3.216  17.227  0.00  0.00    +0.000 HD
BRANCH   8  11
ATOM     11  C   UNL     1       5.931   4.403  16.449  0.00  0.00    +0.000 A 
ATOM     12  C   UNL     1       6.920   5.229  15.947  0.00  0.00    +0.000 A 
ATOM     13  N   UNL     1       7.032   4.921  14.626  0.00  0.00    +0.000 N 
ATOM     14  C   UNL     1       7.879   5.472  13.668  0.00  0.00    +0.000 A 
ATOM     15  C   UNL     1       7.788   5.044  12.398  0.00  0.00    +0.000 A 
ATOM     16  C   UNL     1       6.794   4.031  12.069  0.00  0.00    +0.000 A 
ATOM     17  C   UNL     1       5.992   3.491  13.010  0.00  0.00    +0.000 A 
ATOM     18  C   UNL     1       6.099   3.924  14.363  0.00  0.00    +0.000 A 
ATOM     19  N   UNL     1       5.449   3.564  15.457  0.00  0.00    +0.000 NA
ENDBRANCH   8  11
ENDBRANCH   1   9
BRANCH   6  20
ATOM     20  C   UNL     1       2.298   5.852  18.702  0.00  0.00    +0.000 C 
BRANCH  20  21
ATOM     21  O   UNL     1       2.790   7.069  19.253  0.00  0.00    +0.000 OA
BRANCH  21  22
ATOM     22  C   UNL     1       1.938   8.143  19.216  0.00  0.00    +0.000 A 
ATOM     23  C   UNL     1       1.645   8.924  18.094  0.00  0.00    +0.000 A 
ATOM     24  C   UNL     1       0.735   9.982  18.189  0.00  0.00    +0.000 A 
ATOM     25  C   UNL     1       0.114  10.268  19.403  0.00  0.00    +0.000 A 
ATOM     26  C   UNL     1       0.412   9.504  20.529  0.00  0.00    +0.000 A 
ATOM     27  C   UNL     1       1.323   8.448  20.434  0.00  0.00    +0.000 A 
ENDBRANCH  21  22
ENDBRANCH  20  21
ENDBRANCH   6  20
TORSDOF 5
ENDMDL
MODEL 9
REMARK VINA RESULT:      -7.9      2.380      7.452
REMARK  Name = 
REMARK  5 active torsions:
REMARK  status: ('A' for Active; 'I' for Inactive)
REMARK    1  A    between atoms: C_2  and  C_18
REMARK    2  A    between atoms: N_3  and  C_4
REMARK    3  A    between atoms: C_9  and  C_10
REMARK    4  A    between atoms: C_10  and  O_11
REMARK    5  A    between atoms: O_11  and  C_12
REMARK                            x       y       z     vdW  Elec       q    Type
REMARK                         _______ _______ _______ _____ _____    ______ ____
ROOT
ATOM      1  C   UNL     1       3.856   3.387  19.008  0.00  0.00    +0.000 A 
ATOM      2  C   UNL     1       4.292   2.404  19.912  0.00  0.00    +0.000 A 
ATOM      3  C   UNL     1       3.648   2.185  21.130  0.00  0.00    +0.000 A 
ATOM      4  C   UNL     1       2.571   2.977  21.489  0.00  0.00    +0.000 A 
ATOM      5  C   UNL     1       2.127   3.970  20.616  0.00  0.00    +0.000 A 
ATOM      6  C   UNL     1       2.739   4.173  19.358  0.00  0.00    +0.000 A 
ENDROOT
BRANCH   1   9
ATOM      7  O   UNL     1       6.278   4.974  18.439  0.00  0.00    +0.000 OA
ATOM      8  C   UNL     1       5.633   4.386  17.573  0.00  0.00    +0.000 C 
ATOM      9  N   UNL     1       4.526   3.585  17.774  0.00  0.00    +0.000 N 
ATOM     10  H   UNL     1       4.196   3.096  16.947  0.00  0.00    +0.000 HD
BRANCH   8  11
ATOM     11  C   UNL     1       6.056   4.472  16.176  0.00  0.00    +0.000 A 
ATOM     12  C   UNL     1       5.592   3.643  15.172  0.00  0.00    +0.000 A 
ATOM     13  N   UNL     1       6.264   4.005  14.044  0.00  0.00    +0.000 N 
ATOM     14  C   UNL     1       6.170   3.475  12.761  0.00  0.00    +0.000 A 
ATOM     15  C   UNL     1       6.970   3.960  11.797  0.00  0.00    +0.000 A 
ATOM     16  C   UNL     1       7.918   5.012  12.138  0.00  0.00    +0.000 A 
ATOM     17  C   UNL     1       7.987   5.531  13.381  0.00  0.00    +0.000 A 
ATOM     18  C   UNL     1       7.125   5.037  14.402  0.00  0.00    +0.000 A 
ATOM     19  N   UNL     1       6.990   5.366  15.675  0.00  0.00    +0.000 NA
ENDBRANCH   8  11
ENDBRANCH   1   9
BRANCH   6  20
ATOM     20  C   UNL     1       2.100   5.183  18.427  0.00  0.00    +0.000 C 
BRANCH  20  21
ATOM     21  O   UNL     1       2.863   6.385  18.409  0.00  0.00    +0.000 OA
BRANCH  21  22
ATOM     22  C   UNL     1       2.228   7.517  18.850  0.00  0.00    +0.000 A 
ATOM     23  C   UNL     1       1.755   7.745  20.146  0.00  0.00    +0.000 A 
ATOM     24  C   UNL     1       1.143   8.960  20.470  0.00  0.00    +0.000 A 
ATOM     25  C   UNL     1       0.996   9.953  19.504  0.00  0.00    +0.000 A 
ATOM     26  C   UNL     1       1.451   9.728  18.208  0.00  0.00    +0.000 A 
ATOM     27  C   UNL     1       2.062   8.513  17.884  0.00  0.00    +0.000 A 
ENDBRANCH  21  22
ENDBRANCH  20  21
ENDBRANCH   6  20
TORSDOF 5
ENDMDL
