MODEL 1
REMARK VINA RESULT:      -8.6      0.000      0.000
REMARK  Name = 
REMARK  9 active torsions:
REMARK  status: ('A' for Active; 'I' for Inactive)
REMARK    1  A    between atoms: C_1  and  O_2
REMARK    2  A    between atoms: O_2  and  C_3
REMARK    3  A    between atoms: C_6  and  C_7
REMARK    4  A    between atoms: C_10  and  C_11
REMARK    5  A    between atoms: C_11  and  C_12
REMARK    6  A    between atoms: C_12  and  C_13
REMARK    7  A    between atoms: N_15  and  C_16
REMARK    8  A    between atoms: C_16  and  C_17
REMARK    9  A    between atoms: C_17  and  C_18
REMARK                            x       y       z     vdW  Elec       q    Type
REMARK                         _______ _______ _______ _____ _____    ______ ____
ROOT
ATOM      1  C   UNL     1       7.419   6.230  17.798  0.00  0.00    +0.000 C 
ATOM      2  O   UNL     1       7.841   5.074  17.719  0.00  0.00    +0.000 OA
ATOM      3  N   UNL     1       6.201   6.557  17.218  0.00  0.00    +0.000 N 
ATOM      4  H   UNL     1       5.905   7.539  17.256  0.00  0.00    +0.000 HD
ENDROOT
BRANCH   1   5
ATOM      5  C   UNL     1       8.200   7.314  18.500  0.00  0.00    +0.000 C 
BRANCH   5   6
ATOM      6  C   UNL     1       7.986   8.634  17.773  0.00  0.00    +0.000 C 
BRANCH   6  10
ATOM      7  C   UNL     1       9.575  11.653  18.905  0.00  0.00    +0.000 A 
ATOM      8  N   UNL     1       9.746  10.894  19.996  0.00  0.00    +0.000 NA
ATOM      9  O   UNL     1       9.170   9.670  19.652  0.00  0.00    +0.000 OA
ATOM     10  C   UNL     1       8.717   9.794  18.369  0.00  0.00    +0.000 A 
ATOM     11  N   UNL     1       8.931  10.993  17.868  0.00  0.00    +0.000 NA
BRANCH   7  15
ATOM     12  C   UNL     1      10.868  15.734  18.601  0.00  0.00    +0.000 A 
ATOM     13  C   UNL     1      10.713  14.965  17.447  0.00  0.00    +0.000 A 
ATOM     14  C   UNL     1      10.290  13.629  17.528  0.00  0.00    +0.000 A 
ATOM     15  C   UNL     1      10.037  13.036  18.772  0.00  0.00    +0.000 A 
ATOM     16  C   UNL     1      10.229  13.811  19.927  0.00  0.00    +0.000 A 
ATOM     17  C   UNL     1      10.635  15.149  19.845  0.00  0.00    +0.000 A 
BRANCH  12  19
ATOM     18  C   UNL     1      10.645  17.749  17.379  0.00  0.00    +0.000 C 
ATOM     19  O   UNL     1      11.304  17.016  18.408  0.00  0.00    +0.000 OA
ENDBRANCH  12  19
ENDBRANCH   7  15
ENDBRANCH   6  10
ENDBRANCH   5   6
ENDBRANCH   1   5
BRANCH   3  20
ATOM     20  C   UNL     1       5.411   5.515  16.506  0.00  0.00    +0.000 C 
BRANCH  20  21
ATOM     21  C   UNL     1       3.947   5.497  16.979  0.00  0.00    +0.000 C 
BRANCH  21  22
ATOM     22  C   UNL     1       3.336   5.451  18.383  0.00  0.00    +0.000 A 
ATOM     23  C   UNL     1       2.916   6.774  18.738  0.00  0.00    +0.000 A 
ATOM     24  C   UNL     1       2.212   7.051  19.899  0.00  0.00    +0.000 A 
ATOM     25  C   UNL     1       1.681   5.994  20.579  0.00  0.00    +0.000 A 
ATOM     26  C   UNL     1       1.948   4.707  20.132  0.00  0.00    +0.000 A 
ATOM     27  C   UNL     1       1.211   3.689  20.697  0.00  0.00    +0.000 A 
ATOM     28  C   UNL     1       2.007   2.910  21.485  0.00  0.00    +0.000 A 
ATOM     29  C   UNL     1       3.193   2.581  20.879  0.00  0.00    +0.000 A 
ATOM     30  N   UNL     1       3.620   3.176  19.676  0.00  0.00    +0.000 NA
ATOM     31  C   UNL     1       3.026   4.388  19.298  0.00  0.00    +0.000 A 
ENDBRANCH  21  22
ENDBRANCH  20  21
ENDBRANCH   3  20
TORSDOF 8
ENDMDL
MODEL 2
REMARK VINA RESULT:      -8.5      5.643      8.098
REMARK  Name = 
REMARK  9 active torsions:
REMARK  status: ('A' for Active; 'I' for Inactive)
REMARK    1  A    between atoms: C_1  and  O_2
REMARK    2  A    between atoms: O_2  and  C_3
REMARK    3  A    between atoms: C_6  and  C_7
REMARK    4  A    between atoms: C_10  and  C_11
REMARK    5  A    between atoms: C_11  and  C_12
REMARK    6  A    between atoms: C_12  and  C_13
REMARK    7  A    between atoms: N_15  and  C_16
REMARK    8  A    between atoms: C_16  and  C_17
REMARK    9  A    between atoms: C_17  and  C_18
REMARK                            x       y       z     vdW  Elec       q    Type
REMARK                         _______ _______ _______ _____ _____    ______ ____
ROOT
ATOM      1  C   UNL     1       2.627   2.414  19.719  0.00  0.00    +0.000 C 
ATOM      2  O   UNL     1       3.812   2.144  19.926  0.00  0.00    +0.000 OA
ATOM      3  N   UNL     1       2.168   2.534  18.414  0.00  0.00    +0.000 N 
ATOM      4  H   UNL     1       1.190   2.811  18.277  0.00  0.00    +0.000 HD
ENDROOT
BRANCH   1   5
ATOM      5  C   UNL     1       1.653   2.635  20.850  0.00  0.00    +0.000 C 
BRANCH   5   6
ATOM      6  C   UNL     1       2.103   3.837  21.669  0.00  0.00    +0.000 C 
BRANCH   6  10
ATOM      7  C   UNL     1       1.913   7.105  20.186  0.00  0.00    +0.000 A 
ATOM      8  N   UNL     1       2.865   6.569  19.410  0.00  0.00    +0.000 NA
ATOM      9  O   UNL     1       3.008   5.269  19.898  0.00  0.00    +0.000 OA
ATOM     10  C   UNL     1       2.109   5.129  20.918  0.00  0.00    +0.000 A 
ATOM     11  N   UNL     1       1.420   6.229  21.142  0.00  0.00    +0.000 NA
BRANCH   7  15
ATOM     12  C   UNL     1       0.473  11.120  19.706  0.00  0.00    +0.000 A 
ATOM     13  C   UNL     1       0.369  10.486  20.945  0.00  0.00    +0.000 A 
ATOM     14  C   UNL     1       0.835   9.174  21.120  0.00  0.00    +0.000 A 
ATOM     15  C   UNL     1       1.395   8.468  20.047  0.00  0.00    +0.000 A 
ATOM     16  C   UNL     1       1.463   9.105  18.798  0.00  0.00    +0.000 A 
ATOM     17  C   UNL     1       1.013  10.421  18.628  0.00  0.00    +0.000 A 
BRANCH  12  19
ATOM     18  C   UNL     1       0.006  13.011  18.361  0.00  0.00    +0.000 C 
ATOM     19  O   UNL     1      -0.032  12.390  19.643  0.00  0.00    +0.000 OA
ENDBRANCH  12  19
ENDBRANCH   7  15
ENDBRANCH   6  10
ENDBRANCH   5   6
ENDBRANCH   1   5
BRANCH   3  20
ATOM     20  C   UNL     1       3.105   2.336  17.273  0.00  0.00    +0.000 C 
BRANCH  20  21
ATOM     21  C   UNL     1       3.656   3.676  16.758  0.00  0.00    +0.000 C 
BRANCH  21  22
ATOM     22  C   UNL     1       5.085   4.226  16.690  0.00  0.00    +0.000 A 
ATOM     23  C   UNL     1       5.578   4.042  15.357  0.00  0.00    +0.000 A 
ATOM     24  C   UNL     1       6.799   4.543  14.934  0.00  0.00    +0.000 A 
ATOM     25  C   UNL     1       7.414   5.460  15.735  0.00  0.00    +0.000 A 
ATOM     26  C   UNL     1       6.842   5.769  16.962  0.00  0.00    +0.000 A 
ATOM     27  C   UNL     1       7.358   6.858  17.630  0.00  0.00    +0.000 A 
ATOM     28  C   UNL     1       8.026   6.452  18.749  0.00  0.00    +0.000 A 
ATOM     29  C   UNL     1       7.325   5.527  19.479  0.00  0.00    +0.000 A 
ATOM     30  N   UNL     1       6.155   4.909  18.995  0.00  0.00    +0.000 NA
ATOM     31  C   UNL     1       5.920   4.941  17.614  0.00  0.00    +0.000 A 
ENDBRANCH  21  22
ENDBRANCH  20  21
ENDBRANCH   3  20
TORSDOF 8
ENDMDL
MODEL 3
REMARK VINA RESULT:      -8.3      5.479      7.744
REMARK  Name = 
REMARK  9 active torsions:
REMARK  status: ('A' for Active; 'I' for Inactive)
REMARK    1  A    between atoms: C_1  and  O_2
REMARK    2  A    between atoms: O_2  and  C_3
REMARK    3  A    between atoms: C_6  and  C_7
REMARK    4  A    between atoms: C_10  and  C_11
REMARK    5  A    between atoms: C_11  and  C_12
REMARK    6  A    between atoms: C_12  and  C_13
REMARK    7  A    between atoms: N_15  and  C_16
REMARK    8  A    between atoms: C_16  and  C_17
REMARK    9  A    between atoms: C_17  and  C_18
REMARK                            x       y       z     vdW  Elec       q    Type
REMARK                         _______ _______ _______ _____ _____    ______ ____
ROOT
ATOM      1  C   UNL     1       1.632   3.841  19.560  0.00  0.00    +0.000 C 
ATOM      2  O   UNL     1       0.837   3.128  18.943  0.00  0.00    +0.000 OA
ATOM      3  N   UNL     1       2.995   3.610  19.441  0.00  0.00    +0.000 N 
ATOM      4  H   UNL     1       3.627   4.187  20.009  0.00  0.00    +0.000 HD
ENDROOT
BRANCH   1   5
ATOM      5  C   UNL     1       1.163   4.957  20.461  0.00  0.00    +0.000 C 
BRANCH   5   6
ATOM      6  C   UNL     1       2.250   6.018  20.548  0.00  0.00    +0.000 C 
BRANCH   6  10
ATOM      7  C   UNL     1       1.605   9.112  18.836  0.00  0.00    +0.000 A 
ATOM      8  N   UNL     1       2.208   8.437  17.847  0.00  0.00    +0.000 NA
ATOM      9  O   UNL     1       2.491   7.192  18.410  0.00  0.00    +0.000 OA
ATOM     10  C   UNL     1       2.012   7.219  19.690  0.00  0.00    +0.000 A 
ATOM     11  N   UNL     1       1.468   8.376  20.004  0.00  0.00    +0.000 NA
BRANCH   7  15
ATOM     12  C   UNL     1       0.207  13.159  18.546  0.00  0.00    +0.000 A 
ATOM     13  C   UNL     1      -0.705  12.119  18.731  0.00  0.00    +0.000 A 
ATOM     14  C   UNL     1      -0.265  10.790  18.828  0.00  0.00    +0.000 A 
ATOM     15  C   UNL     1       1.097  10.481  18.720  0.00  0.00    +0.000 A 
ATOM     16  C   UNL     1       2.000  11.533  18.501  0.00  0.00    +0.000 A 
ATOM     17  C   UNL     1       1.562  12.861  18.420  0.00  0.00    +0.000 A 
BRANCH  12  19
ATOM     18  C   UNL     1       0.254  15.412  19.272  0.00  0.00    +0.000 C 
ATOM     19  O   UNL     1      -0.333  14.412  18.444  0.00  0.00    +0.000 OA
ENDBRANCH  12  19
ENDBRANCH   7  15
ENDBRANCH   6  10
ENDBRANCH   5   6
ENDBRANCH   1   5
BRANCH   3  20
ATOM     20  C   UNL     1       3.492   2.508  18.571  0.00  0.00    +0.000 C 
BRANCH  20  21
ATOM     21  C   UNL     1       4.051   3.047  17.243  0.00  0.00    +0.000 C 
BRANCH  21  22
ATOM     22  C   UNL     1       5.299   3.881  16.932  0.00  0.00    +0.000 A 
ATOM     23  C   UNL     1       5.606   3.734  15.541  0.00  0.00    +0.000 A 
ATOM     24  C   UNL     1       6.608   4.458  14.914  0.00  0.00    +0.000 A 
ATOM     25  C   UNL     1       7.128   5.524  15.587  0.00  0.00    +0.000 A 
ATOM     26  C   UNL     1       6.700   5.771  16.885  0.00  0.00    +0.000 A 
ATOM     27  C   UNL     1       7.066   6.978  17.439  0.00  0.00    +0.000 A 
ATOM     28  C   UNL     1       7.973   6.782  18.441  0.00  0.00    +0.000 A 
ATOM     29  C   UNL     1       7.610   5.771  19.294  0.00  0.00    +0.000 A 
ATOM     30  N   UNL     1       6.541   4.896  19.019  0.00  0.00    +0.000 NA
ATOM     31  C   UNL     1       6.093   4.804  17.694  0.00  0.00    +0.000 A 
ENDBRANCH  21  22
ENDBRANCH  20  21
ENDBRANCH   3  20
TORSDOF 8
ENDMDL
MODEL 4
REMARK VINA RESULT:      -8.3      2.567      3.923
REMARK  Name = 
REMARK  9 active torsions:
REMARK  status: ('A' for Active; 'I' for Inactive)
REMARK    1  A    between atoms: C_1  and  O_2
REMARK    2  A    between atoms: O_2  and  C_3
REMARK    3  A    between atoms: C_6  and  C_7
REMARK    4  A    between atoms: C_10  and  C_11
REMARK    5  A    between atoms: C_11  and  C_12
REMARK    6  A    between atoms: C_12  and  C_13
REMARK    7  A    between atoms: N_15  and  C_16
REMARK    8  A    between atoms: C_16  and  C_17
REMARK    9  A    between atoms: C_17  and  C_18
REMARK                            x       y       z     vdW  Elec       q    Type
REMARK                         _______ _______ _______ _____ _____    ______ ____
ROOT
ATOM      1  C   UNL     1       5.414   4.944  18.884  0.00  0.00    +0.000 C 
ATOM      2  O   UNL     1       4.915   3.830  19.056  0.00  0.00    +0.000 OA
ATOM      3  N   UNL     1       4.689   5.926  18.224  0.00  0.00    +0.000 N 
ATOM      4  H   UNL     1       5.153   6.825  18.051  0.00  0.00    +0.000 HD
ENDROOT
BRANCH   1   5
ATOM      5  C   UNL     1       6.808   5.272  19.362  0.00  0.00    +0.000 C 
BRANCH   5   6
ATOM      6  C   UNL     1       7.641   5.749  18.181  0.00  0.00    +0.000 C 
BRANCH   6  10
ATOM      7  C   UNL     1       8.538   9.228  18.302  0.00  0.00    +0.000 A 
ATOM      8  N   UNL     1       7.620   9.273  17.327  0.00  0.00    +0.000 NA
ATOM      9  O   UNL     1       7.185   7.952  17.208  0.00  0.00    +0.000 OA
ATOM     10  C   UNL     1       7.869   7.226  18.142  0.00  0.00    +0.000 A 
ATOM     11  N   UNL     1       8.718   7.959  18.833  0.00  0.00    +0.000 NA
BRANCH   7  15
ATOM     12  C   UNL     1      10.622  12.639  19.864  0.00  0.00    +0.000 A 
ATOM     13  C   UNL     1      10.617  12.395  18.490  0.00  0.00    +0.000 A 
ATOM     14  C   UNL     1       9.940  11.285  17.962  0.00  0.00    +0.000 A 
ATOM     15  C   UNL     1       9.274  10.389  18.808  0.00  0.00    +0.000 A 
ATOM     16  C   UNL     1       9.315  10.627  20.191  0.00  0.00    +0.000 A 
ATOM     17  C   UNL     1       9.977  11.744  20.716  0.00  0.00    +0.000 A 
BRANCH  12  19
ATOM     18  C   UNL     1      11.564  14.730  19.276  0.00  0.00    +0.000 C 
ATOM     19  O   UNL     1      11.329  13.737  20.271  0.00  0.00    +0.000 OA
ENDBRANCH  12  19
ENDBRANCH   7  15
ENDBRANCH   6  10
ENDBRANCH   5   6
ENDBRANCH   1   5
BRANCH   3  20
ATOM     20  C   UNL     1       3.316   5.632  17.727  0.00  0.00    +0.000 C 
BRANCH  20  21
ATOM     21  C   UNL     1       2.243   6.257  18.635  0.00  0.00    +0.000 C 
BRANCH  21  22
ATOM     22  C   UNL     1       1.947   7.716  18.998  0.00  0.00    +0.000 A 
ATOM     23  C   UNL     1       2.222   8.532  17.853  0.00  0.00    +0.000 A 
ATOM     24  C   UNL     1       1.940   9.889  17.815  0.00  0.00    +0.000 A 
ATOM     25  C   UNL     1       1.137  10.391  18.796  0.00  0.00    +0.000 A 
ATOM     26  C   UNL     1       0.725   9.551  19.822  0.00  0.00    +0.000 A 
ATOM     27  C   UNL     1      -0.264  10.028  20.655  0.00  0.00    +0.000 A 
ATOM     28  C   UNL     1       0.243  10.271  21.899  0.00  0.00    +0.000 A 
ATOM     29  C   UNL     1       1.029   9.246  22.361  0.00  0.00    +0.000 A 
ATOM     30  N   UNL     1       1.441   8.178  21.539  0.00  0.00    +0.000 NA
ATOM     31  C   UNL     1       1.379   8.358  20.151  0.00  0.00    +0.000 A 
ENDBRANCH  21  22
ENDBRANCH  20  21
ENDBRANCH   3  20
TORSDOF 8
ENDMDL
MODEL 5
REMARK VINA RESULT:      -8.2      5.801      9.685
REMARK  Name = 
REMARK  9 active torsions:
REMARK  status: ('A' for Active; 'I' for Inactive)
REMARK    1  A    between atoms: C_1  and  O_2
REMARK    2  A    between atoms: O_2  and  C_3
REMARK    3  A    between atoms: C_6  and  C_7
REMARK    4  A    between atoms: C_10  and  C_11
REMARK    5  A    between atoms: C_11  and  C_12
REMARK    6  A    between atoms: C_12  and  C_13
REMARK    7  A    between atoms: N_15  and  C_16
REMARK    8  A    between atoms: C_16  and  C_17
REMARK    9  A    between atoms: C_17  and  C_18
REMARK                            x       y       z     vdW  Elec       q    Type
REMARK                         _______ _______ _______ _____ _____    ______ ____
ROOT
ATOM      1  C   UNL     1       2.462   6.449  18.379  0.00  0.00    +0.000 C 
ATOM      2  O   UNL     1       3.098   6.401  19.434  0.00  0.00    +0.000 OA
ATOM      3  N   UNL     1       2.047   5.270  17.775  0.00  0.00    +0.000 N 
ATOM      4  H   UNL     1       1.567   5.343  16.871  0.00  0.00    +0.000 HD
ENDROOT
BRANCH   1   5
ATOM      5  C   UNL     1       2.132   7.761  17.710  0.00  0.00    +0.000 C 
BRANCH   5   6
ATOM      6  C   UNL     1       2.157   8.872  18.750  0.00  0.00    +0.000 C 
BRANCH   6  10
ATOM      7  C   UNL     1      -0.714  11.005  18.389  0.00  0.00    +0.000 A 
ATOM      8  N   UNL     1       0.203  11.926  18.713  0.00  0.00    +0.000 NA
ATOM      9  O   UNL     1       1.382  11.194  18.862  0.00  0.00    +0.000 OA
ATOM     10  C   UNL     1       1.074   9.891  18.593  0.00  0.00    +0.000 A 
ATOM     11  N   UNL     1      -0.200   9.718  18.307  0.00  0.00    +0.000 NA
BRANCH   7  15
ATOM     12  C   UNL     1      -4.864  11.828  17.673  0.00  0.00    +0.000 A 
ATOM     13  C   UNL     1      -4.079  11.278  16.659  0.00  0.00    +0.000 A 
ATOM     14  C   UNL     1      -2.720  11.002  16.876  0.00  0.00    +0.000 A 
ATOM     15  C   UNL     1      -2.122  11.293  18.109  0.00  0.00    +0.000 A 
ATOM     16  C   UNL     1      -2.916  11.877  19.109  0.00  0.00    +0.000 A 
ATOM     17  C   UNL     1      -4.276  12.137  18.898  0.00  0.00    +0.000 A 
BRANCH  12  19
ATOM     18  C   UNL     1      -7.143  11.613  18.278  0.00  0.00    +0.000 C 
ATOM     19  O   UNL     1      -6.169  12.075  17.346  0.00  0.00    +0.000 OA
ENDBRANCH  12  19
ENDBRANCH   7  15
ENDBRANCH   6  10
ENDBRANCH   5   6
ENDBRANCH   1   5
BRANCH   3  20
ATOM     20  C   UNL     1       2.368   3.958  18.401  0.00  0.00    +0.000 C 
BRANCH  20  21
ATOM     21  C   UNL     1       3.665   3.362  17.826  0.00  0.00    +0.000 C 
BRANCH  21  22
ATOM     22  C   UNL     1       4.975   4.023  17.383  0.00  0.00    +0.000 A 
ATOM     23  C   UNL     1       5.164   3.762  15.987  0.00  0.00    +0.000 A 
ATOM     24  C   UNL     1       6.195   4.326  15.252  0.00  0.00    +0.000 A 
ATOM     25  C   UNL     1       6.879   5.360  15.821  0.00  0.00    +0.000 A 
ATOM     26  C   UNL     1       6.576   5.728  17.124  0.00  0.00    +0.000 A 
ATOM     27  C   UNL     1       7.116   6.913  17.576  0.00  0.00    +0.000 A 
ATOM     28  C   UNL     1       8.063   6.668  18.528  0.00  0.00    +0.000 A 
ATOM     29  C   UNL     1       7.649   5.756  19.465  0.00  0.00    +0.000 A 
ATOM     30  N   UNL     1       6.470   4.999  19.316  0.00  0.00    +0.000 NA
ATOM     31  C   UNL     1       5.921   4.887  18.032  0.00  0.00    +0.000 A 
ENDBRANCH  21  22
ENDBRANCH  20  21
ENDBRANCH   3  20
TORSDOF 8
ENDMDL
MODEL 6
REMARK VINA RESULT:      -8.1      3.113      9.555
REMARK  Name = 
REMARK  9 active torsions:
REMARK  status: ('A' for Active; 'I' for Inactive)
REMARK    1  A    between atoms: C_1  and  O_2
REMARK    2  A    between atoms: O_2  and  C_3
REMARK    3  A    between atoms: C_6  and  C_7
REMARK    4  A    between atoms: C_10  and  C_11
REMARK    5  A    between atoms: C_11  and  C_12
REMARK    6  A    between atoms: C_12  and  C_13
REMARK    7  A    between atoms: N_15  and  C_16
REMARK    8  A    between atoms: C_16  and  C_17
REMARK    9  A    between atoms: C_17  and  C_18
REMARK                            x       y       z     vdW  Elec       q    Type
REMARK                         _______ _______ _______ _____ _____    ______ ____
ROOT
ATOM      1  C   UNL     1       7.326   6.534  17.444  0.00  0.00    +0.000 C 
ATOM      2  O   UNL     1       6.855   6.960  16.387  0.00  0.00    +0.000 OA
ATOM      3  N   UNL     1       8.032   7.393  18.276  0.00  0.00    +0.000 N 
ATOM      4  H   UNL     1       8.455   6.996  19.121  0.00  0.00    +0.000 HD
ENDROOT
BRANCH   1   5
ATOM      5  C   UNL     1       7.169   5.092  17.860  0.00  0.00    +0.000 C 
BRANCH   5   6
ATOM      6  C   UNL     1       5.760   4.626  17.523  0.00  0.00    +0.000 C 
BRANCH   6  10
ATOM      7  C   UNL     1       3.112   6.531  19.033  0.00  0.00    +0.000 A 
ATOM      8  N   UNL     1       3.131   5.484  19.869  0.00  0.00    +0.000 NA
ATOM      9  O   UNL     1       4.155   4.674  19.375  0.00  0.00    +0.000 OA
ATOM     10  C   UNL     1       4.680   5.319  18.290  0.00  0.00    +0.000 A 
ATOM     11  N   UNL     1       4.070   6.457  18.032  0.00  0.00    +0.000 NA
BRANCH   7  15
ATOM     12  C   UNL     1       0.515   9.937  19.306  0.00  0.00    +0.000 A 
ATOM     13  C   UNL     1       0.788   9.177  20.444  0.00  0.00    +0.000 A 
ATOM     14  C   UNL     1       1.636   8.060  20.373  0.00  0.00    +0.000 A 
ATOM     15  C   UNL     1       2.207   7.676  19.152  0.00  0.00    +0.000 A 
ATOM     16  C   UNL     1       1.897   8.429  18.009  0.00  0.00    +0.000 A 
ATOM     17  C   UNL     1       1.064   9.553  18.083  0.00  0.00    +0.000 A 
BRANCH  12  19
ATOM     18  C   UNL     1      -0.809  11.191  20.815  0.00  0.00    +0.000 C 
ATOM     19  O   UNL     1      -0.339  10.990  19.485  0.00  0.00    +0.000 OA
ENDBRANCH  12  19
ENDBRANCH   7  15
ENDBRANCH   6  10
ENDBRANCH   5   6
ENDBRANCH   1   5
BRANCH   3  20
ATOM     20  C   UNL     1       8.217   8.820  17.890  0.00  0.00    +0.000 C 
BRANCH  20  21
ATOM     21  C   UNL     1       8.917   9.618  19.003  0.00  0.00    +0.000 C 
BRANCH  21  22
ATOM     22  C   UNL     1       9.522  11.026  19.013  0.00  0.00    +0.000 A 
ATOM     23  C   UNL     1      10.208  11.233  17.773  0.00  0.00    +0.000 A 
ATOM     24  C   UNL     1      10.762  12.452  17.417  0.00  0.00    +0.000 A 
ATOM     25  C   UNL     1      10.406  13.543  18.154  0.00  0.00    +0.000 A 
ATOM     26  C   UNL     1       9.594  13.365  19.265  0.00  0.00    +0.000 A 
ATOM     27  C   UNL     1       9.069  14.503  19.839  0.00  0.00    +0.000 A 
ATOM     28  C   UNL     1       9.634  14.718  21.064  0.00  0.00    +0.000 A 
ATOM     29  C   UNL     1       9.686  13.581  21.830  0.00  0.00    +0.000 A 
ATOM     30  N   UNL     1       9.398  12.304  21.310  0.00  0.00    +0.000 NA
ATOM     31  C   UNL     1       9.439  12.137  19.920  0.00  0.00    +0.000 A 
ENDBRANCH  21  22
ENDBRANCH  20  21
ENDBRANCH   3  20
TORSDOF 8
ENDMDL
MODEL 7
REMARK VINA RESULT:      -8.0      2.014      3.056
REMARK  Name = 
REMARK  9 active torsions:
REMARK  status: ('A' for Active; 'I' for Inactive)
REMARK    1  A    between atoms: C_1  and  O_2
REMARK    2  A    between atoms: O_2  and  C_3
REMARK    3  A    between atoms: C_6  and  C_7
REMARK    4  A    between atoms: C_10  and  C_11
REMARK    5  A    between atoms: C_11  and  C_12
REMARK    6  A    between atoms: C_12  and  C_13
REMARK    7  A    between atoms: N_15  and  C_16
REMARK    8  A    between atoms: C_16  and  C_17
REMARK    9  A    between atoms: C_17  and  C_18
REMARK                            x       y       z     vdW  Elec       q    Type
REMARK                         _______ _______ _______ _____ _____    ______ ____
ROOT
ATOM      1  C   UNL     1       7.879   7.910  17.736  0.00  0.00    +0.000 C 
ATOM      2  O   UNL     1       7.382   7.443  16.709  0.00  0.00    +0.000 OA
ATOM      3  N   UNL     1       8.112   7.081  18.824  0.00  0.00    +0.000 N 
ATOM      4  H   UNL     1       8.477   7.512  19.681  0.00  0.00    +0.000 HD
ENDROOT
BRANCH   1   5
ATOM      5  C   UNL     1       8.231   9.373  17.852  0.00  0.00    +0.000 C 
BRANCH   5   6
ATOM      6  C   UNL     1       9.106   9.579  19.081  0.00  0.00    +0.000 C 
BRANCH   6  10
ATOM      7  C   UNL     1      10.460  12.847  19.720  0.00  0.00    +0.000 A 
ATOM      8  N   UNL     1      11.096  12.568  18.574  0.00  0.00    +0.000 NA
ATOM      9  O   UNL     1      10.621  11.304  18.222  0.00  0.00    +0.000 OA
ATOM     10  C   UNL     1       9.720  10.939  19.182  0.00  0.00    +0.000 A 
ATOM     11  N   UNL     1       9.591  11.845  20.129  0.00  0.00    +0.000 NA
BRANCH   7  15
ATOM     12  C   UNL     1      11.019  16.499  21.904  0.00  0.00    +0.000 A 
ATOM     13  C   UNL     1      10.186  15.503  22.415  0.00  0.00    +0.000 A 
ATOM     14  C   UNL     1       9.992  14.302  21.715  0.00  0.00    +0.000 A 
ATOM     15  C   UNL     1      10.616  14.091  20.478  0.00  0.00    +0.000 A 
ATOM     16  C   UNL     1      11.425  15.114  19.959  0.00  0.00    +0.000 A 
ATOM     17  C   UNL     1      11.631  16.306  20.666  0.00  0.00    +0.000 A 
BRANCH  12  19
ATOM     18  C   UNL     1       9.951  18.005  23.385  0.00  0.00    +0.000 C 
ATOM     19  O   UNL     1      11.120  17.636  22.658  0.00  0.00    +0.000 OA
ENDBRANCH  12  19
ENDBRANCH   7  15
ENDBRANCH   6  10
ENDBRANCH   5   6
ENDBRANCH   1   5
BRANCH   3  20
ATOM     20  C   UNL     1       7.763   5.635  18.748  0.00  0.00    +0.000 C 
BRANCH  20  21
ATOM     21  C   UNL     1       6.403   5.348  19.407  0.00  0.00    +0.000 C 
BRANCH  21  22
ATOM     22  C   UNL     1       5.080   4.843  18.822  0.00  0.00    +0.000 A 
ATOM     23  C   UNL     1       5.295   4.495  17.449  0.00  0.00    +0.000 A 
ATOM     24  C   UNL     1       4.324   3.889  16.668  0.00  0.00    +0.000 A 
ATOM     25  C   UNL     1       3.234   3.375  17.308  0.00  0.00    +0.000 A 
ATOM     26  C   UNL     1       3.109   3.564  18.677  0.00  0.00    +0.000 A 
ATOM     27  C   UNL     1       2.129   2.837  19.317  0.00  0.00    +0.000 A 
ATOM     28  C   UNL     1       1.129   3.664  19.742  0.00  0.00    +0.000 A 
ATOM     29  C   UNL     1       1.602   4.789  20.368  0.00  0.00    +0.000 A 
ATOM     30  N   UNL     1       2.965   5.145  20.359  0.00  0.00    +0.000 NA
ATOM     31  C   UNL     1       3.787   4.566  19.383  0.00  0.00    +0.000 A 
ENDBRANCH  21  22
ENDBRANCH  20  21
ENDBRANCH   3  20
TORSDOF 8
ENDMDL
MODEL 8
REMARK VINA RESULT:      -8.0      5.678      8.123
REMARK  Name = 
REMARK  9 active torsions:
REMARK  status: ('A' for Active; 'I' for Inactive)
REMARK    1  A    between atoms: C_1  and  O_2
REMARK    2  A    between atoms: O_2  and  C_3
REMARK    3  A    between atoms: C_6  and  C_7
REMARK    4  A    between atoms: C_10  and  C_11
REMARK    5  A    between atoms: C_11  and  C_12
REMARK    6  A    between atoms: C_12  and  C_13
REMARK    7  A    between atoms: N_15  and  C_16
REMARK    8  A    between atoms: C_16  and  C_17
REMARK    9  A    between atoms: C_17  and  C_18
REMARK                            x       y       z     vdW  Elec       q    Type
REMARK                         _______ _______ _______ _____ _____    ______ ____
ROOT
ATOM      1  C   UNL     1       1.782   2.503  19.578  0.00  0.00    +0.000 C 
ATOM      2  O   UNL     1       1.949   1.287  19.460  0.00  0.00    +0.000 OA
ATOM      3  N   UNL     1       2.163   3.351  18.547  0.00  0.00    +0.000 N 
ATOM      4  H   UNL     1       2.060   4.361  18.699  0.00  0.00    +0.000 HD
ENDROOT
BRANCH   1   5
ATOM      5  C   UNL     1       1.184   3.105  20.826  0.00  0.00    +0.000 C 
BRANCH   5   6
ATOM      6  C   UNL     1       2.154   4.128  21.401  0.00  0.00    +0.000 C 
BRANCH   6  10
ATOM      7  C   UNL     1       1.812   7.473  20.130  0.00  0.00    +0.000 A 
ATOM      8  N   UNL     1       2.820   7.048  19.356  0.00  0.00    +0.000 NA
ATOM      9  O   UNL     1       3.026   5.729  19.762  0.00  0.00    +0.000 OA
ATOM     10  C   UNL     1       2.105   5.467  20.737  0.00  0.00    +0.000 A 
ATOM     11  N   UNL     1       1.343   6.506  21.007  0.00  0.00    +0.000 NA
BRANCH   7  15
ATOM     12  C   UNL     1      -0.001  11.362  20.013  0.00  0.00    +0.000 A 
ATOM     13  C   UNL     1       0.470  10.778  18.837  0.00  0.00    +0.000 A 
ATOM     14  C   UNL     1       1.065   9.506  18.856  0.00  0.00    +0.000 A 
ATOM     15  C   UNL     1       1.216   8.810  20.062  0.00  0.00    +0.000 A 
ATOM     16  C   UNL     1       0.768   9.423  21.243  0.00  0.00    +0.000 A 
ATOM     17  C   UNL     1       0.159  10.684  21.221  0.00  0.00    +0.000 A 
BRANCH  12  19
ATOM     18  C   UNL     1       0.123  13.486  18.977  0.00  0.00    +0.000 C 
ATOM     19  O   UNL     1      -0.544  12.610  19.881  0.00  0.00    +0.000 OA
ENDBRANCH  12  19
ENDBRANCH   7  15
ENDBRANCH   6  10
ENDBRANCH   5   6
ENDBRANCH   1   5
BRANCH   3  20
ATOM     20  C   UNL     1       2.769   2.791  17.307  0.00  0.00    +0.000 C 
BRANCH  20  21
ATOM     21  C   UNL     1       3.506   3.875  16.502  0.00  0.00    +0.000 C 
BRANCH  21  22
ATOM     22  C   UNL     1       4.971   4.325  16.511  0.00  0.00    +0.000 A 
ATOM     23  C   UNL     1       5.534   4.060  15.221  0.00  0.00    +0.000 A 
ATOM     24  C   UNL     1       6.811   4.462  14.863  0.00  0.00    +0.000 A 
ATOM     25  C   UNL     1       7.435   5.365  15.674  0.00  0.00    +0.000 A 
ATOM     26  C   UNL     1       6.808   5.757  16.848  0.00  0.00    +0.000 A 
ATOM     27  C   UNL     1       7.354   6.833  17.514  0.00  0.00    +0.000 A 
ATOM     28  C   UNL     1       7.920   6.425  18.688  0.00  0.00    +0.000 A 
ATOM     29  C   UNL     1       7.111   5.577  19.399  0.00  0.00    +0.000 A 
ATOM     30  N   UNL     1       5.935   5.021  18.859  0.00  0.00    +0.000 NA
ATOM     31  C   UNL     1       5.792   5.017  17.465  0.00  0.00    +0.000 A 
ENDBRANCH  21  22
ENDBRANCH  20  21
ENDBRANCH   3  20
TORSDOF 8
ENDMDL
MODEL 9
REMARK VINA RESULT:      -7.9      3.114      9.496
REMARK  Name = 
REMARK  9 active torsions:
REMARK  status: ('A' for Active; 'I' for Inactive)
REMARK    1  A    between atoms: C_1  and  O_2
REMARK    2  A    between atoms: O_2  and  C_3
REMARK    3  A    between atoms: C_6  and  C_7
REMARK    4  A    between atoms: C_10  and  C_11
REMARK    5  A    between atoms: C_11  and  C_12
REMARK    6  A    between atoms: C_12  and  C_13
REMARK    7  A    between atoms: N_15  and  C_16
REMARK    8  A    between atoms: C_16  and  C_17
REMARK    9  A    between atoms: C_17  and  C_18
REMARK                            x       y       z     vdW  Elec       q    Type
REMARK                         _______ _______ _______ _____ _____    ______ ____
ROOT
ATOM      1  C   UNL     1       7.617   5.915  18.296  0.00  0.00    +0.000 C 
ATOM      2  O   UNL     1       8.075   5.567  19.387  0.00  0.00    +0.000 OA
ATOM      3  N   UNL     1       7.778   7.227  17.871  0.00  0.00    +0.000 N 
ATOM      4  H   UNL     1       7.340   7.497  16.984  0.00  0.00    +0.000 HD
ENDROOT
BRANCH   1   5
ATOM      5  C   UNL     1       6.868   4.954  17.406  0.00  0.00    +0.000 C 
BRANCH   5   6
ATOM      6  C   UNL     1       5.787   4.259  18.222  0.00  0.00    +0.000 C 
BRANCH   6  10
ATOM      7  C   UNL     1       2.887   6.371  18.437  0.00  0.00    +0.000 A 
ATOM      8  N   UNL     1       2.334   5.301  17.851  0.00  0.00    +0.000 NA
ATOM      9  O   UNL     1       3.389   4.395  17.734  0.00  0.00    +0.000 OA
ATOM     10  C   UNL     1       4.487   4.995  18.282  0.00  0.00    +0.000 A 
ATOM     11  N   UNL     1       4.236   6.212  18.719  0.00  0.00    +0.000 NA
BRANCH   7  15
ATOM     12  C   UNL     1       0.709   9.898  19.552  0.00  0.00    +0.000 A 
ATOM     13  C   UNL     1       1.111   9.717  18.227  0.00  0.00    +0.000 A 
ATOM     14  C   UNL     1       1.823   8.569  17.845  0.00  0.00    +0.000 A 
ATOM     15  C   UNL     1       2.162   7.594  18.792  0.00  0.00    +0.000 A 
ATOM     16  C   UNL     1       1.781   7.804  20.127  0.00  0.00    +0.000 A 
ATOM     17  C   UNL     1       1.056   8.941  20.505  0.00  0.00    +0.000 A 
BRANCH  12  19
ATOM     18  C   UNL     1       0.524  12.223  19.150  0.00  0.00    +0.000 C 
ATOM     19  O   UNL     1       0.039  11.060  19.816  0.00  0.00    +0.000 OA
ENDBRANCH  12  19
ENDBRANCH   7  15
ENDBRANCH   6  10
ENDBRANCH   5   6
ENDBRANCH   1   5
BRANCH   3  20
ATOM     20  C   UNL     1       8.501   8.206  18.730  0.00  0.00    +0.000 C 
BRANCH  20  21
ATOM     21  C   UNL     1       8.541   9.601  18.084  0.00  0.00    +0.000 C 
BRANCH  21  22
ATOM     22  C   UNL     1       9.067  10.944  18.602  0.00  0.00    +0.000 A 
ATOM     23  C   UNL     1       9.976  10.688  19.680  0.00  0.00    +0.000 A 
ATOM     24  C   UNL     1      10.719  11.688  20.287  0.00  0.00    +0.000 A 
ATOM     25  C   UNL     1      10.778  12.897  19.658  0.00  0.00    +0.000 A 
ATOM     26  C   UNL     1      10.025  13.092  18.508  0.00  0.00    +0.000 A 
ATOM     27  C   UNL     1      10.289  14.231  17.779  0.00  0.00    +0.000 A 
ATOM     28  C   UNL     1       9.239  15.099  17.862  0.00  0.00    +0.000 A 
ATOM     29  C   UNL     1       8.028  14.485  17.672  0.00  0.00    +0.000 A 
ATOM     30  N   UNL     1       7.887  13.084  17.628  0.00  0.00    +0.000 NA
ATOM     31  C   UNL     1       8.918  12.304  18.168  0.00  0.00    +0.000 A 
ENDBRANCH  21  22
ENDBRANCH  20  21
ENDBRANCH   3  20
TORSDOF 8
ENDMDL
