MODEL 1
REMARK VINA RESULT:      -8.9      0.000      0.000
REMARK  Name = 
REMARK  4 active torsions:
REMARK  status: ('A' for Active; 'I' for Inactive)
REMARK    1  A    between atoms: C_1  and  C_2
REMARK    2  A    between atoms: C_5  and  C_6
REMARK    3  A    between atoms: C_10  and  N_11
REMARK    4  A    between atoms: C_12  and  C_14
REMARK                            x       y       z     vdW  Elec       q    Type
REMARK                         _______ _______ _______ _____ _____    ______ ____
ROOT
ATOM      1  N   UNL     1       1.981   6.482  20.911  0.00  0.00    +0.000 N 
ATOM      2  C   UNL     1       1.857   7.680  20.233  0.00  0.00    +0.000 C 
ATOM      3  O   UNL     1       2.187   7.884  19.072  0.00  0.00    +0.000 OA
ATOM      4  H   UNL     1       1.546   6.439  21.817  0.00  0.00    +0.000 HD
ENDROOT
BRANCH   2   5
ATOM      5  C   UNL     1       1.201   8.712  21.004  0.00  0.00    +0.000 A 
ATOM      6  N   UNL     1       1.366   8.802  22.365  0.00  0.00    +0.000 N 
ATOM      7  N   UNL     1       0.776   9.876  22.923  0.00  0.00    +0.000 NA
ATOM      8  C   UNL     1       0.156  10.456  21.896  0.00  0.00    +0.000 A 
ATOM      9  C   UNL     1       0.345   9.751  20.682  0.00  0.00    +0.000 A 
ATOM     10  C   UNL     1      -0.281  10.174  19.399  0.00  0.00    +0.000 C 
ATOM     11  C   UNL     1      -1.400  11.200  19.631  0.00  0.00    +0.000 C 
ATOM     12  C   UNL     1      -0.967  12.284  20.632  0.00  0.00    +0.000 C 
ATOM     13  C   UNL     1      -0.667  11.691  22.022  0.00  0.00    +0.000 C 
ATOM     14  H   UNL     1       1.907   8.175  22.954  0.00  0.00    +0.000 HD
ENDBRANCH   2   5
BRANCH   1  19
ATOM     15  C   UNL     1       4.157   4.160  19.020  0.00  0.00    +0.000 A 
ATOM     16  C   UNL     1       3.713   2.922  19.502  0.00  0.00    +0.000 A 
ATOM     17  C   UNL     1       2.673   2.851  20.429  0.00  0.00    +0.000 A 
ATOM     18  C   UNL     1       2.068   4.015  20.896  0.00  0.00    +0.000 A 
ATOM     19  C   UNL     1       2.498   5.259  20.440  0.00  0.00    +0.000 A 
ATOM     20  C   UNL     1       3.524   5.325  19.483  0.00  0.00    +0.000 A 
BRANCH  15  25
ATOM     21  C   UNL     1       7.071   4.633  15.059  0.00  0.00    +0.000 C 
ATOM     22  C   UNL     1       6.627   4.498  16.460  0.00  0.00    +0.000 A 
ATOM     23  C   UNL     1       7.364   4.603  17.615  0.00  0.00    +0.000 A 
ATOM     24  O   UNL     1       6.522   4.445  18.671  0.00  0.00    +0.000 OA
ATOM     25  C   UNL     1       5.289   4.257  18.099  0.00  0.00    +0.000 A 
ATOM     26  N   UNL     1       5.306   4.263  16.778  0.00  0.00    +0.000 NA
ENDBRANCH  15  25
ENDBRANCH   1  19
TORSDOF 3
ENDMDL
MODEL 2
REMARK VINA RESULT:      -8.8      2.092      8.606
REMARK  Name = 
REMARK  4 active torsions:
REMARK  status: ('A' for Active; 'I' for Inactive)
REMARK    1  A    between atoms: C_1  and  C_2
REMARK    2  A    between atoms: C_5  and  C_6
REMARK    3  A    between atoms: C_10  and  N_11
REMARK    4  A    between atoms: C_12  and  C_14
REMARK                            x       y       z     vdW  Elec       q    Type
REMARK                         _______ _______ _______ _____ _____    ______ ____
ROOT
ATOM      1  N   UNL     1       4.639   5.204  16.878  0.00  0.00    +0.000 N 
ATOM      2  C   UNL     1       5.983   4.887  16.835  0.00  0.00    +0.000 C 
ATOM      3  O   UNL     1       6.663   4.518  17.783  0.00  0.00    +0.000 OA
ATOM      4  H   UNL     1       4.194   5.366  15.991  0.00  0.00    +0.000 HD
ENDROOT
BRANCH   2   5
ATOM      5  C   UNL     1       6.547   4.948  15.505  0.00  0.00    +0.000 A 
ATOM      6  N   UNL     1       7.657   5.710  15.233  0.00  0.00    +0.000 N 
ATOM      7  N   UNL     1       8.121   5.582  13.975  0.00  0.00    +0.000 NA
ATOM      8  C   UNL     1       7.238   4.764  13.403  0.00  0.00    +0.000 A 
ATOM      9  C   UNL     1       6.208   4.372  14.293  0.00  0.00    +0.000 A 
ATOM     10  C   UNL     1       5.078   3.494  13.881  0.00  0.00    +0.000 C 
ATOM     11  C   UNL     1       4.980   3.383  12.353  0.00  0.00    +0.000 C 
ATOM     12  C   UNL     1       6.362   3.152  11.719  0.00  0.00    +0.000 C 
ATOM     13  C   UNL     1       7.315   4.334  11.979  0.00  0.00    +0.000 C 
ATOM     14  H   UNL     1       8.161   6.305  15.885  0.00  0.00    +0.000 HD
ENDBRANCH   2   5
BRANCH   1  19
ATOM     15  C   UNL     1       2.353   6.474  19.497  0.00  0.00    +0.000 A 
ATOM     16  C   UNL     1       1.934   5.278  20.092  0.00  0.00    +0.000 A 
ATOM     17  C   UNL     1       2.429   4.051  19.649  0.00  0.00    +0.000 A 
ATOM     18  C   UNL     1       3.343   4.001  18.600  0.00  0.00    +0.000 A 
ATOM     19  C   UNL     1       3.767   5.176  17.984  0.00  0.00    +0.000 A 
ATOM     20  C   UNL     1       3.291   6.411  18.454  0.00  0.00    +0.000 A 
BRANCH  15  25
ATOM     21  C   UNL     1       0.523  11.061  19.639  0.00  0.00    +0.000 C 
ATOM     22  C   UNL     1       0.953   9.714  20.061  0.00  0.00    +0.000 A 
ATOM     23  C   UNL     1       0.754   9.078  21.263  0.00  0.00    +0.000 A 
ATOM     24  O   UNL     1       1.292   7.833  21.179  0.00  0.00    +0.000 OA
ATOM     25  C   UNL     1       1.795   7.764  19.904  0.00  0.00    +0.000 A 
ATOM     26  N   UNL     1       1.631   8.872  19.204  0.00  0.00    +0.000 NA
ENDBRANCH  15  25
ENDBRANCH   1  19
TORSDOF 3
ENDMDL
MODEL 3
REMARK VINA RESULT:      -8.5      2.731      3.923
REMARK  Name = 
REMARK  4 active torsions:
REMARK  status: ('A' for Active; 'I' for Inactive)
REMARK    1  A    between atoms: C_1  and  C_2
REMARK    2  A    between atoms: C_5  and  C_6
REMARK    3  A    between atoms: C_10  and  N_11
REMARK    4  A    between atoms: C_12  and  C_14
REMARK                            x       y       z     vdW  Elec       q    Type
REMARK                         _______ _______ _______ _____ _____    ______ ____
ROOT
ATOM      1  N   UNL     1       4.229   7.097  17.850  0.00  0.00    +0.000 N 
ATOM      2  C   UNL     1       3.042   6.827  18.505  0.00  0.00    +0.000 C 
ATOM      3  O   UNL     1       2.706   5.743  18.961  0.00  0.00    +0.000 OA
ATOM      4  H   UNL     1       4.412   8.065  17.648  0.00  0.00    +0.000 HD
ENDROOT
BRANCH   2   5
ATOM      5  C   UNL     1       2.210   7.994  18.693  0.00  0.00    +0.000 A 
ATOM      6  N   UNL     1       1.941   8.856  17.658  0.00  0.00    +0.000 N 
ATOM      7  N   UNL     1       1.070   9.835  17.966  0.00  0.00    +0.000 NA
ATOM      8  C   UNL     1       0.826   9.635  19.261  0.00  0.00    +0.000 A 
ATOM      9  C   UNL     1       1.543   8.530  19.781  0.00  0.00    +0.000 A 
ATOM     10  C   UNL     1       1.473   8.126  21.213  0.00  0.00    +0.000 C 
ATOM     11  C   UNL     1       0.850   9.231  22.079  0.00  0.00    +0.000 C 
ATOM     12  C   UNL     1      -0.407   9.819  21.417  0.00  0.00    +0.000 C 
ATOM     13  C   UNL     1      -0.080  10.495  20.071  0.00  0.00    +0.000 C 
ATOM     14  H   UNL     1       2.298   8.795  16.708  0.00  0.00    +0.000 HD
ENDBRANCH   2   5
BRANCH   1  19
ATOM     15  C   UNL     1       6.428   4.872  15.871  0.00  0.00    +0.000 A 
ATOM     16  C   UNL     1       7.413   4.558  16.815  0.00  0.00    +0.000 A 
ATOM     17  C   UNL     1       7.336   5.055  18.116  0.00  0.00    +0.000 A 
ATOM     18  C   UNL     1       6.279   5.882  18.491  0.00  0.00    +0.000 A 
ATOM     19  C   UNL     1       5.292   6.218  17.567  0.00  0.00    +0.000 A 
ATOM     20  C   UNL     1       5.357   5.689  16.267  0.00  0.00    +0.000 A 
BRANCH  15  25
ATOM     21  C   UNL     1       5.756   2.651  11.510  0.00  0.00    +0.000 C 
ATOM     22  C   UNL     1       6.290   3.545  12.556  0.00  0.00    +0.000 A 
ATOM     23  C   UNL     1       7.180   4.584  12.435  0.00  0.00    +0.000 A 
ATOM     24  O   UNL     1       7.345   5.146  13.662  0.00  0.00    +0.000 OA
ATOM     25  C   UNL     1       6.527   4.415  14.485  0.00  0.00    +0.000 A 
ATOM     26  N   UNL     1       5.889   3.435  13.871  0.00  0.00    +0.000 NA
ENDBRANCH  15  25
ENDBRANCH   1  19
TORSDOF 3
ENDMDL
MODEL 4
REMARK VINA RESULT:      -8.4      1.381      1.750
REMARK  Name = 
REMARK  4 active torsions:
REMARK  status: ('A' for Active; 'I' for Inactive)
REMARK    1  A    between atoms: C_1  and  C_2
REMARK    2  A    between atoms: C_5  and  C_6
REMARK    3  A    between atoms: C_10  and  N_11
REMARK    4  A    between atoms: C_12  and  C_14
REMARK                            x       y       z     vdW  Elec       q    Type
REMARK                         _______ _______ _______ _____ _____    ______ ____
ROOT
ATOM      1  N   UNL     1       2.066   7.442  20.152  0.00  0.00    +0.000 N 
ATOM      2  C   UNL     1       1.657   8.390  19.233  0.00  0.00    +0.000 C 
ATOM      3  O   UNL     1       1.627   8.245  18.018  0.00  0.00    +0.000 OA
ATOM      4  H   UNL     1       1.911   7.668  21.119  0.00  0.00    +0.000 HD
ENDROOT
BRANCH   2   5
ATOM      5  C   UNL     1       1.165   9.605  19.841  0.00  0.00    +0.000 A 
ATOM      6  N   UNL     1       1.343  10.829  19.241  0.00  0.00    +0.000 N 
ATOM      7  N   UNL     1       0.740  11.850  19.878  0.00  0.00    +0.000 NA
ATOM      8  C   UNL     1       0.214  11.272  20.958  0.00  0.00    +0.000 A 
ATOM      9  C   UNL     1       0.485   9.883  21.014  0.00  0.00    +0.000 A 
ATOM     10  C   UNL     1       0.043   9.021  22.145  0.00  0.00    +0.000 C 
ATOM     11  C   UNL     1      -0.395   9.860  23.354  0.00  0.00    +0.000 C 
ATOM     12  C   UNL     1      -1.293  11.033  22.927  0.00  0.00    +0.000 C 
ATOM     13  C   UNL     1      -0.548  12.014  22.000  0.00  0.00    +0.000 C 
ATOM     14  H   UNL     1       1.837  11.013  18.372  0.00  0.00    +0.000 HD
ENDBRANCH   2   5
BRANCH   1  19
ATOM     15  C   UNL     1       4.131   4.722  18.723  0.00  0.00    +0.000 A 
ATOM     16  C   UNL     1       3.634   3.613  19.418  0.00  0.00    +0.000 A 
ATOM     17  C   UNL     1       2.595   3.757  20.338  0.00  0.00    +0.000 A 
ATOM     18  C   UNL     1       2.044   5.012  20.583  0.00  0.00    +0.000 A 
ATOM     19  C   UNL     1       2.527   6.133  19.912  0.00  0.00    +0.000 A 
ATOM     20  C   UNL     1       3.552   5.978  18.964  0.00  0.00    +0.000 A 
BRANCH  15  25
ATOM     21  C   UNL     1       7.101   4.668  14.775  0.00  0.00    +0.000 C 
ATOM     22  C   UNL     1       6.631   4.595  16.172  0.00  0.00    +0.000 A 
ATOM     23  C   UNL     1       7.367   4.514  17.330  0.00  0.00    +0.000 A 
ATOM     24  O   UNL     1       6.505   4.511  18.381  0.00  0.00    +0.000 OA
ATOM     25  C   UNL     1       5.264   4.602  17.804  0.00  0.00    +0.000 A 
ATOM     26  N   UNL     1       5.289   4.636  16.484  0.00  0.00    +0.000 NA
ENDBRANCH  15  25
ENDBRANCH   1  19
TORSDOF 3
ENDMDL
MODEL 5
REMARK VINA RESULT:      -8.4      2.072      3.556
REMARK  Name = 
REMARK  4 active torsions:
REMARK  status: ('A' for Active; 'I' for Inactive)
REMARK    1  A    between atoms: C_1  and  C_2
REMARK    2  A    between atoms: C_5  and  C_6
REMARK    3  A    between atoms: C_10  and  N_11
REMARK    4  A    between atoms: C_12  and  C_14
REMARK                            x       y       z     vdW  Elec       q    Type
REMARK                         _______ _______ _______ _____ _____    ______ ____
ROOT
ATOM      1  N   UNL     1       4.462   6.485  18.843  0.00  0.00    +0.000 N 
ATOM      2  C   UNL     1       3.247   5.977  19.262  0.00  0.00    +0.000 C 
ATOM      3  O   UNL     1       2.936   4.794  19.294  0.00  0.00    +0.000 OA
ATOM      4  H   UNL     1       4.608   7.467  18.998  0.00  0.00    +0.000 HD
ENDROOT
BRANCH   2   5
ATOM      5  C   UNL     1       2.343   6.988  19.763  0.00  0.00    +0.000 A 
ATOM      6  N   UNL     1       1.720   6.852  20.980  0.00  0.00    +0.000 N 
ATOM      7  N   UNL     1       0.992   7.922  21.351  0.00  0.00    +0.000 NA
ATOM      8  C   UNL     1       1.097   8.744  20.307  0.00  0.00    +0.000 A 
ATOM      9  C   UNL     1       1.888   8.197  19.266  0.00  0.00    +0.000 A 
ATOM     10  C   UNL     1       2.121   8.903  17.976  0.00  0.00    +0.000 C 
ATOM     11  C   UNL     1       1.138  10.067  17.786  0.00  0.00    +0.000 C 
ATOM     12  C   UNL     1       1.006  10.904  19.070  0.00  0.00    +0.000 C 
ATOM     13  C   UNL     1       0.432  10.074  20.235  0.00  0.00    +0.000 C 
ATOM     14  H   UNL     1       1.793   6.062  21.615  0.00  0.00    +0.000 HD
ENDBRANCH   2   5
BRANCH   1  19
ATOM     15  C   UNL     1       6.697   4.767  16.444  0.00  0.00    +0.000 A 
ATOM     16  C   UNL     1       7.804   4.492  17.256  0.00  0.00    +0.000 A 
ATOM     17  C   UNL     1       7.801   4.846  18.606  0.00  0.00    +0.000 A 
ATOM     18  C   UNL     1       6.697   5.488  19.161  0.00  0.00    +0.000 A 
ATOM     19  C   UNL     1       5.588   5.782  18.372  0.00  0.00    +0.000 A 
ATOM     20  C   UNL     1       5.582   5.396  17.021  0.00  0.00    +0.000 A 
BRANCH  15  25
ATOM     21  C   UNL     1       5.660   3.157  11.890  0.00  0.00    +0.000 C 
ATOM     22  C   UNL     1       6.323   3.855  13.009  0.00  0.00    +0.000 A 
ATOM     23  C   UNL     1       7.330   4.789  12.972  0.00  0.00    +0.000 A 
ATOM     24  O   UNL     1       7.590   5.183  14.247  0.00  0.00    +0.000 OA
ATOM     25  C   UNL     1       6.708   4.463  15.013  0.00  0.00    +0.000 A 
ATOM     26  N   UNL     1       5.942   3.642  14.317  0.00  0.00    +0.000 NA
ENDBRANCH  15  25
ENDBRANCH   1  19
TORSDOF 3
ENDMDL
MODEL 6
REMARK VINA RESULT:      -8.3      2.155      8.774
REMARK  Name = 
REMARK  4 active torsions:
REMARK  status: ('A' for Active; 'I' for Inactive)
REMARK    1  A    between atoms: C_1  and  C_2
REMARK    2  A    between atoms: C_5  and  C_6
REMARK    3  A    between atoms: C_10  and  N_11
REMARK    4  A    between atoms: C_12  and  C_14
REMARK                            x       y       z     vdW  Elec       q    Type
REMARK                         _______ _______ _______ _____ _____    ______ ____
ROOT
ATOM      1  N   UNL     1       4.711   5.693  16.791  0.00  0.00    +0.000 N 
ATOM      2  C   UNL     1       5.947   5.077  16.750  0.00  0.00    +0.000 C 
ATOM      3  O   UNL     1       6.512   4.540  17.693  0.00  0.00    +0.000 OA
ATOM      4  H   UNL     1       4.326   5.972  15.904  0.00  0.00    +0.000 HD
ENDROOT
BRANCH   2   5
ATOM      5  C   UNL     1       6.527   5.038  15.426  0.00  0.00    +0.000 A 
ATOM      6  N   UNL     1       7.691   5.708  15.135  0.00  0.00    +0.000 N 
ATOM      7  N   UNL     1       8.157   5.490  13.891  0.00  0.00    +0.000 NA
ATOM      8  C   UNL     1       7.225   4.709  13.345  0.00  0.00    +0.000 A 
ATOM      9  C   UNL     1       6.162   4.430  14.238  0.00  0.00    +0.000 A 
ATOM     10  C   UNL     1       4.978   3.614  13.851  0.00  0.00    +0.000 C 
ATOM     11  C   UNL     1       4.888   3.439  12.328  0.00  0.00    +0.000 C 
ATOM     12  C   UNL     1       6.257   3.084  11.724  0.00  0.00    +0.000 C 
ATOM     13  C   UNL     1       7.287   4.209  11.943  0.00  0.00    +0.000 C 
ATOM     14  H   UNL     1       8.227   6.296  15.766  0.00  0.00    +0.000 HD
ENDBRANCH   2   5
BRANCH   1  19
ATOM     15  C   UNL     1       2.323   7.323  19.101  0.00  0.00    +0.000 A 
ATOM     16  C   UNL     1       2.000   6.258  19.951  0.00  0.00    +0.000 A 
ATOM     17  C   UNL     1       2.594   5.008  19.782  0.00  0.00    +0.000 A 
ATOM     18  C   UNL     1       3.512   4.800  18.755  0.00  0.00    +0.000 A 
ATOM     19  C   UNL     1       3.842   5.840  17.889  0.00  0.00    +0.000 A 
ATOM     20  C   UNL     1       3.265   7.106  18.083  0.00  0.00    +0.000 A 
BRANCH  15  25
ATOM     21  C   UNL     1      -0.141  11.306  20.675  0.00  0.00    +0.000 C 
ATOM     22  C   UNL     1       0.654  10.400  19.823  0.00  0.00    +0.000 A 
ATOM     23  C   UNL     1       1.288  10.665  18.633  0.00  0.00    +0.000 A 
ATOM     24  O   UNL     1       1.931   9.535  18.234  0.00  0.00    +0.000 OA
ATOM     25  C   UNL     1       1.661   8.622  19.222  0.00  0.00    +0.000 A 
ATOM     26  N   UNL     1       0.885   9.090  20.184  0.00  0.00    +0.000 NA
ENDBRANCH  15  25
ENDBRANCH   1  19
TORSDOF 3
ENDMDL
MODEL 7
REMARK VINA RESULT:      -8.3      1.846      8.557
REMARK  Name = 
REMARK  4 active torsions:
REMARK  status: ('A' for Active; 'I' for Inactive)
REMARK    1  A    between atoms: C_1  and  C_2
REMARK    2  A    between atoms: C_5  and  C_6
REMARK    3  A    between atoms: C_10  and  N_11
REMARK    4  A    between atoms: C_12  and  C_14
REMARK                            x       y       z     vdW  Elec       q    Type
REMARK                         _______ _______ _______ _____ _____    ______ ____
ROOT
ATOM      1  N   UNL     1       4.601   5.355  17.706  0.00  0.00    +0.000 N 
ATOM      2  C   UNL     1       4.840   4.322  16.820  0.00  0.00    +0.000 C 
ATOM      3  O   UNL     1       4.292   3.227  16.830  0.00  0.00    +0.000 OA
ATOM      4  H   UNL     1       5.037   6.234  17.488  0.00  0.00    +0.000 HD
ENDROOT
BRANCH   2   5
ATOM      5  C   UNL     1       5.775   4.666  15.773  0.00  0.00    +0.000 A 
ATOM      6  N   UNL     1       6.831   5.514  16.007  0.00  0.00    +0.000 N 
ATOM      7  N   UNL     1       7.669   5.654  14.963  0.00  0.00    +0.000 NA
ATOM      8  C   UNL     1       7.095   4.926  14.006  0.00  0.00    +0.000 A 
ATOM      9  C   UNL     1       5.888   4.323  14.437  0.00  0.00    +0.000 A 
ATOM     10  C   UNL     1       5.037   3.494  13.539  0.00  0.00    +0.000 C 
ATOM     11  C   UNL     1       5.426   3.679  12.066  0.00  0.00    +0.000 C 
ATOM     12  C   UNL     1       6.952   3.637  11.880  0.00  0.00    +0.000 C 
ATOM     13  C   UNL     1       7.651   4.787  12.632  0.00  0.00    +0.000 C 
ATOM     14  H   UNL     1       7.044   5.992  16.879  0.00  0.00    +0.000 HD
ENDBRANCH   2   5
BRANCH   1  19
ATOM     15  C   UNL     1       2.129   6.733  20.092  0.00  0.00    +0.000 A 
ATOM     16  C   UNL     1       1.802   5.590  20.831  0.00  0.00    +0.000 A 
ATOM     17  C   UNL     1       2.420   4.368  20.563  0.00  0.00    +0.000 A 
ATOM     18  C   UNL     1       3.367   4.268  19.547  0.00  0.00    +0.000 A 
ATOM     19  C   UNL     1       3.702   5.388  18.790  0.00  0.00    +0.000 A 
ATOM     20  C   UNL     1       3.101   6.623  19.084  0.00  0.00    +0.000 A 
BRANCH  15  25
ATOM     21  C   UNL     1      -0.158  10.656  22.038  0.00  0.00    +0.000 C 
ATOM     22  C   UNL     1       0.494   9.758  21.064  0.00  0.00    +0.000 A 
ATOM     23  C   UNL     1       0.867  10.012  19.766  0.00  0.00    +0.000 A 
ATOM     24  O   UNL     1       1.470   8.899  19.272  0.00  0.00    +0.000 OA
ATOM     25  C   UNL     1       1.444   8.006  20.314  0.00  0.00    +0.000 A 
ATOM     26  N   UNL     1       0.854   8.470  21.401  0.00  0.00    +0.000 NA
ENDBRANCH  15  25
ENDBRANCH   1  19
TORSDOF 3
ENDMDL
MODEL 8
REMARK VINA RESULT:      -8.3      1.116      1.153
REMARK  Name = 
REMARK  4 active torsions:
REMARK  status: ('A' for Active; 'I' for Inactive)
REMARK    1  A    between atoms: C_1  and  C_2
REMARK    2  A    between atoms: C_5  and  C_6
REMARK    3  A    between atoms: C_10  and  N_11
REMARK    4  A    between atoms: C_12  and  C_14
REMARK                            x       y       z     vdW  Elec       q    Type
REMARK                         _______ _______ _______ _____ _____    ______ ____
ROOT
ATOM      1  N   UNL     1       1.623   6.863  20.883  0.00  0.00    +0.000 N 
ATOM      2  C   UNL     1       1.517   8.111  20.298  0.00  0.00    +0.000 C 
ATOM      3  O   UNL     1       1.872   8.403  19.164  0.00  0.00    +0.000 OA
ATOM      4  H   UNL     1       1.170   6.752  21.774  0.00  0.00    +0.000 HD
ENDROOT
BRANCH   2   5
ATOM      5  C   UNL     1       0.851   9.083  21.134  0.00  0.00    +0.000 A 
ATOM      6  N   UNL     1       0.965   9.049  22.503  0.00  0.00    +0.000 N 
ATOM      7  N   UNL     1       0.372  10.080  23.133  0.00  0.00    +0.000 NA
ATOM      8  C   UNL     1      -0.198  10.762  22.140  0.00  0.00    +0.000 A 
ATOM      9  C   UNL     1       0.026  10.164  20.876  0.00  0.00    +0.000 A 
ATOM     10  C   UNL     1      -0.544  10.712  19.614  0.00  0.00    +0.000 C 
ATOM     11  C   UNL     1      -1.653  11.736  19.895  0.00  0.00    +0.000 C 
ATOM     12  C   UNL     1      -1.240  12.718  21.004  0.00  0.00    +0.000 C 
ATOM     13  C   UNL     1      -1.003  11.997  22.346  0.00  0.00    +0.000 C 
ATOM     14  H   UNL     1       1.473   8.361  23.053  0.00  0.00    +0.000 HD
ENDBRANCH   2   5
BRANCH   1  19
ATOM     15  C   UNL     1       3.508   4.682  18.560  0.00  0.00    +0.000 A 
ATOM     16  C   UNL     1       3.348   3.434  19.174  0.00  0.00    +0.000 A 
ATOM     17  C   UNL     1       2.593   3.305  20.339  0.00  0.00    +0.000 A 
ATOM     18  C   UNL     1       1.992   4.423  20.914  0.00  0.00    +0.000 A 
ATOM     19  C   UNL     1       2.145   5.678  20.329  0.00  0.00    +0.000 A 
ATOM     20  C   UNL     1       2.880   5.797  19.138  0.00  0.00    +0.000 A 
BRANCH  15  25
ATOM     21  C   UNL     1       6.178   4.004  14.459  0.00  0.00    +0.000 C 
ATOM     22  C   UNL     1       5.483   4.664  15.582  0.00  0.00    +0.000 A 
ATOM     23  C   UNL     1       5.257   6.002  15.794  0.00  0.00    +0.000 A 
ATOM     24  O   UNL     1       4.539   6.135  16.940  0.00  0.00    +0.000 OA
ATOM     25  C   UNL     1       4.351   4.848  17.376  0.00  0.00    +0.000 A 
ATOM     26  N   UNL     1       4.913   3.935  16.605  0.00  0.00    +0.000 NA
ENDBRANCH  15  25
ENDBRANCH   1  19
TORSDOF 3
ENDMDL
MODEL 9
REMARK VINA RESULT:      -8.3      2.428      8.028
REMARK  Name = 
REMARK  4 active torsions:
REMARK  status: ('A' for Active; 'I' for Inactive)
REMARK    1  A    between atoms: C_1  and  C_2
REMARK    2  A    between atoms: C_5  and  C_6
REMARK    3  A    between atoms: C_10  and  N_11
REMARK    4  A    between atoms: C_12  and  C_14
REMARK                            x       y       z     vdW  Elec       q    Type
REMARK                         _______ _______ _______ _____ _____    ______ ____
ROOT
ATOM      1  N   UNL     1       2.380   7.369  19.996  0.00  0.00    +0.000 N 
ATOM      2  C   UNL     1       2.279   5.994  20.090  0.00  0.00    +0.000 C 
ATOM      3  O   UNL     1       1.376   5.377  20.641  0.00  0.00    +0.000 OA
ATOM      4  H   UNL     1       3.112   7.719  19.402  0.00  0.00    +0.000 HD
ENDROOT
BRANCH   2   5
ATOM      5  C   UNL     1       3.328   5.290  19.388  0.00  0.00    +0.000 A 
ATOM      6  N   UNL     1       3.816   4.090  19.846  0.00  0.00    +0.000 N 
ATOM      7  N   UNL     1       4.716   3.512  19.029  0.00  0.00    +0.000 NA
ATOM      8  C   UNL     1       4.860   4.402  18.048  0.00  0.00    +0.000 A 
ATOM      9  C   UNL     1       4.056   5.552  18.240  0.00  0.00    +0.000 A 
ATOM     10  C   UNL     1       4.070   6.711  17.304  0.00  0.00    +0.000 C 
ATOM     11  C   UNL     1       5.280   6.657  16.361  0.00  0.00    +0.000 C 
ATOM     12  C   UNL     1       5.482   5.244  15.788  0.00  0.00    +0.000 C 
ATOM     13  C   UNL     1       5.785   4.217  16.896  0.00  0.00    +0.000 C 
ATOM     14  H   UNL     1       3.536   3.605  20.694  0.00  0.00    +0.000 HD
ENDBRANCH   2   5
BRANCH   1  19
ATOM     15  C   UNL     1      -0.277   9.946  19.972  0.00  0.00    +0.000 A 
ATOM     16  C   UNL     1      -0.391  10.228  21.338  0.00  0.00    +0.000 A 
ATOM     17  C   UNL     1       0.430   9.590  22.268  0.00  0.00    +0.000 A 
ATOM     18  C   UNL     1       1.371   8.653  21.847  0.00  0.00    +0.000 A 
ATOM     19  C   UNL     1       1.498   8.348  20.494  0.00  0.00    +0.000 A 
ATOM     20  C   UNL     1       0.691   9.016  19.558  0.00  0.00    +0.000 A 
BRANCH  15  25
ATOM     21  C   UNL     1      -2.942  11.031  15.955  0.00  0.00    +0.000 C 
ATOM     22  C   UNL     1      -2.394  11.080  17.325  0.00  0.00    +0.000 A 
ATOM     23  C   UNL     1      -2.804  11.839  18.395  0.00  0.00    +0.000 A 
ATOM     24  O   UNL     1      -2.029  11.518  19.464  0.00  0.00    +0.000 OA
ATOM     25  C   UNL     1      -1.174  10.556  18.990  0.00  0.00    +0.000 A 
ATOM     26  N   UNL     1      -1.343  10.275  17.710  0.00  0.00    +0.000 NA
ENDBRANCH  15  25
ENDBRANCH   1  19
TORSDOF 3
ENDMDL
