MODEL 1
REMARK VINA RESULT:      -9.0      0.000      0.000
REMARK  Name = 
REMARK  4 active torsions:
REMARK  status: ('A' for Active; 'I' for Inactive)
REMARK    1  A    between atoms: C_2  and  C_12
REMARK    2  A    between atoms: N_3  and  C_4
REMARK    3  A    between atoms: C_4  and  C_5
REMARK    4  A    between atoms: C_14  and  C_15
REMARK                            x       y       z     vdW  Elec       q    Type
REMARK                         _______ _______ _______ _____ _____    ______ ____
ROOT
ATOM      1  C   UNL     1       4.340   5.124  18.269  0.00  0.00    +0.000 A 
ATOM      2  C   UNL     1       3.875   6.417  18.514  0.00  0.00    +0.000 A 
ATOM      3  C   UNL     1       2.603   6.596  19.025  0.00  0.00    +0.000 A 
ATOM      4  N   UNL     1       1.806   5.544  19.318  0.00  0.00    +0.000 NA
ATOM      5  C   UNL     1       2.236   4.292  19.075  0.00  0.00    +0.000 A 
ATOM      6  C   UNL     1       1.366   3.241  19.341  0.00  0.00    +0.000 A 
ATOM      7  C   UNL     1       1.715   1.909  19.111  0.00  0.00    +0.000 A 
ATOM      8  C   UNL     1       2.972   1.611  18.613  0.00  0.00    +0.000 A 
ATOM      9  C   UNL     1       3.863   2.646  18.339  0.00  0.00    +0.000 A 
ATOM     10  C   UNL     1       3.513   4.007  18.547  0.00  0.00    +0.000 A 
ENDROOT
BRANCH   3  11
ATOM     11  C   UNL     1       2.020   7.936  19.231  0.00  0.00    +0.000 A 
ATOM     12  C   UNL     1       1.965   8.885  18.198  0.00  0.00    +0.000 A 
ATOM     13  C   UNL     1       1.377  10.116  18.433  0.00  0.00    +0.000 A 
ATOM     14  N   UNL     1       0.846  10.476  19.615  0.00  0.00    +0.000 NA
ATOM     15  C   UNL     1       0.904   9.562  20.605  0.00  0.00    +0.000 A 
ATOM     16  C   UNL     1       1.472   8.305  20.465  0.00  0.00    +0.000 A 
ENDBRANCH   3  11
BRANCH   1  18
ATOM     17  O   UNL     1       6.616   4.476  18.178  0.00  0.00    +0.000 OA
ATOM     18  C   UNL     1       5.666   4.990  17.596  0.00  0.00    +0.000 C 
ATOM     19  N   UNL     1       5.749   5.422  16.288  0.00  0.00    +0.000 N 
ATOM     20  H   UNL     1       5.022   5.994  15.880  0.00  0.00    +0.000 HD
BRANCH  19  21
ATOM     21  C   UNL     1       6.985   5.302  15.546  0.00  0.00    +0.000 C 
BRANCH  21  22
ATOM     22  C   UNL     1       6.752   4.699  14.193  0.00  0.00    +0.000 A 
ATOM     23  C   UNL     1       5.682   3.819  13.971  0.00  0.00    +0.000 A 
ATOM     24  C   UNL     1       5.488   3.247  12.711  0.00  0.00    +0.000 A 
ATOM     25  C   UNL     1       6.362   3.540  11.666  0.00  0.00    +0.000 A 
ATOM     26  C   UNL     1       7.437   4.403  11.882  0.00  0.00    +0.000 A 
ATOM     27  C   UNL     1       7.625   4.969  13.139  0.00  0.00    +0.000 A 
ATOM     28  F   UNL     1       8.672   5.783  13.333  0.00  0.00    +0.000 F 
ENDBRANCH  21  22
ENDBRANCH  19  21
ENDBRANCH   1  18
TORSDOF 4
ENDMDL
MODEL 2
REMARK VINA RESULT:      -8.8      1.034      1.040
REMARK  Name = 
REMARK  4 active torsions:
REMARK  status: ('A' for Active; 'I' for Inactive)
REMARK    1  A    between atoms: C_2  and  C_12
REMARK    2  A    between atoms: N_3  and  C_4
REMARK    3  A    between atoms: C_4  and  C_5
REMARK    4  A    between atoms: C_14  and  C_15
REMARK                            x       y       z     vdW  Elec       q    Type
REMARK                         _______ _______ _______ _____ _____    ______ ____
ROOT
ATOM      1  C   UNL     1       4.073   5.885  17.396  0.00  0.00    +0.000 A 
ATOM      2  C   UNL     1       3.555   7.064  17.934  0.00  0.00    +0.000 A 
ATOM      3  C   UNL     1       2.482   7.000  18.804  0.00  0.00    +0.000 A 
ATOM      4  N   UNL     1       1.939   5.816  19.167  0.00  0.00    +0.000 NA
ATOM      5  C   UNL     1       2.419   4.673  18.646  0.00  0.00    +0.000 A 
ATOM      6  C   UNL     1       1.798   3.482  19.004  0.00  0.00    +0.000 A 
ATOM      7  C   UNL     1       2.216   2.245  18.509  0.00  0.00    +0.000 A 
ATOM      8  C   UNL     1       3.291   2.189  17.640  0.00  0.00    +0.000 A 
ATOM      9  C   UNL     1       3.933   3.368  17.266  0.00  0.00    +0.000 A 
ATOM     10  C   UNL     1       3.504   4.634  17.745  0.00  0.00    +0.000 A 
ENDROOT
BRANCH   3  11
ATOM     11  C   UNL     1       1.835   8.210  19.344  0.00  0.00    +0.000 A 
ATOM     12  C   UNL     1       1.566   9.328  18.537  0.00  0.00    +0.000 A 
ATOM     13  C   UNL     1       0.926  10.427  19.084  0.00  0.00    +0.000 A 
ATOM     14  N   UNL     1       0.540  10.501  20.371  0.00  0.00    +0.000 NA
ATOM     15  C   UNL     1       0.803   9.427  21.142  0.00  0.00    +0.000 A 
ATOM     16  C   UNL     1       1.437   8.283  20.684  0.00  0.00    +0.000 A 
ENDBRANCH   3  11
BRANCH   1  18
ATOM     17  O   UNL     1       5.100   6.910  15.524  0.00  0.00    +0.000 OA
ATOM     18  C   UNL     1       5.144   6.016  16.364  0.00  0.00    +0.000 C 
ATOM     19  N   UNL     1       6.195   5.125  16.437  0.00  0.00    +0.000 N 
ATOM     20  H   UNL     1       6.138   4.297  17.014  0.00  0.00    +0.000 HD
BRANCH  19  21
ATOM     21  C   UNL     1       7.293   5.198  15.499  0.00  0.00    +0.000 C 
BRANCH  21  22
ATOM     22  C   UNL     1       6.909   4.633  14.164  0.00  0.00    +0.000 A 
ATOM     23  C   UNL     1       5.827   3.750  14.040  0.00  0.00    +0.000 A 
ATOM     24  C   UNL     1       5.491   3.214  12.794  0.00  0.00    +0.000 A 
ATOM     25  C   UNL     1       6.235   3.548  11.663  0.00  0.00    +0.000 A 
ATOM     26  C   UNL     1       7.322   4.415  11.780  0.00  0.00    +0.000 A 
ATOM     27  C   UNL     1       7.651   4.945  13.024  0.00  0.00    +0.000 A 
ATOM     28  F   UNL     1       8.708   5.763  13.121  0.00  0.00    +0.000 F 
ENDBRANCH  21  22
ENDBRANCH  19  21
ENDBRANCH   1  18
TORSDOF 4
ENDMDL
MODEL 3
REMARK VINA RESULT:      -8.6      0.938      1.305
REMARK  Name = 
REMARK  4 active torsions:
REMARK  status: ('A' for Active; 'I' for Inactive)
REMARK    1  A    between atoms: C_2  and  C_12
REMARK    2  A    between atoms: N_3  and  C_4
REMARK    3  A    between atoms: C_4  and  C_5
REMARK    4  A    between atoms: C_14  and  C_15
REMARK                            x       y       z     vdW  Elec       q    Type
REMARK                         _______ _______ _______ _____ _____    ______ ____
ROOT
ATOM      1  C   UNL     1       4.364   5.118  18.491  0.00  0.00    +0.000 A 
ATOM      2  C   UNL     1       3.882   6.403  18.748  0.00  0.00    +0.000 A 
ATOM      3  C   UNL     1       2.571   6.568  19.155  0.00  0.00    +0.000 A 
ATOM      4  N   UNL     1       1.750   5.508  19.336  0.00  0.00    +0.000 NA
ATOM      5  C   UNL     1       2.197   4.266  19.079  0.00  0.00    +0.000 A 
ATOM      6  C   UNL     1       1.306   3.209  19.226  0.00  0.00    +0.000 A 
ATOM      7  C   UNL     1       1.671   1.885  18.973  0.00  0.00    +0.000 A 
ATOM      8  C   UNL     1       2.965   1.601  18.572  0.00  0.00    +0.000 A 
ATOM      9  C   UNL     1       3.879   2.642  18.418  0.00  0.00    +0.000 A 
ATOM     10  C   UNL     1       3.514   3.995  18.652  0.00  0.00    +0.000 A 
ENDROOT
BRANCH   3  11
ATOM     11  C   UNL     1       1.975   7.901  19.365  0.00  0.00    +0.000 A 
ATOM     12  C   UNL     1       1.882   8.841  18.326  0.00  0.00    +0.000 A 
ATOM     13  C   UNL     1       1.284  10.066  18.566  0.00  0.00    +0.000 A 
ATOM     14  N   UNL     1       0.777  10.428  19.759  0.00  0.00    +0.000 NA
ATOM     15  C   UNL     1       0.871   9.523  20.754  0.00  0.00    +0.000 A 
ATOM     16  C   UNL     1       1.452   8.273  20.609  0.00  0.00    +0.000 A 
ENDBRANCH   3  11
BRANCH   1  18
ATOM     17  O   UNL     1       6.652   4.513  18.591  0.00  0.00    +0.000 OA
ATOM     18  C   UNL     1       5.743   5.005  17.930  0.00  0.00    +0.000 C 
ATOM     19  N   UNL     1       5.924   5.428  16.629  0.00  0.00    +0.000 N 
ATOM     20  H   UNL     1       5.222   5.983  16.158  0.00  0.00    +0.000 HD
BRANCH  19  21
ATOM     21  C   UNL     1       7.218   5.326  15.991  0.00  0.00    +0.000 C 
BRANCH  21  22
ATOM     22  C   UNL     1       7.091   4.854  14.573  0.00  0.00    +0.000 A 
ATOM     23  C   UNL     1       7.782   5.496  13.535  0.00  0.00    +0.000 A 
ATOM     24  C   UNL     1       7.639   5.060  12.216  0.00  0.00    +0.000 A 
ATOM     25  C   UNL     1       6.801   3.987  11.919  0.00  0.00    +0.000 A 
ATOM     26  C   UNL     1       6.098   3.351  12.943  0.00  0.00    +0.000 A 
ATOM     27  C   UNL     1       6.245   3.791  14.255  0.00  0.00    +0.000 A 
ATOM     28  F   UNL     1       5.550   3.180  15.225  0.00  0.00    +0.000 F 
ENDBRANCH  21  22
ENDBRANCH  19  21
ENDBRANCH   1  18
TORSDOF 4
ENDMDL
MODEL 4
REMARK VINA RESULT:      -8.4      3.313      7.572
REMARK  Name = 
REMARK  4 active torsions:
REMARK  status: ('A' for Active; 'I' for Inactive)
REMARK    1  A    between atoms: C_2  and  C_12
REMARK    2  A    between atoms: N_3  and  C_4
REMARK    3  A    between atoms: C_4  and  C_5
REMARK    4  A    between atoms: C_14  and  C_15
REMARK                            x       y       z     vdW  Elec       q    Type
REMARK                         _______ _______ _______ _____ _____    ______ ____
ROOT
ATOM      1  C   UNL     1       2.601   6.246  18.809  0.00  0.00    +0.000 A 
ATOM      2  C   UNL     1       3.605   6.343  17.844  0.00  0.00    +0.000 A 
ATOM      3  C   UNL     1       4.161   5.190  17.324  0.00  0.00    +0.000 A 
ATOM      4  N   UNL     1       3.736   3.965  17.711  0.00  0.00    +0.000 NA
ATOM      5  C   UNL     1       2.779   3.857  18.651  0.00  0.00    +0.000 A 
ATOM      6  C   UNL     1       2.408   2.581  19.059  0.00  0.00    +0.000 A 
ATOM      7  C   UNL     1       1.434   2.364  20.035  0.00  0.00    +0.000 A 
ATOM      8  C   UNL     1       0.800   3.449  20.616  0.00  0.00    +0.000 A 
ATOM      9  C   UNL     1       1.152   4.739  20.223  0.00  0.00    +0.000 A 
ATOM     10  C   UNL     1       2.157   4.974  19.247  0.00  0.00    +0.000 A 
ENDROOT
BRANCH   3  11
ATOM     11  C   UNL     1       5.279   5.220  16.362  0.00  0.00    +0.000 A 
ATOM     12  C   UNL     1       6.419   6.011  16.578  0.00  0.00    +0.000 A 
ATOM     13  C   UNL     1       7.456   5.979  15.661  0.00  0.00    +0.000 A 
ATOM     14  N   UNL     1       7.443   5.226  14.546  0.00  0.00    +0.000 NA
ATOM     15  C   UNL     1       6.345   4.470  14.342  0.00  0.00    +0.000 A 
ATOM     16  C   UNL     1       5.258   4.436  15.202  0.00  0.00    +0.000 A 
ENDBRANCH   3  11
BRANCH   1  18
ATOM     17  O   UNL     1       2.086   7.642  20.653  0.00  0.00    +0.000 OA
ATOM     18  C   UNL     1       2.127   7.518  19.433  0.00  0.00    +0.000 C 
ATOM     19  N   UNL     1       1.793   8.547  18.576  0.00  0.00    +0.000 N 
ATOM     20  H   UNL     1       1.666   8.382  17.586  0.00  0.00    +0.000 HD
BRANCH  19  21
ATOM     21  C   UNL     1       1.355   9.826  19.090  0.00  0.00    +0.000 C 
BRANCH  21  22
ATOM     22  C   UNL     1      -0.041  10.143  18.645  0.00  0.00    +0.000 A 
ATOM     23  C   UNL     1      -0.577   9.564  17.485  0.00  0.00    +0.000 A 
ATOM     24  C   UNL     1      -1.872   9.884  17.070  0.00  0.00    +0.000 A 
ATOM     25  C   UNL     1      -2.640  10.788  17.801  0.00  0.00    +0.000 A 
ATOM     26  C   UNL     1      -2.110  11.380  18.948  0.00  0.00    +0.000 A 
ATOM     27  C   UNL     1      -0.819  11.057  19.356  0.00  0.00    +0.000 A 
ATOM     28  F   UNL     1      -0.320  11.647  20.451  0.00  0.00    +0.000 F 
ENDBRANCH  21  22
ENDBRANCH  19  21
ENDBRANCH   1  18
TORSDOF 4
ENDMDL
MODEL 5
REMARK VINA RESULT:      -8.2      0.750      1.167
REMARK  Name = 
REMARK  4 active torsions:
REMARK  status: ('A' for Active; 'I' for Inactive)
REMARK    1  A    between atoms: C_2  and  C_12
REMARK    2  A    between atoms: N_3  and  C_4
REMARK    3  A    between atoms: C_4  and  C_5
REMARK    4  A    between atoms: C_14  and  C_15
REMARK                            x       y       z     vdW  Elec       q    Type
REMARK                         _______ _______ _______ _____ _____    ______ ____
ROOT
ATOM      1  C   UNL     1       4.617   5.455  18.649  0.00  0.00    +0.000 A 
ATOM      2  C   UNL     1       4.018   6.714  18.584  0.00  0.00    +0.000 A 
ATOM      3  C   UNL     1       2.770   6.901  19.147  0.00  0.00    +0.000 A 
ATOM      4  N   UNL     1       2.125   5.897  19.784  0.00  0.00    +0.000 NA
ATOM      5  C   UNL     1       2.685   4.675  19.842  0.00  0.00    +0.000 A 
ATOM      6  C   UNL     1       1.966   3.658  20.460  0.00  0.00    +0.000 A 
ATOM      7  C   UNL     1       2.457   2.354  20.561  0.00  0.00    +0.000 A 
ATOM      8  C   UNL     1       3.705   2.055  20.042  0.00  0.00    +0.000 A 
ATOM      9  C   UNL     1       4.447   3.057  19.419  0.00  0.00    +0.000 A 
ATOM     10  C   UNL     1       3.950   4.382  19.291  0.00  0.00    +0.000 A 
ENDROOT
BRANCH   3  11
ATOM     11  C   UNL     1       2.045   8.182  19.044  0.00  0.00    +0.000 A 
ATOM     12  C   UNL     1       1.293   8.694  20.114  0.00  0.00    +0.000 A 
ATOM     13  C   UNL     1       0.657   9.917  19.979  0.00  0.00    +0.000 A 
ATOM     14  N   UNL     1       0.709  10.664  18.861  0.00  0.00    +0.000 NA
ATOM     15  C   UNL     1       1.430  10.167  17.836  0.00  0.00    +0.000 A 
ATOM     16  C   UNL     1       2.100   8.954  17.878  0.00  0.00    +0.000 A 
ENDBRANCH   3  11
BRANCH   1  18
ATOM     17  O   UNL     1       6.922   4.928  18.505  0.00  0.00    +0.000 OA
ATOM     18  C   UNL     1       5.904   5.271  17.913  0.00  0.00    +0.000 C 
ATOM     19  N   UNL     1       5.873   5.456  16.545  0.00  0.00    +0.000 N 
ATOM     20  H   UNL     1       5.084   5.900  16.096  0.00  0.00    +0.000 HD
BRANCH  19  21
ATOM     21  C   UNL     1       7.064   5.268  15.746  0.00  0.00    +0.000 C 
BRANCH  21  22
ATOM     22  C   UNL     1       6.732   4.696  14.400  0.00  0.00    +0.000 A 
ATOM     23  C   UNL     1       5.627   3.849  14.229  0.00  0.00    +0.000 A 
ATOM     24  C   UNL     1       5.341   3.306  12.974  0.00  0.00    +0.000 A 
ATOM     25  C   UNL     1       6.157   3.596  11.882  0.00  0.00    +0.000 A 
ATOM     26  C   UNL     1       7.267   4.426  12.046  0.00  0.00    +0.000 A 
ATOM     27  C   UNL     1       7.546   4.964  13.299  0.00  0.00    +0.000 A 
ATOM     28  F   UNL     1       8.625   5.746  13.442  0.00  0.00    +0.000 F 
ENDBRANCH  21  22
ENDBRANCH  19  21
ENDBRANCH   1  18
TORSDOF 4
ENDMDL
MODEL 6
REMARK VINA RESULT:      -8.1      4.484      7.297
REMARK  Name = 
REMARK  4 active torsions:
REMARK  status: ('A' for Active; 'I' for Inactive)
REMARK    1  A    between atoms: C_2  and  C_12
REMARK    2  A    between atoms: N_3  and  C_4
REMARK    3  A    between atoms: C_4  and  C_5
REMARK    4  A    between atoms: C_14  and  C_15
REMARK                            x       y       z     vdW  Elec       q    Type
REMARK                         _______ _______ _______ _____ _____    ______ ____
ROOT
ATOM      1  C   UNL     1       1.441  10.079  19.330  0.00  0.00    +0.000 A 
ATOM      2  C   UNL     1       1.804  11.324  18.812  0.00  0.00    +0.000 A 
ATOM      3  C   UNL     1       1.446  12.472  19.493  0.00  0.00    +0.000 A 
ATOM      4  N   UNL     1       0.774  12.417  20.665  0.00  0.00    +0.000 NA
ATOM      5  C   UNL     1       0.406  11.225  21.169  0.00  0.00    +0.000 A 
ATOM      6  C   UNL     1      -0.329  11.215  22.349  0.00  0.00    +0.000 A 
ATOM      7  C   UNL     1      -0.766  10.030  22.944  0.00  0.00    +0.000 A 
ATOM      8  C   UNL     1      -0.453   8.817  22.355  0.00  0.00    +0.000 A 
ATOM      9  C   UNL     1       0.285   8.800  21.173  0.00  0.00    +0.000 A 
ATOM     10  C   UNL     1       0.717   9.998  20.546  0.00  0.00    +0.000 A 
ENDROOT
BRANCH   3  11
ATOM     11  C   UNL     1       1.725  13.820  18.962  0.00  0.00    +0.000 A 
ATOM     12  C   UNL     1       0.845  14.894  19.171  0.00  0.00    +0.000 A 
ATOM     13  C   UNL     1       1.169  16.148  18.680  0.00  0.00    +0.000 A 
ATOM     14  N   UNL     1       2.296  16.412  17.994  0.00  0.00    +0.000 NA
ATOM     15  C   UNL     1       3.137  15.377  17.794  0.00  0.00    +0.000 A 
ATOM     16  C   UNL     1       2.898  14.089  18.247  0.00  0.00    +0.000 A 
ENDBRANCH   3  11
BRANCH   1  18
ATOM     17  O   UNL     1       1.591   8.911  17.275  0.00  0.00    +0.000 OA
ATOM     18  C   UNL     1       1.736   8.878  18.493  0.00  0.00    +0.000 C 
ATOM     19  N   UNL     1       2.223   7.765  19.148  0.00  0.00    +0.000 N 
ATOM     20  H   UNL     1       2.176   7.689  20.155  0.00  0.00    +0.000 HD
BRANCH  19  21
ATOM     21  C   UNL     1       2.567   6.566  18.414  0.00  0.00    +0.000 C 
BRANCH  21  22
ATOM     22  C   UNL     1       2.088   5.336  19.124  0.00  0.00    +0.000 A 
ATOM     23  C   UNL     1       2.170   5.232  20.521  0.00  0.00    +0.000 A 
ATOM     24  C   UNL     1       1.740   4.072  21.169  0.00  0.00    +0.000 A 
ATOM     25  C   UNL     1       1.232   3.003  20.432  0.00  0.00    +0.000 A 
ATOM     26  C   UNL     1       1.161   3.092  19.041  0.00  0.00    +0.000 A 
ATOM     27  C   UNL     1       1.591   4.251  18.401  0.00  0.00    +0.000 A 
ATOM     28  F   UNL     1       1.530   4.313  17.064  0.00  0.00    +0.000 F 
ENDBRANCH  21  22
ENDBRANCH  19  21
ENDBRANCH   1  18
TORSDOF 4
ENDMDL
MODEL 7
REMARK VINA RESULT:      -8.0      3.417      6.301
REMARK  Name = 
REMARK  4 active torsions:
REMARK  status: ('A' for Active; 'I' for Inactive)
REMARK    1  A    between atoms: C_2  and  C_12
REMARK    2  A    between atoms: N_3  and  C_4
REMARK    3  A    between atoms: C_4  and  C_5
REMARK    4  A    between atoms: C_14  and  C_15
REMARK                            x       y       z     vdW  Elec       q    Type
REMARK                         _______ _______ _______ _____ _____    ______ ____
ROOT
ATOM      1  C   UNL     1       0.920   9.237  18.796  0.00  0.00    +0.000 A 
ATOM      2  C   UNL     1      -0.083   9.685  17.935  0.00  0.00    +0.000 A 
ATOM      3  C   UNL     1      -1.232  10.242  18.463  0.00  0.00    +0.000 A 
ATOM      4  N   UNL     1      -1.397  10.388  19.797  0.00  0.00    +0.000 NA
ATOM      5  C   UNL     1      -0.445   9.948  20.640  0.00  0.00    +0.000 A 
ATOM      6  C   UNL     1      -0.677  10.068  22.005  0.00  0.00    +0.000 A 
ATOM      7  C   UNL     1       0.245   9.631  22.959  0.00  0.00    +0.000 A 
ATOM      8  C   UNL     1       1.439   9.068  22.542  0.00  0.00    +0.000 A 
ATOM      9  C   UNL     1       1.697   8.938  21.179  0.00  0.00    +0.000 A 
ATOM     10  C   UNL     1       0.759   9.358  20.199  0.00  0.00    +0.000 A 
ENDROOT
BRANCH   3  11
ATOM     11  C   UNL     1      -2.364  10.662  17.615  0.00  0.00    +0.000 A 
ATOM     12  C   UNL     1      -3.477  11.334  18.146  0.00  0.00    +0.000 A 
ATOM     13  C   UNL     1      -4.499  11.736  17.302  0.00  0.00    +0.000 A 
ATOM     14  N   UNL     1      -4.501  11.515  15.975  0.00  0.00    +0.000 NA
ATOM     15  C   UNL     1      -3.431  10.867  15.470  0.00  0.00    +0.000 A 
ATOM     16  C   UNL     1      -2.362  10.427  16.234  0.00  0.00    +0.000 A 
ENDBRANCH   3  11
BRANCH   1  18
ATOM     17  O   UNL     1       2.916   9.138  17.525  0.00  0.00    +0.000 OA
ATOM     18  C   UNL     1       2.080   8.526  18.183  0.00  0.00    +0.000 C 
ATOM     19  N   UNL     1       2.188   7.173  18.434  0.00  0.00    +0.000 N 
ATOM     20  H   UNL     1       1.415   6.651  18.825  0.00  0.00    +0.000 HD
BRANCH  19  21
ATOM     21  C   UNL     1       3.297   6.408  17.908  0.00  0.00    +0.000 C 
BRANCH  21  22
ATOM     22  C   UNL     1       2.997   4.939  17.913  0.00  0.00    +0.000 A 
ATOM     23  C   UNL     1       1.705   4.468  18.188  0.00  0.00    +0.000 A 
ATOM     24  C   UNL     1       1.443   3.096  18.210  0.00  0.00    +0.000 A 
ATOM     25  C   UNL     1       2.467   2.182  17.966  0.00  0.00    +0.000 A 
ATOM     26  C   UNL     1       3.758   2.641  17.705  0.00  0.00    +0.000 A 
ATOM     27  C   UNL     1       4.013   4.009  17.685  0.00  0.00    +0.000 A 
ATOM     28  F   UNL     1       5.263   4.432  17.449  0.00  0.00    +0.000 F 
ENDBRANCH  21  22
ENDBRANCH  19  21
ENDBRANCH   1  18
TORSDOF 4
ENDMDL
MODEL 8
REMARK VINA RESULT:      -7.9      3.848      6.402
REMARK  Name = 
REMARK  4 active torsions:
REMARK  status: ('A' for Active; 'I' for Inactive)
REMARK    1  A    between atoms: C_2  and  C_12
REMARK    2  A    between atoms: N_3  and  C_4
REMARK    3  A    between atoms: C_4  and  C_5
REMARK    4  A    between atoms: C_14  and  C_15
REMARK                            x       y       z     vdW  Elec       q    Type
REMARK                         _______ _______ _______ _____ _____    ______ ____
ROOT
ATOM      1  C   UNL     1       0.932   9.252  18.858  0.00  0.00    +0.000 A 
ATOM      2  C   UNL     1      -0.057   9.711  17.986  0.00  0.00    +0.000 A 
ATOM      3  C   UNL     1      -1.199  10.295  18.500  0.00  0.00    +0.000 A 
ATOM      4  N   UNL     1      -1.370  10.456  19.832  0.00  0.00    +0.000 NA
ATOM      5  C   UNL     1      -0.432  10.006  20.685  0.00  0.00    +0.000 A 
ATOM      6  C   UNL     1      -0.670  10.144  22.048  0.00  0.00    +0.000 A 
ATOM      7  C   UNL     1       0.237   9.699  23.012  0.00  0.00    +0.000 A 
ATOM      8  C   UNL     1       1.423   9.110  22.609  0.00  0.00    +0.000 A 
ATOM      9  C   UNL     1       1.687   8.961  21.248  0.00  0.00    +0.000 A 
ATOM     10  C   UNL     1       0.763   9.390  20.259  0.00  0.00    +0.000 A 
ENDROOT
BRANCH   3  11
ATOM     11  C   UNL     1      -2.317  10.727  17.641  0.00  0.00    +0.000 A 
ATOM     12  C   UNL     1      -2.327  10.476  16.259  0.00  0.00    +0.000 A 
ATOM     13  C   UNL     1      -3.416  10.873  15.501  0.00  0.00    +0.000 A 
ATOM     14  N   UNL     1      -4.490  11.504  16.010  0.00  0.00    +0.000 NA
ATOM     15  C   UNL     1      -4.474  11.745  17.338  0.00  0.00    +0.000 A 
ATOM     16  C   UNL     1      -3.431  11.385  18.176  0.00  0.00    +0.000 A 
ENDBRANCH   3  11
BRANCH   1  18
ATOM     17  O   UNL     1       2.889   9.088  17.534  0.00  0.00    +0.000 OA
ATOM     18  C   UNL     1       2.082   8.513  18.259  0.00  0.00    +0.000 C 
ATOM     19  N   UNL     1       2.217   7.183  18.601  0.00  0.00    +0.000 N 
ATOM     20  H   UNL     1       1.464   6.681  19.051  0.00  0.00    +0.000 HD
BRANCH  19  21
ATOM     21  C   UNL     1       3.320   6.396  18.095  0.00  0.00    +0.000 C 
BRANCH  21  22
ATOM     22  C   UNL     1       3.061   4.928  18.255  0.00  0.00    +0.000 A 
ATOM     23  C   UNL     1       1.802   4.382  17.964  0.00  0.00    +0.000 A 
ATOM     24  C   UNL     1       1.567   3.016  18.137  0.00  0.00    +0.000 A 
ATOM     25  C   UNL     1       2.582   2.184  18.608  0.00  0.00    +0.000 A 
ATOM     26  C   UNL     1       3.833   2.721  18.914  0.00  0.00    +0.000 A 
ATOM     27  C   UNL     1       4.060   4.083  18.739  0.00  0.00    +0.000 A 
ATOM     28  F   UNL     1       5.263   4.584  19.052  0.00  0.00    +0.000 F 
ENDBRANCH  21  22
ENDBRANCH  19  21
ENDBRANCH   1  18
TORSDOF 4
ENDMDL
MODEL 9
REMARK VINA RESULT:      -7.9      4.024      6.541
REMARK  Name = 
REMARK  4 active torsions:
REMARK  status: ('A' for Active; 'I' for Inactive)
REMARK    1  A    between atoms: C_2  and  C_12
REMARK    2  A    between atoms: N_3  and  C_4
REMARK    3  A    between atoms: C_4  and  C_5
REMARK    4  A    between atoms: C_14  and  C_15
REMARK                            x       y       z     vdW  Elec       q    Type
REMARK                         _______ _______ _______ _____ _____    ______ ____
ROOT
ATOM      1  C   UNL     1       0.918   9.174  18.781  0.00  0.00    +0.000 A 
ATOM      2  C   UNL     1      -0.078   9.642  17.923  0.00  0.00    +0.000 A 
ATOM      3  C   UNL     1      -1.199  10.253  18.453  0.00  0.00    +0.000 A 
ATOM      4  N   UNL     1      -1.341  10.431  19.786  0.00  0.00    +0.000 NA
ATOM      5  C   UNL     1      -0.395   9.973  20.626  0.00  0.00    +0.000 A 
ATOM      6  C   UNL     1      -0.604  10.129  21.991  0.00  0.00    +0.000 A 
ATOM      7  C   UNL     1       0.313   9.678  22.942  0.00  0.00    +0.000 A 
ATOM      8  C   UNL     1       1.480   9.062  22.523  0.00  0.00    +0.000 A 
ATOM      9  C   UNL     1       1.715   8.895  21.159  0.00  0.00    +0.000 A 
ATOM     10  C   UNL     1       0.780   9.330  20.183  0.00  0.00    +0.000 A 
ENDROOT
BRANCH   3  11
ATOM     11  C   UNL     1      -2.326  10.697  17.610  0.00  0.00    +0.000 A 
ATOM     12  C   UNL     1      -2.358  10.447  16.229  0.00  0.00    +0.000 A 
ATOM     13  C   UNL     1      -3.454  10.856  15.487  0.00  0.00    +0.000 A 
ATOM     14  N   UNL     1      -4.515  11.496  16.013  0.00  0.00    +0.000 NA
ATOM     15  C   UNL     1      -4.477  11.735  17.340  0.00  0.00    +0.000 A 
ATOM     16  C   UNL     1      -3.425  11.364  18.163  0.00  0.00    +0.000 A 
ENDBRANCH   3  11
BRANCH   1  18
ATOM     17  O   UNL     1       2.828   8.952  17.397  0.00  0.00    +0.000 OA
ATOM     18  C   UNL     1       2.044   8.408  18.168  0.00  0.00    +0.000 C 
ATOM     19  N   UNL     1       2.182   7.088  18.550  0.00  0.00    +0.000 N 
ATOM     20  H   UNL     1       1.442   6.607  19.042  0.00  0.00    +0.000 HD
BRANCH  19  21
ATOM     21  C   UNL     1       3.262   6.278  18.033  0.00  0.00    +0.000 C 
BRANCH  21  22
ATOM     22  C   UNL     1       3.085   4.835  18.401  0.00  0.00    +0.000 A 
ATOM     23  C   UNL     1       4.051   4.161  19.162  0.00  0.00    +0.000 A 
ATOM     24  C   UNL     1       3.885   2.811  19.480  0.00  0.00    +0.000 A 
ATOM     25  C   UNL     1       2.759   2.120  19.036  0.00  0.00    +0.000 A 
ATOM     26  C   UNL     1       1.800   2.778  18.266  0.00  0.00    +0.000 A 
ATOM     27  C   UNL     1       1.972   4.122  17.952  0.00  0.00    +0.000 A 
ATOM     28  F   UNL     1       1.049   4.735  17.198  0.00  0.00    +0.000 F 
ENDBRANCH  21  22
ENDBRANCH  19  21
ENDBRANCH   1  18
TORSDOF 4
ENDMDL
