MODEL 1
REMARK VINA RESULT:      -8.8      0.000      0.000
REMARK  Name = 
REMARK  7 active torsions:
REMARK  status: ('A' for Active; 'I' for Inactive)
REMARK    1  A    between atoms: C_1  and  C_2
REMARK    2  A    between atoms: C_3  and  C_4
REMARK    3  A    between atoms: N_6  and  C_7
REMARK    4  A    between atoms: C_7  and  C_8
REMARK    5  A    between atoms: C_8  and  C_9
REMARK    6  A    between atoms: N_20  and  C_21
REMARK    7  A    between atoms: C_25  and  C_26
REMARK                            x       y       z     vdW  Elec       q    Type
REMARK                         _______ _______ _______ _____ _____    ______ ____
ROOT
ATOM      1  C   UNL     1       5.017   6.869  17.081  0.00  0.00    +0.000 C 
ATOM      2  C   UNL     1       5.969   6.218  18.020  0.00  0.00    +0.000 A 
ATOM      3  C   UNL     1       7.240   6.665  18.424  0.00  0.00    +0.000 A 
ATOM      4  C   UNL     1       7.567   5.723  19.430  0.00  0.00    +0.000 A 
ATOM      5  N   UNL     1       6.592   4.826  19.686  0.00  0.00    +0.000 NA
ATOM      6  N   UNL     1       5.633   5.067  18.756  0.00  0.00    +0.000 N 
ENDROOT
BRANCH   6   7
ATOM      7  C   UNL     1       4.446   4.231  18.641  0.00  0.00    +0.000 A 
ATOM      8  C   UNL     1       4.278   3.380  17.539  0.00  0.00    +0.000 A 
ATOM      9  C   UNL     1       3.102   2.651  17.331  0.00  0.00    +0.000 A 
ATOM     10  C   UNL     1       2.066   2.728  18.246  0.00  0.00    +0.000 A 
ATOM     11  C   UNL     1       2.213   3.508  19.412  0.00  0.00    +0.000 A 
ATOM     12  C   UNL     1       3.421   4.248  19.608  0.00  0.00    +0.000 A 
BRANCH  11  13
ATOM     13  C   UNL     1       1.081   3.535  20.414  0.00  0.00    +0.000 C 
ATOM     14  F   UNL     1       0.635   4.803  20.691  0.00  0.00    +0.000 F 
ATOM     15  F   UNL     1      -0.025   2.859  19.989  0.00  0.00    +0.000 F 
ATOM     16  F   UNL     1       1.416   3.003  21.615  0.00  0.00    +0.000 F 
ENDBRANCH  11  13
ENDBRANCH   6   7
BRANCH   3  17
ATOM     17  C   UNL     1       7.926   7.856  17.842  0.00  0.00    +0.000 C 
ATOM     18  O   UNL     1       8.297   7.830  16.669  0.00  0.00    +0.000 OA
ATOM     19  N   UNL     1       8.177   9.025  18.552  0.00  0.00    +0.000 N 
ATOM     20  H   UNL     1       8.186   8.936  19.565  0.00  0.00    +0.000 HD
BRANCH  19  21
ATOM     21  C   UNL     1       9.009  10.130  17.973  0.00  0.00    +0.000 C 
BRANCH  21  22
ATOM     22  C   UNL     1       9.823  11.155  18.903  0.00  0.00    +0.000 C 
BRANCH  22  23
ATOM     23  C   UNL     1      10.345  12.373  18.160  0.00  0.00    +0.000 A 
ATOM     24  N   UNL     1      11.365  12.250  17.319  0.00  0.00    +0.000 NA
ATOM     25  N   UNL     1      11.780  13.484  16.911  0.00  0.00    +0.000 NA
ATOM     26  C   UNL     1      10.962  14.361  17.447  0.00  0.00    +0.000 A 
ATOM     27  C   UNL     1      10.991  15.803  17.471  0.00  0.00    +0.000 A 
ATOM     28  C   UNL     1       9.775  16.378  17.327  0.00  0.00    +0.000 A 
ATOM     29  C   UNL     1       8.688  15.778  18.114  0.00  0.00    +0.000 A 
ATOM     30  C   UNL     1       8.768  14.480  18.498  0.00  0.00    +0.000 A 
ATOM     31  N   UNL     1       9.908  13.722  18.104  0.00  0.00    +0.000 N 
ENDBRANCH  22  23
ENDBRANCH  21  22
ENDBRANCH  19  21
ENDBRANCH   3  17
TORSDOF 6
ENDMDL
MODEL 2
REMARK VINA RESULT:      -8.6      0.646      1.537
REMARK  Name = 
REMARK  7 active torsions:
REMARK  status: ('A' for Active; 'I' for Inactive)
REMARK    1  A    between atoms: C_1  and  C_2
REMARK    2  A    between atoms: C_3  and  C_4
REMARK    3  A    between atoms: N_6  and  C_7
REMARK    4  A    between atoms: C_7  and  C_8
REMARK    5  A    between atoms: C_8  and  C_9
REMARK    6  A    between atoms: N_20  and  C_21
REMARK    7  A    between atoms: C_25  and  C_26
REMARK                            x       y       z     vdW  Elec       q    Type
REMARK                         _______ _______ _______ _____ _____    ______ ____
ROOT
ATOM      1  C   UNL     1       4.985   6.907  17.148  0.00  0.00    +0.000 C 
ATOM      2  C   UNL     1       5.963   6.241  18.049  0.00  0.00    +0.000 A 
ATOM      3  C   UNL     1       7.246   6.682  18.422  0.00  0.00    +0.000 A 
ATOM      4  C   UNL     1       7.601   5.724  19.403  0.00  0.00    +0.000 A 
ATOM      5  N   UNL     1       6.634   4.822  19.673  0.00  0.00    +0.000 NA
ATOM      6  N   UNL     1       5.649   5.078  18.775  0.00  0.00    +0.000 N 
ENDROOT
BRANCH   6   7
ATOM      7  C   UNL     1       4.458   4.244  18.680  0.00  0.00    +0.000 A 
ATOM      8  C   UNL     1       4.294   3.355  17.609  0.00  0.00    +0.000 A 
ATOM      9  C   UNL     1       3.117   2.625  17.418  0.00  0.00    +0.000 A 
ATOM     10  C   UNL     1       2.074   2.739  18.322  0.00  0.00    +0.000 A 
ATOM     11  C   UNL     1       2.216   3.560  19.459  0.00  0.00    +0.000 A 
ATOM     12  C   UNL     1       3.426   4.301  19.638  0.00  0.00    +0.000 A 
BRANCH  11  13
ATOM     13  C   UNL     1       1.076   3.629  20.451  0.00  0.00    +0.000 C 
ATOM     14  F   UNL     1      -0.063   3.002  20.009  0.00  0.00    +0.000 F 
ATOM     15  F   UNL     1       1.367   3.030  21.642  0.00  0.00    +0.000 F 
ATOM     16  F   UNL     1       0.696   4.897  20.743  0.00  0.00    +0.000 F 
ENDBRANCH  11  13
ENDBRANCH   6   7
BRANCH   3  17
ATOM     17  C   UNL     1       7.915   7.883  17.840  0.00  0.00    +0.000 C 
ATOM     18  O   UNL     1       8.265   7.870  16.661  0.00  0.00    +0.000 OA
ATOM     19  N   UNL     1       8.172   9.045  18.558  0.00  0.00    +0.000 N 
ATOM     20  H   UNL     1       8.201   8.946  19.570  0.00  0.00    +0.000 HD
BRANCH  19  21
ATOM     21  C   UNL     1       8.989  10.160  17.975  0.00  0.00    +0.000 C 
BRANCH  21  22
ATOM     22  C   UNL     1      10.040  10.994  18.858  0.00  0.00    +0.000 C 
BRANCH  22  23
ATOM     23  C   UNL     1       9.754  12.485  18.905  0.00  0.00    +0.000 A 
ATOM     24  N   UNL     1       8.917  12.971  19.815  0.00  0.00    +0.000 NA
ATOM     25  N   UNL     1       8.669  14.288  19.558  0.00  0.00    +0.000 NA
ATOM     26  C   UNL     1       9.416  14.627  18.532  0.00  0.00    +0.000 A 
ATOM     27  C   UNL     1       9.471  15.838  17.751  0.00  0.00    +0.000 A 
ATOM     28  C   UNL     1      10.724  16.205  17.398  0.00  0.00    +0.000 A 
ATOM     29  C   UNL     1      11.593  15.125  16.908  0.00  0.00    +0.000 A 
ATOM     30  C   UNL     1      11.358  13.845  17.287  0.00  0.00    +0.000 A 
ATOM     31  N   UNL     1      10.275  13.584  18.176  0.00  0.00    +0.000 N 
ENDBRANCH  22  23
ENDBRANCH  21  22
ENDBRANCH  19  21
ENDBRANCH   3  17
TORSDOF 6
ENDMDL
MODEL 3
REMARK VINA RESULT:      -8.3      7.097      8.629
REMARK  Name = 
REMARK  7 active torsions:
REMARK  status: ('A' for Active; 'I' for Inactive)
REMARK    1  A    between atoms: C_1  and  C_2
REMARK    2  A    between atoms: C_3  and  C_4
REMARK    3  A    between atoms: N_6  and  C_7
REMARK    4  A    between atoms: C_7  and  C_8
REMARK    5  A    between atoms: C_8  and  C_9
REMARK    6  A    between atoms: N_20  and  C_21
REMARK    7  A    between atoms: C_25  and  C_26
REMARK                            x       y       z     vdW  Elec       q    Type
REMARK                         _______ _______ _______ _____ _____    ______ ____
ROOT
ATOM      1  C   UNL     1       3.935   6.612  17.731  0.00  0.00    +0.000 C 
ATOM      2  C   UNL     1       3.784   5.176  18.091  0.00  0.00    +0.000 A 
ATOM      3  C   UNL     1       2.950   4.604  19.069  0.00  0.00    +0.000 A 
ATOM      4  C   UNL     1       3.127   3.221  18.820  0.00  0.00    +0.000 A 
ATOM      5  N   UNL     1       3.924   2.945  17.767  0.00  0.00    +0.000 NA
ATOM      6  N   UNL     1       4.409   4.147  17.363  0.00  0.00    +0.000 N 
ENDROOT
BRANCH   6   7
ATOM      7  C   UNL     1       5.394   4.260  16.296  0.00  0.00    +0.000 A 
ATOM      8  C   UNL     1       6.640   4.856  16.537  0.00  0.00    +0.000 A 
ATOM      9  C   UNL     1       7.566   5.090  15.514  0.00  0.00    +0.000 A 
ATOM     10  C   UNL     1       7.282   4.699  14.217  0.00  0.00    +0.000 A 
ATOM     11  C   UNL     1       6.077   4.025  13.933  0.00  0.00    +0.000 A 
ATOM     12  C   UNL     1       5.140   3.795  14.990  0.00  0.00    +0.000 A 
BRANCH  11  13
ATOM     13  C   UNL     1       5.816   3.571  12.514  0.00  0.00    +0.000 C 
ATOM     14  F   UNL     1       4.559   3.893  12.066  0.00  0.00    +0.000 F 
ATOM     15  F   UNL     1       6.667   4.135  11.608  0.00  0.00    +0.000 F 
ATOM     16  F   UNL     1       5.920   2.229  12.353  0.00  0.00    +0.000 F 
ENDBRANCH  11  13
ENDBRANCH   6   7
BRANCH   3  17
ATOM     17  C   UNL     1       2.141   5.399  20.040  0.00  0.00    +0.000 C 
ATOM     18  O   UNL     1       1.496   4.817  20.911  0.00  0.00    +0.000 OA
ATOM     19  N   UNL     1       2.070   6.787  20.029  0.00  0.00    +0.000 N 
ATOM     20  H   UNL     1       2.307   7.238  19.148  0.00  0.00    +0.000 HD
BRANCH  19  21
ATOM     21  C   UNL     1       1.120   7.529  20.921  0.00  0.00    +0.000 C 
BRANCH  21  22
ATOM     22  C   UNL     1       1.624   8.654  21.950  0.00  0.00    +0.000 C 
BRANCH  22  23
ATOM     23  C   UNL     1       0.666   9.824  22.097  0.00  0.00    +0.000 A 
ATOM     24  N   UNL     1       0.237  10.181  23.302  0.00  0.00    +0.000 NA
ATOM     25  N   UNL     1      -0.744  11.122  23.183  0.00  0.00    +0.000 NA
ATOM     26  C   UNL     1      -0.862  11.394  21.903  0.00  0.00    +0.000 A 
ATOM     27  C   UNL     1      -1.814  12.204  21.185  0.00  0.00    +0.000 A 
ATOM     28  C   UNL     1      -1.271  12.923  20.176  0.00  0.00    +0.000 A 
ATOM     29  C   UNL     1      -0.315  12.204  19.321  0.00  0.00    +0.000 A 
ATOM     30  C   UNL     1       0.358  11.135  19.811  0.00  0.00    +0.000 A 
ATOM     31  N   UNL     1       0.130  10.746  21.163  0.00  0.00    +0.000 N 
ENDBRANCH  22  23
ENDBRANCH  21  22
ENDBRANCH  19  21
ENDBRANCH   3  17
TORSDOF 6
ENDMDL
MODEL 4
REMARK VINA RESULT:      -8.3      6.716      7.970
REMARK  Name = 
REMARK  7 active torsions:
REMARK  status: ('A' for Active; 'I' for Inactive)
REMARK    1  A    between atoms: C_1  and  C_2
REMARK    2  A    between atoms: C_3  and  C_4
REMARK    3  A    between atoms: N_6  and  C_7
REMARK    4  A    between atoms: C_7  and  C_8
REMARK    5  A    between atoms: C_8  and  C_9
REMARK    6  A    between atoms: N_20  and  C_21
REMARK    7  A    between atoms: C_25  and  C_26
REMARK                            x       y       z     vdW  Elec       q    Type
REMARK                         _______ _______ _______ _____ _____    ______ ____
ROOT
ATOM      1  C   UNL     1       3.467   6.379  17.597  0.00  0.00    +0.000 C 
ATOM      2  C   UNL     1       3.605   5.002  18.143  0.00  0.00    +0.000 A 
ATOM      3  C   UNL     1       2.890   4.407  19.199  0.00  0.00    +0.000 A 
ATOM      4  C   UNL     1       3.347   3.068  19.132  0.00  0.00    +0.000 A 
ATOM      5  N   UNL     1       4.196   2.823  18.113  0.00  0.00    +0.000 NA
ATOM      6  N   UNL     1       4.434   4.034  17.548  0.00  0.00    +0.000 N 
ENDROOT
BRANCH   6   7
ATOM      7  C   UNL     1       5.389   4.203  16.461  0.00  0.00    +0.000 A 
ATOM      8  C   UNL     1       6.614   4.848  16.684  0.00  0.00    +0.000 A 
ATOM      9  C   UNL     1       7.506   5.134  15.644  0.00  0.00    +0.000 A 
ATOM     10  C   UNL     1       7.210   4.749  14.349  0.00  0.00    +0.000 A 
ATOM     11  C   UNL     1       6.028   4.028  14.081  0.00  0.00    +0.000 A 
ATOM     12  C   UNL     1       5.126   3.745  15.155  0.00  0.00    +0.000 A 
BRANCH  11  13
ATOM     13  C   UNL     1       5.755   3.583  12.662  0.00  0.00    +0.000 C 
ATOM     14  F   UNL     1       6.582   4.175  11.741  0.00  0.00    +0.000 F 
ATOM     15  F   UNL     1       5.931   2.242  12.481  0.00  0.00    +0.000 F 
ATOM     16  F   UNL     1       4.496   3.863  12.245  0.00  0.00    +0.000 F 
ENDBRANCH  11  13
ENDBRANCH   6   7
BRANCH   3  17
ATOM     17  C   UNL     1       1.926   5.142  20.070  0.00  0.00    +0.000 C 
ATOM     18  O   UNL     1       0.882   4.591  20.419  0.00  0.00    +0.000 OA
ATOM     19  N   UNL     1       2.134   6.438  20.528  0.00  0.00    +0.000 N 
ATOM     20  H   UNL     1       2.792   6.998  19.992  0.00  0.00    +0.000 HD
BRANCH  19  21
ATOM     21  C   UNL     1       1.065   7.189  21.264  0.00  0.00    +0.000 C 
BRANCH  21  22
ATOM     22  C   UNL     1       1.218   8.746  21.626  0.00  0.00    +0.000 C 
BRANCH  22  23
ATOM     23  C   UNL     1       1.077   9.669  20.428  0.00  0.00    +0.000 A 
ATOM     24  N   UNL     1       1.275   9.199  19.202  0.00  0.00    +0.000 NA
ATOM     25  N   UNL     1       1.279  10.229  18.306  0.00  0.00    +0.000 NA
ATOM     26  C   UNL     1       1.008  11.324  18.979  0.00  0.00    +0.000 A 
ATOM     27  C   UNL     1       1.010  12.711  18.584  0.00  0.00    +0.000 A 
ATOM     28  C   UNL     1      -0.004  13.433  19.115  0.00  0.00    +0.000 A 
ATOM     29  C   UNL     1      -0.269  13.207  20.544  0.00  0.00    +0.000 A 
ATOM     30  C   UNL     1       0.079  12.029  21.117  0.00  0.00    +0.000 A 
ATOM     31  N   UNL     1       0.682  11.026  20.304  0.00  0.00    +0.000 N 
ENDBRANCH  22  23
ENDBRANCH  21  22
ENDBRANCH  19  21
ENDBRANCH   3  17
TORSDOF 6
ENDMDL
MODEL 5
REMARK VINA RESULT:      -8.3      7.620     10.073
REMARK  Name = 
REMARK  7 active torsions:
REMARK  status: ('A' for Active; 'I' for Inactive)
REMARK    1  A    between atoms: C_1  and  C_2
REMARK    2  A    between atoms: C_3  and  C_4
REMARK    3  A    between atoms: N_6  and  C_7
REMARK    4  A    between atoms: C_7  and  C_8
REMARK    5  A    between atoms: C_8  and  C_9
REMARK    6  A    between atoms: N_20  and  C_21
REMARK    7  A    between atoms: C_25  and  C_26
REMARK                            x       y       z     vdW  Elec       q    Type
REMARK                         _______ _______ _______ _____ _____    ______ ____
ROOT
ATOM      1  C   UNL     1       2.322   8.679  17.663  0.00  0.00    +0.000 C 
ATOM      2  C   UNL     1       2.088   8.030  18.980  0.00  0.00    +0.000 A 
ATOM      3  C   UNL     1       1.388   8.537  20.091  0.00  0.00    +0.000 A 
ATOM      4  C   UNL     1       1.370   7.413  20.953  0.00  0.00    +0.000 A 
ATOM      5  N   UNL     1       1.929   6.303  20.427  0.00  0.00    +0.000 NA
ATOM      6  N   UNL     1       2.458   6.698  19.241  0.00  0.00    +0.000 N 
ENDROOT
BRANCH   6   7
ATOM      7  C   UNL     1       3.240   5.794  18.407  0.00  0.00    +0.000 A 
ATOM      8  C   UNL     1       2.644   4.664  17.829  0.00  0.00    +0.000 A 
ATOM      9  C   UNL     1       3.384   3.711  17.121  0.00  0.00    +0.000 A 
ATOM     10  C   UNL     1       4.746   3.881  16.943  0.00  0.00    +0.000 A 
ATOM     11  C   UNL     1       5.382   5.037  17.437  0.00  0.00    +0.000 A 
ATOM     12  C   UNL     1       4.611   6.002  18.159  0.00  0.00    +0.000 A 
BRANCH  11  13
ATOM     13  C   UNL     1       6.862   5.215  17.187  0.00  0.00    +0.000 C 
ATOM     14  F   UNL     1       7.211   5.052  15.869  0.00  0.00    +0.000 F 
ATOM     15  F   UNL     1       7.315   6.459  17.519  0.00  0.00    +0.000 F 
ATOM     16  F   UNL     1       7.631   4.333  17.872  0.00  0.00    +0.000 F 
ENDBRANCH  11  13
ENDBRANCH   6   7
BRANCH   3  17
ATOM     17  C   UNL     1       0.857   9.929  20.175  0.00  0.00    +0.000 C 
ATOM     18  O   UNL     1       1.003  10.572  21.214  0.00  0.00    +0.000 OA
ATOM     19  N   UNL     1       0.198  10.567  19.131  0.00  0.00    +0.000 N 
ATOM     20  H   UNL     1      -0.213   9.958  18.427  0.00  0.00    +0.000 HD
BRANCH  19  21
ATOM     21  C   UNL     1      -0.456  11.903  19.318  0.00  0.00    +0.000 C 
BRANCH  21  22
ATOM     22  C   UNL     1      -1.935  12.047  19.926  0.00  0.00    +0.000 C 
BRANCH  22  23
ATOM     23  C   UNL     1      -3.041  11.833  18.906  0.00  0.00    +0.000 A 
ATOM     24  N   UNL     1      -2.756  11.301  17.723  0.00  0.00    +0.000 NA
ATOM     25  N   UNL     1      -3.849  11.371  16.909  0.00  0.00    +0.000 NA
ATOM     26  C   UNL     1      -4.828  11.881  17.623  0.00  0.00    +0.000 A 
ATOM     27  C   UNL     1      -6.157  12.301  17.256  0.00  0.00    +0.000 A 
ATOM     28  C   UNL     1      -7.102  11.994  18.174  0.00  0.00    +0.000 A 
ATOM     29  C   UNL     1      -6.743  12.263  19.575  0.00  0.00    +0.000 A 
ATOM     30  C   UNL     1      -5.439  12.287  19.945  0.00  0.00    +0.000 A 
ATOM     31  N   UNL     1      -4.444  12.028  18.958  0.00  0.00    +0.000 N 
ENDBRANCH  22  23
ENDBRANCH  21  22
ENDBRANCH  19  21
ENDBRANCH   3  17
TORSDOF 6
ENDMDL
MODEL 6
REMARK VINA RESULT:      -8.2      7.682     10.287
REMARK  Name = 
REMARK  7 active torsions:
REMARK  status: ('A' for Active; 'I' for Inactive)
REMARK    1  A    between atoms: C_1  and  C_2
REMARK    2  A    between atoms: C_3  and  C_4
REMARK    3  A    between atoms: N_6  and  C_7
REMARK    4  A    between atoms: C_7  and  C_8
REMARK    5  A    between atoms: C_8  and  C_9
REMARK    6  A    between atoms: N_20  and  C_21
REMARK    7  A    between atoms: C_25  and  C_26
REMARK                            x       y       z     vdW  Elec       q    Type
REMARK                         _______ _______ _______ _____ _____    ______ ____
ROOT
ATOM      1  C   UNL     1       1.581   9.149  17.766  0.00  0.00    +0.000 C 
ATOM      2  C   UNL     1       1.551   8.829  19.219  0.00  0.00    +0.000 A 
ATOM      3  C   UNL     1       1.076   9.623  20.278  0.00  0.00    +0.000 A 
ATOM      4  C   UNL     1       1.159   8.724  21.368  0.00  0.00    +0.000 A 
ATOM      5  N   UNL     1       1.572   7.483  21.033  0.00  0.00    +0.000 NA
ATOM      6  N   UNL     1       1.904   7.562  19.719  0.00  0.00    +0.000 N 
ENDROOT
BRANCH   6   7
ATOM      7  C   UNL     1       2.491   6.436  19.005  0.00  0.00    +0.000 A 
ATOM      8  C   UNL     1       3.594   6.626  18.160  0.00  0.00    +0.000 A 
ATOM      9  C   UNL     1       4.112   5.596  17.367  0.00  0.00    +0.000 A 
ATOM     10  C   UNL     1       3.558   4.329  17.425  0.00  0.00    +0.000 A 
ATOM     11  C   UNL     1       2.498   4.064  18.315  0.00  0.00    +0.000 A 
ATOM     12  C   UNL     1       1.978   5.128  19.117  0.00  0.00    +0.000 A 
BRANCH  11  13
ATOM     13  C   UNL     1       1.944   2.659  18.386  0.00  0.00    +0.000 C 
ATOM     14  F   UNL     1       2.361   1.860  17.350  0.00  0.00    +0.000 F 
ATOM     15  F   UNL     1       2.320   1.993  19.516  0.00  0.00    +0.000 F 
ATOM     16  F   UNL     1       0.590   2.614  18.349  0.00  0.00    +0.000 F 
ENDBRANCH  11  13
ENDBRANCH   6   7
BRANCH   3  17
ATOM     17  C   UNL     1       0.627  11.038  20.120  0.00  0.00    +0.000 C 
ATOM     18  O   UNL     1       1.459  11.917  19.896  0.00  0.00    +0.000 OA
ATOM     19  N   UNL     1      -0.701  11.440  20.205  0.00  0.00    +0.000 N 
ATOM     20  H   UNL     1      -1.324  10.811  20.706  0.00  0.00    +0.000 HD
BRANCH  19  21
ATOM     21  C   UNL     1      -1.083  12.890  20.199  0.00  0.00    +0.000 C 
BRANCH  21  22
ATOM     22  C   UNL     1      -2.574  13.377  20.543  0.00  0.00    +0.000 C 
BRANCH  22  23
ATOM     23  C   UNL     1      -3.658  12.550  19.873  0.00  0.00    +0.000 A 
ATOM     24  N   UNL     1      -3.368  11.820  18.802  0.00  0.00    +0.000 NA
ATOM     25  N   UNL     1      -4.515  11.313  18.264  0.00  0.00    +0.000 NA
ATOM     26  C   UNL     1      -5.502  11.674  19.052  0.00  0.00    +0.000 A 
ATOM     27  C   UNL     1      -6.931  11.538  18.915  0.00  0.00    +0.000 A 
ATOM     28  C   UNL     1      -7.565  11.225  20.068  0.00  0.00    +0.000 A 
ATOM     29  C   UNL     1      -7.136  11.978  21.257  0.00  0.00    +0.000 A 
ATOM     30  C   UNL     1      -5.891  12.510  21.306  0.00  0.00    +0.000 A 
ATOM     31  N   UNL     1      -5.016  12.305  20.200  0.00  0.00    +0.000 N 
ENDBRANCH  22  23
ENDBRANCH  21  22
ENDBRANCH  19  21
ENDBRANCH   3  17
TORSDOF 6
ENDMDL
MODEL 7
REMARK VINA RESULT:      -8.2      6.290      7.631
REMARK  Name = 
REMARK  7 active torsions:
REMARK  status: ('A' for Active; 'I' for Inactive)
REMARK    1  A    between atoms: C_1  and  C_2
REMARK    2  A    between atoms: C_3  and  C_4
REMARK    3  A    between atoms: N_6  and  C_7
REMARK    4  A    between atoms: C_7  and  C_8
REMARK    5  A    between atoms: C_8  and  C_9
REMARK    6  A    between atoms: N_20  and  C_21
REMARK    7  A    between atoms: C_25  and  C_26
REMARK                            x       y       z     vdW  Elec       q    Type
REMARK                         _______ _______ _______ _____ _____    ______ ____
ROOT
ATOM      1  C   UNL     1       4.385   6.667  18.003  0.00  0.00    +0.000 C 
ATOM      2  C   UNL     1       3.829   5.289  18.077  0.00  0.00    +0.000 A 
ATOM      3  C   UNL     1       2.821   4.800  18.928  0.00  0.00    +0.000 A 
ATOM      4  C   UNL     1       2.626   3.494  18.415  0.00  0.00    +0.000 A 
ATOM      5  N   UNL     1       3.369   3.209  17.326  0.00  0.00    +0.000 NA
ATOM      6  N   UNL     1       4.185   4.282  17.162  0.00  0.00    +0.000 N 
ENDROOT
BRANCH   6   7
ATOM      7  C   UNL     1       5.217   4.314  16.134  0.00  0.00    +0.000 A 
ATOM      8  C   UNL     1       6.486   4.842  16.415  0.00  0.00    +0.000 A 
ATOM      9  C   UNL     1       7.463   4.999  15.427  0.00  0.00    +0.000 A 
ATOM     10  C   UNL     1       7.209   4.596  14.127  0.00  0.00    +0.000 A 
ATOM     11  C   UNL     1       5.978   3.988  13.807  0.00  0.00    +0.000 A 
ATOM     12  C   UNL     1       4.989   3.836  14.828  0.00  0.00    +0.000 A 
BRANCH  11  13
ATOM     13  C   UNL     1       5.748   3.519  12.388  0.00  0.00    +0.000 C 
ATOM     14  F   UNL     1       4.468   3.745  11.945  0.00  0.00    +0.000 F 
ATOM     15  F   UNL     1       6.550   4.149  11.480  0.00  0.00    +0.000 F 
ATOM     16  F   UNL     1       5.955   2.190  12.222  0.00  0.00    +0.000 F 
ENDBRANCH  11  13
ENDBRANCH   6   7
BRANCH   3  17
ATOM     17  C   UNL     1       2.211   5.592  20.037  0.00  0.00    +0.000 C 
ATOM     18  O   UNL     1       1.715   5.006  20.999  0.00  0.00    +0.000 OA
ATOM     19  N   UNL     1       2.171   6.981  20.060  0.00  0.00    +0.000 N 
ATOM     20  H   UNL     1       2.262   7.443  19.159  0.00  0.00    +0.000 HD
BRANCH  19  21
ATOM     21  C   UNL     1       1.407   7.724  21.115  0.00  0.00    +0.000 C 
BRANCH  21  22
ATOM     22  C   UNL     1       0.488   8.993  20.763  0.00  0.00    +0.000 C 
BRANCH  22  23
ATOM     23  C   UNL     1       1.037   9.854  19.639  0.00  0.00    +0.000 A 
ATOM     24  N   UNL     1       1.384   9.295  18.485  0.00  0.00    +0.000 NA
ATOM     25  N   UNL     1       2.016  10.213  17.698  0.00  0.00    +0.000 NA
ATOM     26  C   UNL     1       1.988  11.357  18.344  0.00  0.00    +0.000 A 
ATOM     27  C   UNL     1       2.609  12.627  18.060  0.00  0.00    +0.000 A 
ATOM     28  C   UNL     1       1.826  13.694  18.341  0.00  0.00    +0.000 A 
ATOM     29  C   UNL     1       1.107  13.640  19.623  0.00  0.00    +0.000 A 
ATOM     30  C   UNL     1       0.824  12.441  20.188  0.00  0.00    +0.000 A 
ATOM     31  N   UNL     1       1.219  11.254  19.505  0.00  0.00    +0.000 N 
ENDBRANCH  22  23
ENDBRANCH  21  22
ENDBRANCH  19  21
ENDBRANCH   3  17
TORSDOF 6
ENDMDL
MODEL 8
REMARK VINA RESULT:      -8.2      6.823      9.293
REMARK  Name = 
REMARK  7 active torsions:
REMARK  status: ('A' for Active; 'I' for Inactive)
REMARK    1  A    between atoms: C_1  and  C_2
REMARK    2  A    between atoms: C_3  and  C_4
REMARK    3  A    between atoms: N_6  and  C_7
REMARK    4  A    between atoms: C_7  and  C_8
REMARK    5  A    between atoms: C_8  and  C_9
REMARK    6  A    between atoms: N_20  and  C_21
REMARK    7  A    between atoms: C_25  and  C_26
REMARK                            x       y       z     vdW  Elec       q    Type
REMARK                         _______ _______ _______ _____ _____    ______ ____
ROOT
ATOM      1  C   UNL     1       2.374   8.389  18.253  0.00  0.00    +0.000 C 
ATOM      2  C   UNL     1       2.161   7.473  19.405  0.00  0.00    +0.000 A 
ATOM      3  C   UNL     1       1.359   7.674  20.543  0.00  0.00    +0.000 A 
ATOM      4  C   UNL     1       1.436   6.408  21.174  0.00  0.00    +0.000 A 
ATOM      5  N   UNL     1       2.144   5.489  20.485  0.00  0.00    +0.000 NA
ATOM      6  N   UNL     1       2.674   6.163  19.432  0.00  0.00    +0.000 N 
ENDROOT
BRANCH   6   7
ATOM      7  C   UNL     1       3.592   5.529  18.496  0.00  0.00    +0.000 A 
ATOM      8  C   UNL     1       3.128   4.575  17.578  0.00  0.00    +0.000 A 
ATOM      9  C   UNL     1       3.994   3.859  16.745  0.00  0.00    +0.000 A 
ATOM     10  C   UNL     1       5.355   4.104  16.782  0.00  0.00    +0.000 A 
ATOM     11  C   UNL     1       5.867   5.107  17.630  0.00  0.00    +0.000 A 
ATOM     12  C   UNL     1       4.969   5.830  18.477  0.00  0.00    +0.000 A 
BRANCH  11  13
ATOM     13  C   UNL     1       7.354   5.382  17.615  0.00  0.00    +0.000 C 
ATOM     14  F   UNL     1       8.105   4.274  17.308  0.00  0.00    +0.000 F 
ATOM     15  F   UNL     1       7.715   6.318  16.691  0.00  0.00    +0.000 F 
ATOM     16  F   UNL     1       7.831   5.817  18.807  0.00  0.00    +0.000 F 
ENDBRANCH  11  13
ENDBRANCH   6   7
BRANCH   3  17
ATOM     17  C   UNL     1       0.664   8.959  20.855  0.00  0.00    +0.000 C 
ATOM     18  O   UNL     1      -0.440   8.935  21.398  0.00  0.00    +0.000 OA
ATOM     19  N   UNL     1       1.196  10.211  20.570  0.00  0.00    +0.000 N 
ATOM     20  H   UNL     1       1.911  10.236  19.848  0.00  0.00    +0.000 HD
BRANCH  19  21
ATOM     21  C   UNL     1       0.392  11.463  20.755  0.00  0.00    +0.000 C 
BRANCH  21  22
ATOM     22  C   UNL     1      -0.213  12.275  19.509  0.00  0.00    +0.000 C 
BRANCH  22  23
ATOM     23  C   UNL     1      -1.266  11.506  18.731  0.00  0.00    +0.000 A 
ATOM     24  N   UNL     1      -0.915  10.448  18.009  0.00  0.00    +0.000 NA
ATOM     25  N   UNL     1      -1.974  10.029  17.257  0.00  0.00    +0.000 NA
ATOM     26  C   UNL     1      -2.997  10.789  17.577  0.00  0.00    +0.000 A 
ATOM     27  C   UNL     1      -4.321  10.890  17.016  0.00  0.00    +0.000 A 
ATOM     28  C   UNL     1      -5.295  11.063  17.939  0.00  0.00    +0.000 A 
ATOM     29  C   UNL     1      -5.005  12.042  18.998  0.00  0.00    +0.000 A 
ATOM     30  C   UNL     1      -3.720  12.320  19.328  0.00  0.00    +0.000 A 
ATOM     31  N   UNL     1      -2.676  11.631  18.644  0.00  0.00    +0.000 N 
ENDBRANCH  22  23
ENDBRANCH  21  22
ENDBRANCH  19  21
ENDBRANCH   3  17
TORSDOF 6
ENDMDL
MODEL 9
REMARK VINA RESULT:      -8.2      7.294      9.721
REMARK  Name = 
REMARK  7 active torsions:
REMARK  status: ('A' for Active; 'I' for Inactive)
REMARK    1  A    between atoms: C_1  and  C_2
REMARK    2  A    between atoms: C_3  and  C_4
REMARK    3  A    between atoms: N_6  and  C_7
REMARK    4  A    between atoms: C_7  and  C_8
REMARK    5  A    between atoms: C_8  and  C_9
REMARK    6  A    between atoms: N_20  and  C_21
REMARK    7  A    between atoms: C_25  and  C_26
REMARK                            x       y       z     vdW  Elec       q    Type
REMARK                         _______ _______ _______ _____ _____    ______ ____
ROOT
ATOM      1  C   UNL     1       1.598   7.468  20.838  0.00  0.00    +0.000 C 
ATOM      2  C   UNL     1       1.596   8.205  19.546  0.00  0.00    +0.000 A 
ATOM      3  C   UNL     1       1.074   9.482  19.270  0.00  0.00    +0.000 A 
ATOM      4  C   UNL     1       1.518   9.689  17.941  0.00  0.00    +0.000 A 
ATOM      5  N   UNL     1       2.290   8.696  17.453  0.00  0.00    +0.000 NA
ATOM      6  N   UNL     1       2.270   7.729  18.406  0.00  0.00    +0.000 N 
ENDROOT
BRANCH   6   7
ATOM      7  C   UNL     1       2.917   6.439  18.207  0.00  0.00    +0.000 A 
ATOM      8  C   UNL     1       4.260   6.369  17.811  0.00  0.00    +0.000 A 
ATOM      9  C   UNL     1       4.883   5.157  17.496  0.00  0.00    +0.000 A 
ATOM     10  C   UNL     1       4.184   3.968  17.603  0.00  0.00    +0.000 A 
ATOM     11  C   UNL     1       2.854   3.973  18.071  0.00  0.00    +0.000 A 
ATOM     12  C   UNL     1       2.231   5.221  18.387  0.00  0.00    +0.000 A 
BRANCH  11  13
ATOM     13  C   UNL     1       2.131   2.653  18.219  0.00  0.00    +0.000 C 
ATOM     14  F   UNL     1       2.437   1.997  19.385  0.00  0.00    +0.000 F 
ATOM     15  F   UNL     1       0.773   2.787  18.237  0.00  0.00    +0.000 F 
ATOM     16  F   UNL     1       2.415   1.773  17.228  0.00  0.00    +0.000 F 
ENDBRANCH  11  13
ENDBRANCH   6   7
BRANCH   3  17
ATOM     17  C   UNL     1       0.280  10.284  20.246  0.00  0.00    +0.000 C 
ATOM     18  O   UNL     1      -0.422   9.708  21.077  0.00  0.00    +0.000 OA
ATOM     19  N   UNL     1       0.285  11.674  20.286  0.00  0.00    +0.000 N 
ATOM     20  H   UNL     1       0.573  12.142  19.430  0.00  0.00    +0.000 HD
BRANCH  19  21
ATOM     21  C   UNL     1      -0.650  12.435  21.177  0.00  0.00    +0.000 C 
BRANCH  21  22
ATOM     22  C   UNL     1      -1.910  13.242  20.595  0.00  0.00    +0.000 C 
BRANCH  22  23
ATOM     23  C   UNL     1      -2.701  12.471  19.551  0.00  0.00    +0.000 A 
ATOM     24  N   UNL     1      -2.067  11.860  18.558  0.00  0.00    +0.000 NA
ATOM     25  N   UNL     1      -2.972  11.394  17.649  0.00  0.00    +0.000 NA
ATOM     26  C   UNL     1      -4.167  11.657  18.127  0.00  0.00    +0.000 A 
ATOM     27  C   UNL     1      -5.479  11.514  17.546  0.00  0.00    +0.000 A 
ATOM     28  C   UNL     1      -6.418  11.076  18.416  0.00  0.00    +0.000 A 
ATOM     29  C   UNL     1      -6.405  11.709  19.743  0.00  0.00    +0.000 A 
ATOM     30  C   UNL     1      -5.259  12.252  20.221  0.00  0.00    +0.000 A 
ATOM     31  N   UNL     1      -4.082  12.174  19.422  0.00  0.00    +0.000 N 
ENDBRANCH  22  23
ENDBRANCH  21  22
ENDBRANCH  19  21
ENDBRANCH   3  17
TORSDOF 6
ENDMDL
