MODEL 1
REMARK VINA RESULT:      -8.9      0.000      0.000
REMARK  Name = 
REMARK  4 active torsions:
REMARK  status: ('A' for Active; 'I' for Inactive)
REMARK    1  A    between atoms: C_5  and  C_6
REMARK    2  A    between atoms: C_9  and  S_10
REMARK    3  A    between atoms: S_10  and  C_11
REMARK    4  A    between atoms: C_11  and  C_12
REMARK                            x       y       z     vdW  Elec       q    Type
REMARK                         _______ _______ _______ _____ _____    ______ ____
ROOT
ATOM      1  C   UNL     1       8.635   9.291  18.661  0.00  0.00    +0.000 A 
ATOM      2  N   UNL     1       7.879   9.533  17.605  0.00  0.00    +0.000 NA
ATOM      3  N   UNL     1       7.372   8.324  17.189  0.00  0.00    +0.000 NA
ATOM      4  C   UNL     1       7.829   7.415  18.022  0.00  0.00    +0.000 A 
ATOM      5  O   UNL     1       8.644   7.952  18.985  0.00  0.00    +0.000 OA
ENDROOT
BRANCH   1  10
ATOM      6  C   UNL     1      12.199  13.350  18.610  0.00  0.00    +0.000 A 
ATOM      7  C   UNL     1      11.802  12.602  17.504  0.00  0.00    +0.000 A 
ATOM      8  C   UNL     1      10.871  11.565  17.640  0.00  0.00    +0.000 A 
ATOM      9  C   UNL     1      10.317  11.288  18.908  0.00  0.00    +0.000 A 
ATOM     10  C   UNL     1       9.363  10.357  19.406  0.00  0.00    +0.000 A 
ATOM     11  C   UNL     1       9.194  10.605  20.753  0.00  0.00    +0.000 A 
ATOM     12  N   UNL     1      10.041  11.623  21.101  0.00  0.00    +0.000 N 
ATOM     13  C   UNL     1      10.730  12.065  19.995  0.00  0.00    +0.000 A 
ATOM     14  C   UNL     1      11.676  13.091  19.880  0.00  0.00    +0.000 A 
ATOM     15  H   UNL     1      10.136  12.009  22.031  0.00  0.00    +0.000 HD
ENDBRANCH   1  10
BRANCH   4  16
ATOM     16  S   UNL     1       7.457   5.727  17.863  0.00  0.00    +0.000 S 
BRANCH  16  17
ATOM     17  C   UNL     1       6.158   5.749  16.601  0.00  0.00    +0.000 C 
BRANCH  17  18
ATOM     18  C   UNL     1       4.843   5.278  17.187  0.00  0.00    +0.000 A 
ATOM     19  C   UNL     1       3.891   6.211  17.665  0.00  0.00    +0.000 A 
ATOM     20  C   UNL     1       2.648   5.791  18.154  0.00  0.00    +0.000 A 
ATOM     21  C   UNL     1       2.381   4.440  18.153  0.00  0.00    +0.000 A 
ATOM     22  C   UNL     1       3.296   3.524  17.693  0.00  0.00    +0.000 A 
ATOM     23  C   UNL     1       4.529   3.906  17.204  0.00  0.00    +0.000 A 
ATOM     24  O   UNL     1       2.836   2.247  17.770  0.00  0.00    +0.000 OA
ATOM     25  C   UNL     1       1.532   2.463  18.348  0.00  0.00    +0.000 C 
ATOM     26  O   UNL     1       1.229   3.855  18.578  0.00  0.00    +0.000 OA
ENDBRANCH  17  18
ENDBRANCH  16  17
ENDBRANCH   4  16
TORSDOF 4
ENDMDL
MODEL 2
REMARK VINA RESULT:      -8.7      0.953      1.291
REMARK  Name = 
REMARK  4 active torsions:
REMARK  status: ('A' for Active; 'I' for Inactive)
REMARK    1  A    between atoms: C_5  and  C_6
REMARK    2  A    between atoms: C_9  and  S_10
REMARK    3  A    between atoms: S_10  and  C_11
REMARK    4  A    between atoms: C_11  and  C_12
REMARK                            x       y       z     vdW  Elec       q    Type
REMARK                         _______ _______ _______ _____ _____    ______ ____
ROOT
ATOM      1  C   UNL     1       8.635   9.260  18.655  0.00  0.00    +0.000 A 
ATOM      2  N   UNL     1       7.893   9.499  17.589  0.00  0.00    +0.000 NA
ATOM      3  N   UNL     1       7.386   8.290  17.174  0.00  0.00    +0.000 NA
ATOM      4  C   UNL     1       7.829   7.383  18.017  0.00  0.00    +0.000 A 
ATOM      5  O   UNL     1       8.635   7.922  18.986  0.00  0.00    +0.000 OA
ENDROOT
BRANCH   1  10
ATOM      6  C   UNL     1      12.147  13.365  18.603  0.00  0.00    +0.000 A 
ATOM      7  C   UNL     1      11.744  12.625  17.494  0.00  0.00    +0.000 A 
ATOM      8  C   UNL     1      10.829  11.574  17.631  0.00  0.00    +0.000 A 
ATOM      9  C   UNL     1      10.295  11.276  18.902  0.00  0.00    +0.000 A 
ATOM     10  C   UNL     1       9.359  10.326  19.402  0.00  0.00    +0.000 A 
ATOM     11  C   UNL     1       9.205  10.557  20.754  0.00  0.00    +0.000 A 
ATOM     12  N   UNL     1      10.044  11.582  21.102  0.00  0.00    +0.000 N 
ATOM     13  C   UNL     1      10.713  12.046  19.993  0.00  0.00    +0.000 A 
ATOM     14  C   UNL     1      11.643  13.084  19.877  0.00  0.00    +0.000 A 
ATOM     15  H   UNL     1      10.147  11.958  22.036  0.00  0.00    +0.000 HD
ENDBRANCH   1  10
BRANCH   4  16
ATOM     16  S   UNL     1       7.452   5.697  17.862  0.00  0.00    +0.000 S 
BRANCH  16  17
ATOM     17  C   UNL     1       6.313   5.440  19.246  0.00  0.00    +0.000 C 
BRANCH  17  18
ATOM     18  C   UNL     1       5.040   4.774  18.769  0.00  0.00    +0.000 A 
ATOM     19  C   UNL     1       4.884   4.405  17.410  0.00  0.00    +0.000 A 
ATOM     20  C   UNL     1       3.737   3.736  16.968  0.00  0.00    +0.000 A 
ATOM     21  C   UNL     1       2.764   3.444  17.899  0.00  0.00    +0.000 A 
ATOM     22  C   UNL     1       2.903   3.797  19.220  0.00  0.00    +0.000 A 
ATOM     23  C   UNL     1       4.021   4.457  19.687  0.00  0.00    +0.000 A 
ATOM     24  O   UNL     1       1.838   3.412  19.974  0.00  0.00    +0.000 OA
ATOM     25  C   UNL     1       1.006   2.792  18.971  0.00  0.00    +0.000 C 
ATOM     26  O   UNL     1       1.595   2.793  17.655  0.00  0.00    +0.000 OA
ENDBRANCH  17  18
ENDBRANCH  16  17
ENDBRANCH   4  16
TORSDOF 4
ENDMDL
MODEL 3
REMARK VINA RESULT:      -8.2      2.817     10.175
REMARK  Name = 
REMARK  4 active torsions:
REMARK  status: ('A' for Active; 'I' for Inactive)
REMARK    1  A    between atoms: C_5  and  C_6
REMARK    2  A    between atoms: C_9  and  S_10
REMARK    3  A    between atoms: S_10  and  C_11
REMARK    4  A    between atoms: C_11  and  C_12
REMARK                            x       y       z     vdW  Elec       q    Type
REMARK                         _______ _______ _______ _____ _____    ______ ____
ROOT
ATOM      1  C   UNL     1       6.899   6.398  17.733  0.00  0.00    +0.000 A 
ATOM      2  N   UNL     1       7.789   6.280  18.702  0.00  0.00    +0.000 NA
ATOM      3  N   UNL     1       8.436   7.489  18.801  0.00  0.00    +0.000 NA
ATOM      4  C   UNL     1       7.897   8.283  17.902  0.00  0.00    +0.000 A 
ATOM      5  O   UNL     1       6.913   7.660  17.179  0.00  0.00    +0.000 OA
ENDROOT
BRANCH   1  10
ATOM      6  C   UNL     1       1.949   4.233  17.764  0.00  0.00    +0.000 A 
ATOM      7  C   UNL     1       2.310   5.446  18.344  0.00  0.00    +0.000 A 
ATOM      8  C   UNL     1       3.631   5.906  18.278  0.00  0.00    +0.000 A 
ATOM      9  C   UNL     1       4.602   5.139  17.600  0.00  0.00    +0.000 A 
ATOM     10  C   UNL     1       5.989   5.293  17.320  0.00  0.00    +0.000 A 
ATOM     11  C   UNL     1       6.390   4.211  16.562  0.00  0.00    +0.000 A 
ATOM     12  N   UNL     1       5.309   3.386  16.405  0.00  0.00    +0.000 N 
ATOM     13  C   UNL     1       4.204   3.930  17.019  0.00  0.00    +0.000 A 
ATOM     14  C   UNL     1       2.892   3.447  17.095  0.00  0.00    +0.000 A 
ATOM     15  H   UNL     1       5.313   2.510  15.899  0.00  0.00    +0.000 HD
ENDBRANCH   1  10
BRANCH   4  16
ATOM     16  S   UNL     1       8.426   9.918  17.658  0.00  0.00    +0.000 S 
BRANCH  16  17
ATOM     17  C   UNL     1       9.283  10.269  19.214  0.00  0.00    +0.000 C 
BRANCH  17  18
ATOM     18  C   UNL     1      10.155  11.499  19.073  0.00  0.00    +0.000 A 
ATOM     19  C   UNL     1      10.914  11.714  17.897  0.00  0.00    +0.000 A 
ATOM     20  C   UNL     1      11.678  12.876  17.730  0.00  0.00    +0.000 A 
ATOM     21  C   UNL     1      11.665  13.805  18.747  0.00  0.00    +0.000 A 
ATOM     22  C   UNL     1      10.933  13.608  19.894  0.00  0.00    +0.000 A 
ATOM     23  C   UNL     1      10.170  12.474  20.088  0.00  0.00    +0.000 A 
ATOM     24  O   UNL     1      11.049  14.644  20.767  0.00  0.00    +0.000 OA
ATOM     25  C   UNL     1      11.952  15.507  20.045  0.00  0.00    +0.000 C 
ATOM     26  O   UNL     1      12.333  14.989  18.754  0.00  0.00    +0.000 OA
ENDBRANCH  17  18
ENDBRANCH  16  17
ENDBRANCH   4  16
TORSDOF 4
ENDMDL
MODEL 4
REMARK VINA RESULT:      -8.2      2.890      9.827
REMARK  Name = 
REMARK  4 active torsions:
REMARK  status: ('A' for Active; 'I' for Inactive)
REMARK    1  A    between atoms: C_5  and  C_6
REMARK    2  A    between atoms: C_9  and  S_10
REMARK    3  A    between atoms: S_10  and  C_11
REMARK    4  A    between atoms: C_11  and  C_12
REMARK                            x       y       z     vdW  Elec       q    Type
REMARK                         _______ _______ _______ _____ _____    ______ ____
ROOT
ATOM      1  C   UNL     1       5.633   4.958  18.122  0.00  0.00    +0.000 A 
ATOM      2  N   UNL     1       6.836   4.536  18.469  0.00  0.00    +0.000 NA
ATOM      3  N   UNL     1       7.703   5.584  18.264  0.00  0.00    +0.000 NA
ATOM      4  C   UNL     1       6.982   6.591  17.820  0.00  0.00    +0.000 A 
ATOM      5  O   UNL     1       5.655   6.269  17.699  0.00  0.00    +0.000 OA
ENDROOT
BRANCH   1  10
ATOM      6  C   UNL     1       0.829   3.973  20.388  0.00  0.00    +0.000 A 
ATOM      7  C   UNL     1       1.663   5.048  20.684  0.00  0.00    +0.000 A 
ATOM      8  C   UNL     1       2.894   5.198  20.034  0.00  0.00    +0.000 A 
ATOM      9  C   UNL     1       3.284   4.259  19.056  0.00  0.00    +0.000 A 
ATOM     10  C   UNL     1       4.414   4.105  18.204  0.00  0.00    +0.000 A 
ATOM     11  C   UNL     1       4.200   2.993  17.415  0.00  0.00    +0.000 A 
ATOM     12  N   UNL     1       3.003   2.441  17.784  0.00  0.00    +0.000 N 
ATOM     13  C   UNL     1       2.418   3.196  18.775  0.00  0.00    +0.000 A 
ATOM     14  C   UNL     1       1.194   3.021  19.432  0.00  0.00    +0.000 A 
ATOM     15  H   UNL     1       2.595   1.609  17.379  0.00  0.00    +0.000 HD
ENDBRANCH   1  10
BRANCH   4  16
ATOM     16  S   UNL     1       7.674   8.127  17.404  0.00  0.00    +0.000 S 
BRANCH  16  17
ATOM     17  C   UNL     1       8.678   8.493  18.867  0.00  0.00    +0.000 C 
BRANCH  17  18
ATOM     18  C   UNL     1       9.008   9.969  18.927  0.00  0.00    +0.000 A 
ATOM     19  C   UNL     1       8.723  10.818  17.830  0.00  0.00    +0.000 A 
ATOM     20  C   UNL     1       8.969  12.195  17.896  0.00  0.00    +0.000 A 
ATOM     21  C   UNL     1       9.496  12.697  19.065  0.00  0.00    +0.000 A 
ATOM     22  C   UNL     1       9.778  11.884  20.137  0.00  0.00    +0.000 A 
ATOM     23  C   UNL     1       9.546  10.524  20.103  0.00  0.00    +0.000 A 
ATOM     24  O   UNL     1      10.283  12.576  21.193  0.00  0.00    +0.000 OA
ATOM     25  C   UNL     1      10.302  13.915  20.657  0.00  0.00    +0.000 C 
ATOM     26  O   UNL     1       9.788  14.003  19.312  0.00  0.00    +0.000 OA
ENDBRANCH  17  18
ENDBRANCH  16  17
ENDBRANCH   4  16
TORSDOF 4
ENDMDL
MODEL 5
REMARK VINA RESULT:      -8.1      5.632      7.992
REMARK  Name = 
REMARK  4 active torsions:
REMARK  status: ('A' for Active; 'I' for Inactive)
REMARK    1  A    between atoms: C_5  and  C_6
REMARK    2  A    between atoms: C_9  and  S_10
REMARK    3  A    between atoms: S_10  and  C_11
REMARK    4  A    between atoms: C_11  and  C_12
REMARK                            x       y       z     vdW  Elec       q    Type
REMARK                         _______ _______ _______ _____ _____    ______ ____
ROOT
ATOM      1  C   UNL     1       1.841   8.296  19.227  0.00  0.00    +0.000 A 
ATOM      2  N   UNL     1       2.248   8.105  17.985  0.00  0.00    +0.000 NA
ATOM      3  N   UNL     1       2.969   6.934  17.974  0.00  0.00    +0.000 NA
ATOM      4  C   UNL     1       2.948   6.465  19.203  0.00  0.00    +0.000 A 
ATOM      5  O   UNL     1       2.253   7.278  20.060  0.00  0.00    +0.000 OA
ENDROOT
BRANCH   1  10
ATOM      6  C   UNL     1      -0.979  10.816  23.085  0.00  0.00    +0.000 A 
ATOM      7  C   UNL     1      -0.300   9.609  23.230  0.00  0.00    +0.000 A 
ATOM      8  C   UNL     1       0.395   9.045  22.153  0.00  0.00    +0.000 A 
ATOM      9  C   UNL     1       0.422   9.718  20.914  0.00  0.00    +0.000 A 
ATOM     10  C   UNL     1       1.022   9.467  19.647  0.00  0.00    +0.000 A 
ATOM     11  C   UNL     1       0.724  10.531  18.820  0.00  0.00    +0.000 A 
ATOM     12  N   UNL     1      -0.069  11.399  19.523  0.00  0.00    +0.000 N 
ATOM     13  C   UNL     1      -0.261  10.934  20.804  0.00  0.00    +0.000 A 
ATOM     14  C   UNL     1      -0.979  11.499  21.865  0.00  0.00    +0.000 A 
ATOM     15  H   UNL     1      -0.447  12.265  19.163  0.00  0.00    +0.000 HD
ENDBRANCH   1  10
BRANCH   4  16
ATOM     16  S   UNL     1       3.758   5.000  19.660  0.00  0.00    +0.000 S 
BRANCH  16  17
ATOM     17  C   UNL     1       5.465   5.346  19.162  0.00  0.00    +0.000 C 
BRANCH  17  18
ATOM     18  C   UNL     1       5.698   4.910  17.731  0.00  0.00    +0.000 A 
ATOM     19  C   UNL     1       4.865   3.936  17.128  0.00  0.00    +0.000 A 
ATOM     20  C   UNL     1       5.033   3.568  15.788  0.00  0.00    +0.000 A 
ATOM     21  C   UNL     1       6.035   4.187  15.073  0.00  0.00    +0.000 A 
ATOM     22  C   UNL     1       6.849   5.134  15.646  0.00  0.00    +0.000 A 
ATOM     23  C   UNL     1       6.709   5.519  16.963  0.00  0.00    +0.000 A 
ATOM     24  O   UNL     1       7.765   5.628  14.770  0.00  0.00    +0.000 OA
ATOM     25  C   UNL     1       7.444   4.870  13.585  0.00  0.00    +0.000 C 
ATOM     26  O   UNL     1       6.334   3.966  13.765  0.00  0.00    +0.000 OA
ENDBRANCH  17  18
ENDBRANCH  16  17
ENDBRANCH   4  16
TORSDOF 4
ENDMDL
MODEL 6
REMARK VINA RESULT:      -8.1      4.569      7.512
REMARK  Name = 
REMARK  4 active torsions:
REMARK  status: ('A' for Active; 'I' for Inactive)
REMARK    1  A    between atoms: C_5  and  C_6
REMARK    2  A    between atoms: C_9  and  S_10
REMARK    3  A    between atoms: S_10  and  C_11
REMARK    4  A    between atoms: C_11  and  C_12
REMARK                            x       y       z     vdW  Elec       q    Type
REMARK                         _______ _______ _______ _____ _____    ______ ____
ROOT
ATOM      1  C   UNL     1       1.911   5.742  20.417  0.00  0.00    +0.000 A 
ATOM      2  N   UNL     1       1.144   4.713  20.732  0.00  0.00    +0.000 NA
ATOM      3  N   UNL     1       1.874   3.576  20.475  0.00  0.00    +0.000 NA
ATOM      4  C   UNL     1       3.049   3.970  20.036  0.00  0.00    +0.000 A 
ATOM      5  O   UNL     1       3.149   5.336  19.966  0.00  0.00    +0.000 OA
ENDROOT
BRANCH   1  10
ATOM      6  C   UNL     1       1.585  10.707  18.314  0.00  0.00    +0.000 A 
ATOM      7  C   UNL     1       2.130   9.591  17.684  0.00  0.00    +0.000 A 
ATOM      8  C   UNL     1       2.166   8.350  18.333  0.00  0.00    +0.000 A 
ATOM      9  C   UNL     1       1.627   8.228  19.631  0.00  0.00    +0.000 A 
ATOM     10  C   UNL     1       1.475   7.159  20.559  0.00  0.00    +0.000 A 
ATOM     11  C   UNL     1       0.818   7.653  21.668  0.00  0.00    +0.000 A 
ATOM     12  N   UNL     1       0.604   8.991  21.467  0.00  0.00    +0.000 N 
ATOM     13  C   UNL     1       1.078   9.366  20.231  0.00  0.00    +0.000 A 
ATOM     14  C   UNL     1       1.055  10.617  19.604  0.00  0.00    +0.000 A 
ATOM     15  H   UNL     1       0.150   9.613  22.122  0.00  0.00    +0.000 HD
ENDBRANCH   1  10
BRANCH   4  16
ATOM     16  S   UNL     1       4.294   2.857  19.564  0.00  0.00    +0.000 S 
BRANCH  16  17
ATOM     17  C   UNL     1       4.431   3.181  17.787  0.00  0.00    +0.000 C 
BRANCH  17  18
ATOM     18  C   UNL     1       5.164   4.483  17.541  0.00  0.00    +0.000 A 
ATOM     19  C   UNL     1       4.689   5.408  16.578  0.00  0.00    +0.000 A 
ATOM     20  C   UNL     1       5.325   6.640  16.383  0.00  0.00    +0.000 A 
ATOM     21  C   UNL     1       6.426   6.925  17.160  0.00  0.00    +0.000 A 
ATOM     22  C   UNL     1       6.896   6.037  18.097  0.00  0.00    +0.000 A 
ATOM     23  C   UNL     1       6.293   4.815  18.314  0.00  0.00    +0.000 A 
ATOM     24  O   UNL     1       7.984   6.512  18.761  0.00  0.00    +0.000 OA
ATOM     25  C   UNL     1       8.154   7.794  18.122  0.00  0.00    +0.000 C 
ATOM     26  O   UNL     1       7.157   8.071  17.116  0.00  0.00    +0.000 OA
ENDBRANCH  17  18
ENDBRANCH  16  17
ENDBRANCH   4  16
TORSDOF 4
ENDMDL
MODEL 7
REMARK VINA RESULT:      -8.1      5.265      7.888
REMARK  Name = 
REMARK  4 active torsions:
REMARK  status: ('A' for Active; 'I' for Inactive)
REMARK    1  A    between atoms: C_5  and  C_6
REMARK    2  A    between atoms: C_9  and  S_10
REMARK    3  A    between atoms: S_10  and  C_11
REMARK    4  A    between atoms: C_11  and  C_12
REMARK                            x       y       z     vdW  Elec       q    Type
REMARK                         _______ _______ _______ _____ _____    ______ ____
ROOT
ATOM      1  C   UNL     1       1.732   8.323  19.170  0.00  0.00    +0.000 A 
ATOM      2  N   UNL     1       2.090   8.149  17.910  0.00  0.00    +0.000 NA
ATOM      3  N   UNL     1       2.597   6.875  17.809  0.00  0.00    +0.000 NA
ATOM      4  C   UNL     1       2.506   6.335  19.005  0.00  0.00    +0.000 A 
ATOM      5  O   UNL     1       1.970   7.195  19.927  0.00  0.00    +0.000 OA
ENDROOT
BRANCH   1  10
ATOM      6  C   UNL     1      -0.960  10.907  23.076  0.00  0.00    +0.000 A 
ATOM      7  C   UNL     1      -0.575   9.569  23.102  0.00  0.00    +0.000 A 
ATOM      8  C   UNL     1       0.117   9.004  22.024  0.00  0.00    +0.000 A 
ATOM      9  C   UNL     1       0.442   9.804  20.909  0.00  0.00    +0.000 A 
ATOM     10  C   UNL     1       1.131   9.586  19.682  0.00  0.00    +0.000 A 
ATOM     11  C   UNL     1       1.172  10.786  19.001  0.00  0.00    +0.000 A 
ATOM     12  N   UNL     1       0.496  11.714  19.748  0.00  0.00    +0.000 N 
ATOM     13  C   UNL     1       0.049  11.147  20.919  0.00  0.00    +0.000 A 
ATOM     14  C   UNL     1      -0.662  11.721  21.979  0.00  0.00    +0.000 A 
ATOM     15  H   UNL     1       0.358  12.682  19.488  0.00  0.00    +0.000 HD
ENDBRANCH   1  10
BRANCH   4  16
ATOM     16  S   UNL     1       3.055   4.725  19.349  0.00  0.00    +0.000 S 
BRANCH  16  17
ATOM     17  C   UNL     1       4.830   4.981  19.599  0.00  0.00    +0.000 C 
BRANCH  17  18
ATOM     18  C   UNL     1       5.536   5.135  18.268  0.00  0.00    +0.000 A 
ATOM     19  C   UNL     1       6.535   6.123  18.092  0.00  0.00    +0.000 A 
ATOM     20  C   UNL     1       7.235   6.237  16.885  0.00  0.00    +0.000 A 
ATOM     21  C   UNL     1       6.922   5.354  15.874  0.00  0.00    +0.000 A 
ATOM     22  C   UNL     1       5.955   4.391  16.033  0.00  0.00    +0.000 A 
ATOM     23  C   UNL     1       5.247   4.253  17.210  0.00  0.00    +0.000 A 
ATOM     24  O   UNL     1       5.805   3.619  14.924  0.00  0.00    +0.000 OA
ATOM     25  C   UNL     1       6.778   4.218  14.043  0.00  0.00    +0.000 C 
ATOM     26  O   UNL     1       7.504   5.309  14.646  0.00  0.00    +0.000 OA
ENDBRANCH  17  18
ENDBRANCH  16  17
ENDBRANCH   4  16
TORSDOF 4
ENDMDL
MODEL 8
REMARK VINA RESULT:      -8.1      6.274      9.587
REMARK  Name = 
REMARK  4 active torsions:
REMARK  status: ('A' for Active; 'I' for Inactive)
REMARK    1  A    between atoms: C_5  and  C_6
REMARK    2  A    between atoms: C_9  and  S_10
REMARK    3  A    between atoms: S_10  and  C_11
REMARK    4  A    between atoms: C_11  and  C_12
REMARK                            x       y       z     vdW  Elec       q    Type
REMARK                         _______ _______ _______ _____ _____    ______ ____
ROOT
ATOM      1  C   UNL     1       2.450   7.154  19.131  0.00  0.00    +0.000 A 
ATOM      2  N   UNL     1       1.917   7.216  20.338  0.00  0.00    +0.000 NA
ATOM      3  N   UNL     1       1.335   8.456  20.457  0.00  0.00    +0.000 NA
ATOM      4  C   UNL     1       1.528   9.076  19.313  0.00  0.00    +0.000 A 
ATOM      5  O   UNL     1       2.234   8.314  18.419  0.00  0.00    +0.000 OA
ENDROOT
BRANCH   1  10
ATOM      6  C   UNL     1       2.415   1.880  17.961  0.00  0.00    +0.000 A 
ATOM      7  C   UNL     1       1.336   2.612  18.451  0.00  0.00    +0.000 A 
ATOM      8  C   UNL     1       1.465   3.979  18.725  0.00  0.00    +0.000 A 
ATOM      9  C   UNL     1       2.697   4.624  18.484  0.00  0.00    +0.000 A 
ATOM     10  C   UNL     1       3.176   5.958  18.619  0.00  0.00    +0.000 A 
ATOM     11  C   UNL     1       4.482   5.985  18.173  0.00  0.00    +0.000 A 
ATOM     12  N   UNL     1       4.827   4.710  17.812  0.00  0.00    +0.000 N 
ATOM     13  C   UNL     1       3.757   3.862  17.982  0.00  0.00    +0.000 A 
ATOM     14  C   UNL     1       3.650   2.491  17.724  0.00  0.00    +0.000 A 
ATOM     15  H   UNL     1       5.732   4.430  17.456  0.00  0.00    +0.000 HD
ENDBRANCH   1  10
BRANCH   4  16
ATOM     16  S   UNL     1       0.973  10.694  19.020  0.00  0.00    +0.000 S 
BRANCH  16  17
ATOM     17  C   UNL     1      -0.691  10.654  19.734  0.00  0.00    +0.000 C 
BRANCH  17  18
ATOM     18  C   UNL     1      -1.737  10.726  18.642  0.00  0.00    +0.000 A 
ATOM     19  C   UNL     1      -2.895  11.525  18.803  0.00  0.00    +0.000 A 
ATOM     20  C   UNL     1      -3.841  11.645  17.778  0.00  0.00    +0.000 A 
ATOM     21  C   UNL     1      -3.607  10.962  16.605  0.00  0.00    +0.000 A 
ATOM     22  C   UNL     1      -2.488  10.183  16.436  0.00  0.00    +0.000 A 
ATOM     23  C   UNL     1      -1.537  10.044  17.427  0.00  0.00    +0.000 A 
ATOM     24  O   UNL     1      -2.441   9.602  15.207  0.00  0.00    +0.000 OA
ATOM     25  C   UNL     1      -3.669  10.092  14.629  0.00  0.00    +0.000 C 
ATOM     26  O   UNL     1      -4.406  10.970  15.504  0.00  0.00    +0.000 OA
ENDBRANCH  17  18
ENDBRANCH  16  17
ENDBRANCH   4  16
TORSDOF 4
ENDMDL
MODEL 9
REMARK VINA RESULT:      -8.0      5.712      7.838
REMARK  Name = 
REMARK  4 active torsions:
REMARK  status: ('A' for Active; 'I' for Inactive)
REMARK    1  A    between atoms: C_5  and  C_6
REMARK    2  A    between atoms: C_9  and  S_10
REMARK    3  A    between atoms: S_10  and  C_11
REMARK    4  A    between atoms: C_11  and  C_12
REMARK                            x       y       z     vdW  Elec       q    Type
REMARK                         _______ _______ _______ _____ _____    ______ ____
ROOT
ATOM      1  C   UNL     1       2.226   6.602  19.918  0.00  0.00    +0.000 A 
ATOM      2  N   UNL     1       1.663   5.744  20.750  0.00  0.00    +0.000 NA
ATOM      3  N   UNL     1       2.377   4.572  20.663  0.00  0.00    +0.000 NA
ATOM      4  C   UNL     1       3.346   4.783  19.799  0.00  0.00    +0.000 A 
ATOM      5  O   UNL     1       3.314   6.050  19.277  0.00  0.00    +0.000 OA
ENDROOT
BRANCH   1  10
ATOM      6  C   UNL     1      -0.248  10.949  21.960  0.00  0.00    +0.000 A 
ATOM      7  C   UNL     1       0.018   9.767  22.646  0.00  0.00    +0.000 A 
ATOM      8  C   UNL     1       0.663   8.699  22.009  0.00  0.00    +0.000 A 
ATOM      9  C   UNL     1       1.063   8.832  20.662  0.00  0.00    +0.000 A 
ATOM     10  C   UNL     1       1.736   7.996  19.727  0.00  0.00    +0.000 A 
ATOM     11  C   UNL     1       1.886   8.708  18.555  0.00  0.00    +0.000 A 
ATOM     12  N   UNL     1       1.291   9.930  18.728  0.00  0.00    +0.000 N 
ATOM     13  C   UNL     1       0.790  10.036  20.005  0.00  0.00    +0.000 A 
ATOM     14  C   UNL     1       0.127  11.104  20.622  0.00  0.00    +0.000 A 
ATOM     15  H   UNL     1       1.240  10.657  18.027  0.00  0.00    +0.000 HD
ENDBRANCH   1  10
BRANCH   4  16
ATOM     16  S   UNL     1       4.492   3.556  19.359  0.00  0.00    +0.000 S 
BRANCH  16  17
ATOM     17  C   UNL     1       4.106   3.294  17.609  0.00  0.00    +0.000 C 
BRANCH  17  18
ATOM     18  C   UNL     1       5.139   3.969  16.732  0.00  0.00    +0.000 A 
ATOM     19  C   UNL     1       6.084   4.866  17.289  0.00  0.00    +0.000 A 
ATOM     20  C   UNL     1       7.080   5.451  16.498  0.00  0.00    +0.000 A 
ATOM     21  C   UNL     1       7.114   5.123  15.161  0.00  0.00    +0.000 A 
ATOM     22  C   UNL     1       6.204   4.254  14.608  0.00  0.00    +0.000 A 
ATOM     23  C   UNL     1       5.210   3.661  15.360  0.00  0.00    +0.000 A 
ATOM     24  O   UNL     1       6.415   4.058  13.279  0.00  0.00    +0.000 OA
ATOM     25  C   UNL     1       7.553   4.917  13.056  0.00  0.00    +0.000 C 
ATOM     26  O   UNL     1       8.013   5.582  14.250  0.00  0.00    +0.000 OA
ENDBRANCH  17  18
ENDBRANCH  16  17
ENDBRANCH   4  16
TORSDOF 4
ENDMDL
