MODEL 1
REMARK VINA RESULT:     -10.2      0.000      0.000
REMARK  Name = 
REMARK  2 active torsions:
REMARK  status: ('A' for Active; 'I' for Inactive)
REMARK    1  A    between atoms: N_3  and  C_4
REMARK    2  A    between atoms: C_17  and  C_18
REMARK                            x       y       z     vdW  Elec       q    Type
REMARK                         _______ _______ _______ _____ _____    ______ ____
ROOT
ATOM      1  O   UNL     1       2.028   7.712  20.581  0.00  0.00    +0.000 OA
ATOM      2  C   UNL     1       1.771   8.381  19.586  0.00  0.00    +0.000 C 
ATOM      3  N   UNL     1       2.272   8.115  18.330  0.00  0.00    +0.000 N 
ATOM      4  N   UNL     1       0.920   9.469  19.658  0.00  0.00    +0.000 N 
ATOM      5  C   UNL     1       0.510  10.340  18.553  0.00  0.00    +0.000 C 
ATOM      6  C   UNL     1      -0.544  11.319  19.127  0.00  0.00    +0.000 C 
ATOM      7  C   UNL     1      -0.360  11.149  20.647  0.00  0.00    +0.000 C 
ATOM      8  C   UNL     1      -1.492  11.508  21.604  0.00  0.00    +0.000 C 
ATOM      9  C   UNL     1      -1.052  11.239  23.047  0.00  0.00    +0.000 C 
ATOM     10  C   UNL     1      -0.544   9.809  23.236  0.00  0.00    +0.000 C 
ATOM     11  C   UNL     1       0.548   9.437  22.226  0.00  0.00    +0.000 C 
ATOM     12  C   UNL     1       0.040   9.678  20.801  0.00  0.00    +0.000 C 
ATOM     13  H   UNL     1       2.167   8.831  17.633  0.00  0.00    +0.000 HD
ENDROOT
BRANCH   3  14
ATOM     14  C   UNL     1       3.016   6.974  17.949  0.00  0.00    +0.000 A 
ATOM     15  C   UNL     1       2.473   5.689  17.874  0.00  0.00    +0.000 A 
ATOM     16  C   UNL     1       3.266   4.602  17.523  0.00  0.00    +0.000 A 
ATOM     17  C   UNL     1       4.607   4.794  17.210  0.00  0.00    +0.000 A 
ATOM     18  C   UNL     1       5.180   6.066  17.251  0.00  0.00    +0.000 A 
ATOM     19  C   UNL     1       4.368   7.156  17.621  0.00  0.00    +0.000 A 
ATOM     20  C   UNL     1       6.649   6.267  16.978  0.00  0.00    +0.000 C 
ATOM     21  N   UNL     1       7.043   5.913  15.610  0.00  0.00    +0.000 NA
ATOM     22  C   UNL     1       7.133   4.454  15.435  0.00  0.00    +0.000 C 
ATOM     23  C   UNL     1       5.795   3.718  15.557  0.00  0.00    +0.000 C 
ATOM     24  O   UNL     1       5.336   3.673  16.911  0.00  0.00    +0.000 OA
ATOM     25  H   UNL     1       7.967   6.306  15.438  0.00  0.00    +0.000 HD
ENDBRANCH   3  14
BRANCH   6  26
ATOM     26  C   UNL     1      -1.966  11.158  18.627  0.00  0.00    +0.000 A 
ATOM     27  C   UNL     1      -3.007  12.039  18.949  0.00  0.00    +0.000 A 
ATOM     28  C   UNL     1      -4.296  11.832  18.447  0.00  0.00    +0.000 A 
ATOM     29  C   UNL     1      -4.558  10.756  17.602  0.00  0.00    +0.000 A 
ATOM     30  C   UNL     1      -3.534   9.881  17.258  0.00  0.00    +0.000 A 
ATOM     31  C   UNL     1      -2.252  10.079  17.770  0.00  0.00    +0.000 A 
ENDBRANCH   6  26
TORSDOF 2
ENDMDL
MODEL 2
REMARK VINA RESULT:      -9.1      1.575      2.285
REMARK  Name = 
REMARK  2 active torsions:
REMARK  status: ('A' for Active; 'I' for Inactive)
REMARK    1  A    between atoms: N_3  and  C_4
REMARK    2  A    between atoms: C_17  and  C_18
REMARK                            x       y       z     vdW  Elec       q    Type
REMARK                         _______ _______ _______ _____ _____    ______ ____
ROOT
ATOM      1  O   UNL     1       1.646   7.940  20.693  0.00  0.00    +0.000 OA
ATOM      2  C   UNL     1       1.420   8.565  19.662  0.00  0.00    +0.000 C 
ATOM      3  N   UNL     1       1.908   8.209  18.423  0.00  0.00    +0.000 N 
ATOM      4  N   UNL     1       0.619   9.693  19.673  0.00  0.00    +0.000 N 
ATOM      5  C   UNL     1       0.249  10.521  18.521  0.00  0.00    +0.000 C 
ATOM      6  C   UNL     1      -0.760  11.576  19.039  0.00  0.00    +0.000 C 
ATOM      7  C   UNL     1      -0.583  11.481  20.566  0.00  0.00    +0.000 C 
ATOM      8  C   UNL     1      -1.697  11.942  21.500  0.00  0.00    +0.000 C 
ATOM      9  C   UNL     1      -1.270  11.732  22.957  0.00  0.00    +0.000 C 
ATOM     10  C   UNL     1      -0.828  10.293  23.224  0.00  0.00    +0.000 C 
ATOM     11  C   UNL     1       0.246   9.818  22.239  0.00  0.00    +0.000 C 
ATOM     12  C   UNL     1      -0.250  10.003  20.801  0.00  0.00    +0.000 C 
ATOM     13  H   UNL     1       1.836   8.890  17.689  0.00  0.00    +0.000 HD
ENDROOT
BRANCH   3  14
ATOM     14  C   UNL     1       2.600   7.016  18.107  0.00  0.00    +0.000 A 
ATOM     15  C   UNL     1       3.937   6.984  17.705  0.00  0.00    +0.000 A 
ATOM     16  C   UNL     1       4.552   5.780  17.377  0.00  0.00    +0.000 A 
ATOM     17  C   UNL     1       3.843   4.589  17.483  0.00  0.00    +0.000 A 
ATOM     18  C   UNL     1       2.512   4.578  17.904  0.00  0.00    +0.000 A 
ATOM     19  C   UNL     1       1.899   5.806  18.220  0.00  0.00    +0.000 A 
ATOM     20  C   UNL     1       1.722   3.295  17.954  0.00  0.00    +0.000 C 
ATOM     21  N   UNL     1       2.246   2.323  18.919  0.00  0.00    +0.000 NA
ATOM     22  C   UNL     1       3.450   1.649  18.406  0.00  0.00    +0.000 C 
ATOM     23  C   UNL     1       4.662   2.569  18.226  0.00  0.00    +0.000 C 
ATOM     24  O   UNL     1       4.500   3.447  17.107  0.00  0.00    +0.000 OA
ATOM     25  H   UNL     1       1.531   1.614  19.069  0.00  0.00    +0.000 HD
ENDBRANCH   3  14
BRANCH   6  26
ATOM     26  C   UNL     1      -2.187  11.453  18.545  0.00  0.00    +0.000 A 
ATOM     27  C   UNL     1      -3.270  12.125  19.126  0.00  0.00    +0.000 A 
ATOM     28  C   UNL     1      -4.563  11.969  18.614  0.00  0.00    +0.000 A 
ATOM     29  C   UNL     1      -4.787  11.157  17.504  0.00  0.00    +0.000 A 
ATOM     30  C   UNL     1      -3.721  10.496  16.904  0.00  0.00    +0.000 A 
ATOM     31  C   UNL     1      -2.435  10.640  17.423  0.00  0.00    +0.000 A 
ENDBRANCH   6  26
TORSDOF 2
ENDMDL
MODEL 3
REMARK VINA RESULT:      -8.7      1.026      1.111
REMARK  Name = 
REMARK  2 active torsions:
REMARK  status: ('A' for Active; 'I' for Inactive)
REMARK    1  A    between atoms: N_3  and  C_4
REMARK    2  A    between atoms: C_17  and  C_18
REMARK                            x       y       z     vdW  Elec       q    Type
REMARK                         _______ _______ _______ _____ _____    ______ ____
ROOT
ATOM      1  O   UNL     1       1.441   8.520  21.016  0.00  0.00    +0.000 OA
ATOM      2  C   UNL     1       1.250   9.065  19.933  0.00  0.00    +0.000 C 
ATOM      3  N   UNL     1       1.833   8.657  18.753  0.00  0.00    +0.000 N 
ATOM      4  N   UNL     1       0.393  10.145  19.820  0.00  0.00    +0.000 N 
ATOM      5  C   UNL     1       0.057  10.876  18.595  0.00  0.00    +0.000 C 
ATOM      6  C   UNL     1      -1.035  11.906  18.979  0.00  0.00    +0.000 C 
ATOM      7  C   UNL     1      -0.951  11.918  20.517  0.00  0.00    +0.000 C 
ATOM      8  C   UNL     1      -2.144  12.377  21.348  0.00  0.00    +0.000 C 
ATOM      9  C   UNL     1      -1.801  12.285  22.839  0.00  0.00    +0.000 C 
ATOM     10  C   UNL     1      -1.304  10.892  23.229  0.00  0.00    +0.000 C 
ATOM     11  C   UNL     1      -0.148  10.414  22.344  0.00  0.00    +0.000 C 
ATOM     12  C   UNL     1      -0.560  10.480  20.870  0.00  0.00    +0.000 C 
ATOM     13  H   UNL     1       1.773   9.284  17.971  0.00  0.00    +0.000 HD
ENDROOT
BRANCH   3  14
ATOM     14  C   UNL     1       2.602   7.485  18.561  0.00  0.00    +0.000 A 
ATOM     15  C   UNL     1       2.403   6.305  19.281  0.00  0.00    +0.000 A 
ATOM     16  C   UNL     1       3.215   5.196  19.066  0.00  0.00    +0.000 A 
ATOM     17  C   UNL     1       4.215   5.245  18.101  0.00  0.00    +0.000 A 
ATOM     18  C   UNL     1       4.429   6.399  17.345  0.00  0.00    +0.000 A 
ATOM     19  C   UNL     1       3.608   7.518  17.583  0.00  0.00    +0.000 A 
ATOM     20  C   UNL     1       5.556   6.477  16.347  0.00  0.00    +0.000 C 
ATOM     21  N   UNL     1       5.419   5.531  15.235  0.00  0.00    +0.000 NA
ATOM     22  C   UNL     1       5.776   4.162  15.645  0.00  0.00    +0.000 C 
ATOM     23  C   UNL     1       4.830   3.543  16.677  0.00  0.00    +0.000 C 
ATOM     24  O   UNL     1       5.000   4.130  17.971  0.00  0.00    +0.000 OA
ATOM     25  H   UNL     1       6.064   5.816  14.500  0.00  0.00    +0.000 HD
ENDBRANCH   3  14
BRANCH   6  26
ATOM     26  C   UNL     1      -2.420  11.674  18.409  0.00  0.00    +0.000 A 
ATOM     27  C   UNL     1      -3.600  12.075  19.050  0.00  0.00    +0.000 A 
ATOM     28  C   UNL     1      -4.846  11.833  18.462  0.00  0.00    +0.000 A 
ATOM     29  C   UNL     1      -4.930  11.207  17.220  0.00  0.00    +0.000 A 
ATOM     30  C   UNL     1      -3.768  10.818  16.563  0.00  0.00    +0.000 A 
ATOM     31  C   UNL     1      -2.526  11.045  17.154  0.00  0.00    +0.000 A 
ENDBRANCH   6  26
TORSDOF 2
ENDMDL
MODEL 4
REMARK VINA RESULT:      -8.6      2.963      9.151
REMARK  Name = 
REMARK  2 active torsions:
REMARK  status: ('A' for Active; 'I' for Inactive)
REMARK    1  A    between atoms: N_3  and  C_4
REMARK    2  A    between atoms: C_17  and  C_18
REMARK                            x       y       z     vdW  Elec       q    Type
REMARK                         _______ _______ _______ _____ _____    ______ ____
ROOT
ATOM      1  O   UNL     1       0.890   7.351  21.111  0.00  0.00    +0.000 OA
ATOM      2  C   UNL     1       1.446   7.574  20.040  0.00  0.00    +0.000 C 
ATOM      3  N   UNL     1       1.511   8.818  19.452  0.00  0.00    +0.000 N 
ATOM      4  N   UNL     1       2.080   6.562  19.342  0.00  0.00    +0.000 N 
ATOM      5  C   UNL     1       2.798   6.687  18.070  0.00  0.00    +0.000 C 
ATOM      6  C   UNL     1       3.431   5.303  17.781  0.00  0.00    +0.000 C 
ATOM      7  C   UNL     1       2.682   4.384  18.764  0.00  0.00    +0.000 C 
ATOM      8  C   UNL     1       3.300   3.062  19.204  0.00  0.00    +0.000 C 
ATOM      9  C   UNL     1       2.359   2.352  20.183  0.00  0.00    +0.000 C 
ATOM     10  C   UNL     1       1.971   3.248  21.360  0.00  0.00    +0.000 C 
ATOM     11  C   UNL     1       1.411   4.601  20.906  0.00  0.00    +0.000 C 
ATOM     12  C   UNL     1       2.411   5.289  19.971  0.00  0.00    +0.000 C 
ATOM     13  H   UNL     1       1.806   8.856  18.492  0.00  0.00    +0.000 HD
ENDROOT
BRANCH   3  14
ATOM     14  C   UNL     1       1.102  10.042  20.032  0.00  0.00    +0.000 A 
ATOM     15  C   UNL     1       1.466  11.293  19.530  0.00  0.00    +0.000 A 
ATOM     16  C   UNL     1       1.057  12.460  20.165  0.00  0.00    +0.000 A 
ATOM     17  C   UNL     1       0.247  12.388  21.293  0.00  0.00    +0.000 A 
ATOM     18  C   UNL     1      -0.158  11.156  21.811  0.00  0.00    +0.000 A 
ATOM     19  C   UNL     1       0.276   9.983  21.165  0.00  0.00    +0.000 A 
ATOM     20  C   UNL     1      -0.979  11.075  23.072  0.00  0.00    +0.000 C 
ATOM     21  N   UNL     1      -2.306  11.685  22.947  0.00  0.00    +0.000 NA
ATOM     22  C   UNL     1      -2.231  13.155  23.001  0.00  0.00    +0.000 C 
ATOM     23  C   UNL     1      -1.498  13.796  21.819  0.00  0.00    +0.000 C 
ATOM     24  O   UNL     1      -0.086  13.576  21.889  0.00  0.00    +0.000 OA
ATOM     25  H   UNL     1      -2.871  11.371  23.734  0.00  0.00    +0.000 HD
ENDBRANCH   3  14
BRANCH   6  26
ATOM     26  C   UNL     1       4.943   5.220  17.843  0.00  0.00    +0.000 A 
ATOM     27  C   UNL     1       5.700   5.654  18.939  0.00  0.00    +0.000 A 
ATOM     28  C   UNL     1       7.095   5.541  18.930  0.00  0.00    +0.000 A 
ATOM     29  C   UNL     1       7.748   4.975  17.837  0.00  0.00    +0.000 A 
ATOM     30  C   UNL     1       7.011   4.524  16.748  0.00  0.00    +0.000 A 
ATOM     31  C   UNL     1       5.623   4.649  16.750  0.00  0.00    +0.000 A 
ENDBRANCH   6  26
TORSDOF 2
ENDMDL
MODEL 5
REMARK VINA RESULT:      -8.5      2.648      9.255
REMARK  Name = 
REMARK  2 active torsions:
REMARK  status: ('A' for Active; 'I' for Inactive)
REMARK    1  A    between atoms: N_3  and  C_4
REMARK    2  A    between atoms: C_17  and  C_18
REMARK                            x       y       z     vdW  Elec       q    Type
REMARK                         _______ _______ _______ _____ _____    ______ ____
ROOT
ATOM      1  O   UNL     1       0.807   6.475  21.237  0.00  0.00    +0.000 OA
ATOM      2  C   UNL     1       1.386   7.096  20.352  0.00  0.00    +0.000 C 
ATOM      3  N   UNL     1       1.218   8.444  20.122  0.00  0.00    +0.000 N 
ATOM      4  N   UNL     1       2.288   6.467  19.513  0.00  0.00    +0.000 N 
ATOM      5  C   UNL     1       3.062   7.084  18.432  0.00  0.00    +0.000 C 
ATOM      6  C   UNL     1       4.013   5.990  17.887  0.00  0.00    +0.000 C 
ATOM      7  C   UNL     1       3.410   4.702  18.481  0.00  0.00    +0.000 C 
ATOM      8  C   UNL     1       4.271   3.455  18.646  0.00  0.00    +0.000 C 
ATOM      9  C   UNL     1       3.435   2.328  19.262  0.00  0.00    +0.000 C 
ATOM     10  C   UNL     1       2.759   2.761  20.564  0.00  0.00    +0.000 C 
ATOM     11  C   UNL     1       1.949   4.052  20.402  0.00  0.00    +0.000 C 
ATOM     12  C   UNL     1       2.843   5.157  19.829  0.00  0.00    +0.000 C 
ATOM     13  H   UNL     1       1.576   8.810  19.258  0.00  0.00    +0.000 HD
ENDROOT
BRANCH   3  14
ATOM     14  C   UNL     1       0.497   9.349  20.936  0.00  0.00    +0.000 A 
ATOM     15  C   UNL     1       0.442   9.258  22.329  0.00  0.00    +0.000 A 
ATOM     16  C   UNL     1      -0.312  10.161  23.071  0.00  0.00    +0.000 A 
ATOM     17  C   UNL     1      -0.992  11.189  22.428  0.00  0.00    +0.000 A 
ATOM     18  C   UNL     1      -0.942  11.328  21.039  0.00  0.00    +0.000 A 
ATOM     19  C   UNL     1      -0.185  10.397  20.301  0.00  0.00    +0.000 A 
ATOM     20  C   UNL     1      -1.732  12.400  20.335  0.00  0.00    +0.000 C 
ATOM     21  N   UNL     1      -1.315  13.761  20.688  0.00  0.00    +0.000 NA
ATOM     22  C   UNL     1      -1.820  14.154  22.014  0.00  0.00    +0.000 C 
ATOM     23  C   UNL     1      -1.231  13.353  23.179  0.00  0.00    +0.000 C 
ATOM     24  O   UNL     1      -1.744  12.018  23.218  0.00  0.00    +0.000 OA
ATOM     25  H   UNL     1      -1.712  14.399  20.000  0.00  0.00    +0.000 HD
ENDBRANCH   3  14
BRANCH   6  26
ATOM     26  C   UNL     1       5.494   6.186  18.140  0.00  0.00    +0.000 A 
ATOM     27  C   UNL     1       6.202   5.531  19.156  0.00  0.00    +0.000 A 
ATOM     28  C   UNL     1       7.571   5.756  19.329  0.00  0.00    +0.000 A 
ATOM     29  C   UNL     1       8.256   6.622  18.478  0.00  0.00    +0.000 A 
ATOM     30  C   UNL     1       7.573   7.267  17.454  0.00  0.00    +0.000 A 
ATOM     31  C   UNL     1       6.205   7.054  17.290  0.00  0.00    +0.000 A 
ENDBRANCH   6  26
TORSDOF 2
ENDMDL
MODEL 6
REMARK VINA RESULT:      -8.4      2.162      2.970
REMARK  Name = 
REMARK  2 active torsions:
REMARK  status: ('A' for Active; 'I' for Inactive)
REMARK    1  A    between atoms: N_3  and  C_4
REMARK    2  A    between atoms: C_17  and  C_18
REMARK                            x       y       z     vdW  Elec       q    Type
REMARK                         _______ _______ _______ _____ _____    ______ ____
ROOT
ATOM      1  O   UNL     1       1.450   7.831  21.377  0.00  0.00    +0.000 OA
ATOM      2  C   UNL     1       1.399   8.270  20.233  0.00  0.00    +0.000 C 
ATOM      3  N   UNL     1       1.992   7.661  19.149  0.00  0.00    +0.000 N 
ATOM      4  N   UNL     1       0.702   9.429  19.944  0.00  0.00    +0.000 N 
ATOM      5  C   UNL     1       0.540  10.054  18.628  0.00  0.00    +0.000 C 
ATOM      6  C   UNL     1      -0.426  11.249  18.821  0.00  0.00    +0.000 C 
ATOM      7  C   UNL     1      -0.434  11.425  20.351  0.00  0.00    +0.000 C 
ATOM      8  C   UNL     1      -1.603  12.122  21.039  0.00  0.00    +0.000 C 
ATOM      9  C   UNL     1      -1.365  12.156  22.553  0.00  0.00    +0.000 C 
ATOM     10  C   UNL     1      -1.083  10.765  23.121  0.00  0.00    +0.000 C 
ATOM     11  C   UNL     1       0.051  10.048  22.380  0.00  0.00    +0.000 C 
ATOM     12  C   UNL     1      -0.259   9.998  20.880  0.00  0.00    +0.000 C 
ATOM     13  H   UNL     1       2.064   8.199  18.303  0.00  0.00    +0.000 HD
ENDROOT
BRANCH   3  14
ATOM     14  C   UNL     1       2.609   6.388  19.137  0.00  0.00    +0.000 A 
ATOM     15  C   UNL     1       3.733   6.083  18.366  0.00  0.00    +0.000 A 
ATOM     16  C   UNL     1       4.275   4.802  18.374  0.00  0.00    +0.000 A 
ATOM     17  C   UNL     1       3.716   3.819  19.183  0.00  0.00    +0.000 A 
ATOM     18  C   UNL     1       2.607   4.091  19.986  0.00  0.00    +0.000 A 
ATOM     19  C   UNL     1       2.062   5.390  19.956  0.00  0.00    +0.000 A 
ATOM     20  C   UNL     1       1.959   3.009  20.811  0.00  0.00    +0.000 C 
ATOM     21  N   UNL     1       2.835   2.468  21.855  0.00  0.00    +0.000 NA
ATOM     22  C   UNL     1       3.836   1.545  21.295  0.00  0.00    +0.000 C 
ATOM     23  C   UNL     1       4.858   2.208  20.368  0.00  0.00    +0.000 C 
ATOM     24  O   UNL     1       4.277   2.571  19.111  0.00  0.00    +0.000 OA
ATOM     25  H   UNL     1       2.255   1.942  22.508  0.00  0.00    +0.000 HD
ENDBRANCH   3  14
BRANCH   6  26
ATOM     26  C   UNL     1      -1.793  11.131  18.177  0.00  0.00    +0.000 A 
ATOM     27  C   UNL     1      -2.899  11.902  18.556  0.00  0.00    +0.000 A 
ATOM     28  C   UNL     1      -4.132  11.743  17.914  0.00  0.00    +0.000 A 
ATOM     29  C   UNL     1      -4.270  10.828  16.873  0.00  0.00    +0.000 A 
ATOM     30  C   UNL     1      -3.179  10.066  16.472  0.00  0.00    +0.000 A 
ATOM     31  C   UNL     1      -1.953  10.214  17.121  0.00  0.00    +0.000 A 
ENDBRANCH   6  26
TORSDOF 2
ENDMDL
MODEL 7
REMARK VINA RESULT:      -8.4      2.436      9.091
REMARK  Name = 
REMARK  2 active torsions:
REMARK  status: ('A' for Active; 'I' for Inactive)
REMARK    1  A    between atoms: N_3  and  C_4
REMARK    2  A    between atoms: C_17  and  C_18
REMARK                            x       y       z     vdW  Elec       q    Type
REMARK                         _______ _______ _______ _____ _____    ______ ____
ROOT
ATOM      1  O   UNL     1       2.446   9.151  17.450  0.00  0.00    +0.000 OA
ATOM      2  C   UNL     1       2.297   8.461  18.454  0.00  0.00    +0.000 C 
ATOM      3  N   UNL     1       1.427   8.770  19.477  0.00  0.00    +0.000 N 
ATOM      4  N   UNL     1       3.000   7.281  18.619  0.00  0.00    +0.000 N 
ATOM      5  C   UNL     1       2.908   6.352  19.749  0.00  0.00    +0.000 C 
ATOM      6  C   UNL     1       3.793   5.132  19.394  0.00  0.00    +0.000 C 
ATOM      7  C   UNL     1       4.629   5.662  18.214  0.00  0.00    +0.000 C 
ATOM      8  C   UNL     1       5.259   4.693  17.220  0.00  0.00    +0.000 C 
ATOM      9  C   UNL     1       6.025   5.476  16.149  0.00  0.00    +0.000 C 
ATOM     10  C   UNL     1       5.150   6.534  15.475  0.00  0.00    +0.000 C 
ATOM     11  C   UNL     1       4.471   7.463  16.488  0.00  0.00    +0.000 C 
ATOM     12  C   UNL     1       3.680   6.633  17.504  0.00  0.00    +0.000 C 
ATOM     13  H   UNL     1       1.528   8.256  20.335  0.00  0.00    +0.000 HD
ENDROOT
BRANCH   3  14
ATOM     14  C   UNL     1       0.473   9.814  19.479  0.00  0.00    +0.000 A 
ATOM     15  C   UNL     1      -0.333  10.123  18.382  0.00  0.00    +0.000 A 
ATOM     16  C   UNL     1      -1.231  11.184  18.436  0.00  0.00    +0.000 A 
ATOM     17  C   UNL     1      -1.357  11.926  19.605  0.00  0.00    +0.000 A 
ATOM     18  C   UNL     1      -0.585  11.633  20.731  0.00  0.00    +0.000 A 
ATOM     19  C   UNL     1       0.329  10.564  20.656  0.00  0.00    +0.000 A 
ATOM     20  C   UNL     1      -0.672  12.478  21.976  0.00  0.00    +0.000 C 
ATOM     21  N   UNL     1      -1.989  12.439  22.619  0.00  0.00    +0.000 NA
ATOM     22  C   UNL     1      -2.967  13.269  21.897  0.00  0.00    +0.000 C 
ATOM     23  C   UNL     1      -3.310  12.765  20.492  0.00  0.00    +0.000 C 
ATOM     24  O   UNL     1      -2.233  12.979  19.574  0.00  0.00    +0.000 OA
ATOM     25  H   UNL     1      -1.890  12.819  23.559  0.00  0.00    +0.000 HD
ENDBRANCH   3  14
BRANCH   6  26
ATOM     26  C   UNL     1       3.076   3.821  19.139  0.00  0.00    +0.000 A 
ATOM     27  C   UNL     1       3.710   2.573  19.156  0.00  0.00    +0.000 A 
ATOM     28  C   UNL     1       2.984   1.402  18.917  0.00  0.00    +0.000 A 
ATOM     29  C   UNL     1       1.612   1.460  18.678  0.00  0.00    +0.000 A 
ATOM     30  C   UNL     1       0.963   2.689  18.674  0.00  0.00    +0.000 A 
ATOM     31  C   UNL     1       1.689   3.858  18.898  0.00  0.00    +0.000 A 
ENDBRANCH   6  26
TORSDOF 2
ENDMDL
MODEL 8
REMARK VINA RESULT:      -8.4      2.964      8.896
REMARK  Name = 
REMARK  2 active torsions:
REMARK  status: ('A' for Active; 'I' for Inactive)
REMARK    1  A    between atoms: N_3  and  C_4
REMARK    2  A    between atoms: C_17  and  C_18
REMARK                            x       y       z     vdW  Elec       q    Type
REMARK                         _______ _______ _______ _____ _____    ______ ____
ROOT
ATOM      1  O   UNL     1       0.905   7.286  21.031  0.00  0.00    +0.000 OA
ATOM      2  C   UNL     1       1.499   7.503  19.979  0.00  0.00    +0.000 C 
ATOM      3  N   UNL     1       1.573   8.742  19.381  0.00  0.00    +0.000 N 
ATOM      4  N   UNL     1       2.169   6.492  19.316  0.00  0.00    +0.000 N 
ATOM      5  C   UNL     1       2.933   6.612  18.070  0.00  0.00    +0.000 C 
ATOM      6  C   UNL     1       3.591   5.232  17.819  0.00  0.00    +0.000 C 
ATOM      7  C   UNL     1       2.815   4.315  18.784  0.00  0.00    +0.000 C 
ATOM      8  C   UNL     1       3.431   3.004  19.260  0.00  0.00    +0.000 C 
ATOM      9  C   UNL     1       2.461   2.294  20.211  0.00  0.00    +0.000 C 
ATOM     10  C   UNL     1       2.020   3.198  21.363  0.00  0.00    +0.000 C 
ATOM     11  C   UNL     1       1.463   4.539  20.874  0.00  0.00    +0.000 C 
ATOM     12  C   UNL     1       2.490   5.229  19.969  0.00  0.00    +0.000 C 
ATOM     13  H   UNL     1       1.903   8.774  18.432  0.00  0.00    +0.000 HD
ENDROOT
BRANCH   3  14
ATOM     14  C   UNL     1       1.129   9.967  19.932  0.00  0.00    +0.000 A 
ATOM     15  C   UNL     1       0.661  10.098  21.242  0.00  0.00    +0.000 A 
ATOM     16  C   UNL     1       0.209  11.325  21.716  0.00  0.00    +0.000 A 
ATOM     17  C   UNL     1       0.253  12.445  20.892  0.00  0.00    +0.000 A 
ATOM     18  C   UNL     1       0.736  12.359  19.585  0.00  0.00    +0.000 A 
ATOM     19  C   UNL     1       1.178  11.107  19.116  0.00  0.00    +0.000 A 
ATOM     20  C   UNL     1       0.721  13.556  18.670  0.00  0.00    +0.000 C 
ATOM     21  N   UNL     1       1.578  14.654  19.129  0.00  0.00    +0.000 NA
ATOM     22  C   UNL     1       0.955  15.398  20.236  0.00  0.00    +0.000 C 
ATOM     23  C   UNL     1       0.791  14.592  21.528  0.00  0.00    +0.000 C 
ATOM     24  O   UNL     1      -0.244  13.610  21.412  0.00  0.00    +0.000 OA
ATOM     25  H   UNL     1       1.705  15.298  18.351  0.00  0.00    +0.000 HD
ENDBRANCH   3  14
BRANCH   6  26
ATOM     26  C   UNL     1       5.100   5.166  17.939  0.00  0.00    +0.000 A 
ATOM     27  C   UNL     1       5.812   5.623  19.055  0.00  0.00    +0.000 A 
ATOM     28  C   UNL     1       7.206   5.525  19.100  0.00  0.00    +0.000 A 
ATOM     29  C   UNL     1       7.906   4.952  18.040  0.00  0.00    +0.000 A 
ATOM     30  C   UNL     1       7.215   4.477  16.931  0.00  0.00    +0.000 A 
ATOM     31  C   UNL     1       5.826   4.587  16.880  0.00  0.00    +0.000 A 
ENDBRANCH   6  26
TORSDOF 2
ENDMDL
MODEL 9
REMARK VINA RESULT:      -8.3      3.126      9.233
REMARK  Name = 
REMARK  2 active torsions:
REMARK  status: ('A' for Active; 'I' for Inactive)
REMARK    1  A    between atoms: N_3  and  C_4
REMARK    2  A    between atoms: C_17  and  C_18
REMARK                            x       y       z     vdW  Elec       q    Type
REMARK                         _______ _______ _______ _____ _____    ______ ____
ROOT
ATOM      1  O   UNL     1       0.738   7.822  21.244  0.00  0.00    +0.000 OA
ATOM      2  C   UNL     1       1.318   8.173  20.222  0.00  0.00    +0.000 C 
ATOM      3  N   UNL     1       1.348   9.472  19.762  0.00  0.00    +0.000 N 
ATOM      4  N   UNL     1       2.021   7.263  19.453  0.00  0.00    +0.000 N 
ATOM      5  C   UNL     1       2.774   7.544  18.227  0.00  0.00    +0.000 C 
ATOM      6  C   UNL     1       3.478   6.223  17.828  0.00  0.00    +0.000 C 
ATOM      7  C   UNL     1       2.739   5.181  18.687  0.00  0.00    +0.000 C 
ATOM      8  C   UNL     1       3.401   3.848  19.018  0.00  0.00    +0.000 C 
ATOM      9  C   UNL     1       2.460   3.006  19.887  0.00  0.00    +0.000 C 
ATOM     10  C   UNL     1       1.993   3.763  21.130  0.00  0.00    +0.000 C 
ATOM     11  C   UNL     1       1.388   5.130  20.790  0.00  0.00    +0.000 C 
ATOM     12  C   UNL     1       2.387   5.949  19.965  0.00  0.00    +0.000 C 
ATOM     13  H   UNL     1       1.672   9.618  18.823  0.00  0.00    +0.000 HD
ENDROOT
BRANCH   3  14
ATOM     14  C   UNL     1       0.865  10.613  20.444  0.00  0.00    +0.000 A 
ATOM     15  C   UNL     1       1.309  11.911  20.184  0.00  0.00    +0.000 A 
ATOM     16  C   UNL     1       0.817  12.990  20.911  0.00  0.00    +0.000 A 
ATOM     17  C   UNL     1      -0.153  12.784  21.886  0.00  0.00    +0.000 A 
ATOM     18  C   UNL     1      -0.640  11.504  22.158  0.00  0.00    +0.000 A 
ATOM     19  C   UNL     1      -0.122  10.420  21.422  0.00  0.00    +0.000 A 
ATOM     20  C   UNL     1      -1.642  11.270  23.259  0.00  0.00    +0.000 C 
ATOM     21  N   UNL     1      -2.930  11.930  23.027  0.00  0.00    +0.000 NA
ATOM     22  C   UNL     1      -2.854  13.374  23.301  0.00  0.00    +0.000 C 
ATOM     23  C   UNL     1      -1.948  14.153  22.343  0.00  0.00    +0.000 C 
ATOM     24  O   UNL     1      -0.563  13.886  22.588  0.00  0.00    +0.000 OA
ATOM     25  H   UNL     1      -3.610  11.525  23.669  0.00  0.00    +0.000 HD
ENDBRANCH   3  14
BRANCH   6  26
ATOM     26  C   UNL     1       4.989   6.197  17.938  0.00  0.00    +0.000 A 
ATOM     27  C   UNL     1       5.849   6.749  16.980  0.00  0.00    +0.000 A 
ATOM     28  C   UNL     1       7.236   6.693  17.150  0.00  0.00    +0.000 A 
ATOM     29  C   UNL     1       7.782   6.102  18.288  0.00  0.00    +0.000 A 
ATOM     30  C   UNL     1       6.944   5.563  19.258  0.00  0.00    +0.000 A 
ATOM     31  C   UNL     1       5.562   5.607  19.082  0.00  0.00    +0.000 A 
ENDBRANCH   6  26
TORSDOF 2
ENDMDL
