MODEL 1
REMARK VINA RESULT:      -8.6      0.000      0.000
REMARK  Name = 
REMARK  7 active torsions:
REMARK  status: ('A' for Active; 'I' for Inactive)
REMARK    1  A    between atoms: C_1  and  N_2
REMARK    2  A    between atoms: C_6  and  C_7
REMARK    3  A    between atoms: C_7  and  C_8
REMARK    4  A    between atoms: C_11  and  N_12
REMARK    5  A    between atoms: C_19  and  C_20
REMARK    6  A    between atoms: C_20  and  C_21
REMARK    7  A    between atoms: C_27  and  C_28
REMARK                            x       y       z     vdW  Elec       q    Type
REMARK                         _______ _______ _______ _____ _____    ______ ____
ROOT
ATOM      1  C   UNL     1       1.455   9.109  19.007  0.00  0.00    +0.000 A 
ATOM      2  C   UNL     1       2.137   8.273  18.109  0.00  0.00    +0.000 A 
ATOM      3  C   UNL     1       2.509   6.992  18.468  0.00  0.00    +0.000 A 
ATOM      4  C   UNL     1       2.384   6.594  19.802  0.00  0.00    +0.000 A 
ATOM      5  C   UNL     1       1.544   7.336  20.647  0.00  0.00    +0.000 A 
ATOM      6  C   UNL     1       0.998   8.577  20.238  0.00  0.00    +0.000 A 
ENDROOT
BRANCH   4   7
ATOM      7  N   UNL     1       3.370   5.674  20.359  0.00  0.00    +0.000 N 
ATOM      8  C   UNL     1       4.453   5.447  19.369  0.00  0.00    +0.000 C 
ATOM      9  C   UNL     1       3.946   4.262  18.600  0.00  0.00    +0.000 A 
ATOM     10  C   UNL     1       3.100   3.544  19.453  0.00  0.00    +0.000 A 
ATOM     11  C   UNL     1       2.309   2.495  19.014  0.00  0.00    +0.000 A 
ATOM     12  C   UNL     1       2.369   2.170  17.660  0.00  0.00    +0.000 A 
ATOM     13  C   UNL     1       3.216   2.884  16.790  0.00  0.00    +0.000 A 
ATOM     14  C   UNL     1       4.029   3.943  17.247  0.00  0.00    +0.000 A 
ATOM     15  C   UNL     1       2.871   4.374  20.661  0.00  0.00    +0.000 C 
ATOM     16  O   UNL     1       2.191   4.022  21.612  0.00  0.00    +0.000 OA
BRANCH  14  17
ATOM     17  C   UNL     1       4.890   4.703  16.266  0.00  0.00    +0.000 C 
ATOM     18  C   UNL     1       6.357   4.573  16.633  0.00  0.00    +0.000 C 
ATOM     19  F   UNL     1       4.739   4.261  14.982  0.00  0.00    +0.000 F 
ATOM     20  F   UNL     1       4.595   6.035  16.205  0.00  0.00    +0.000 F 
ENDBRANCH  14  17
ENDBRANCH   4   7
BRANCH   6  21
ATOM     21  C   UNL     1      -0.127   9.238  21.014  0.00  0.00    +0.000 C 
ATOM     22  C   UNL     1       0.151  10.291  22.057  0.00  0.00    +0.000 C 
ATOM     23  C   UNL     1      -0.424   8.973  22.468  0.00  0.00    +0.000 C 
ENDBRANCH   6  21
BRANCH   1  24
ATOM     24  C   UNL     1       1.216  10.535  18.568  0.00  0.00    +0.000 C 
BRANCH  24  30
ATOM     25  C   UNL     1      -0.461  13.144  19.333  0.00  0.00    +0.000 C 
ATOM     26  N   UNL     1      -0.921  11.978  18.631  0.00  0.00    +0.000 N 
ATOM     27  C   UNL     1      -2.206  11.782  18.220  0.00  0.00    +0.000 A 
ATOM     28  N   UNL     1      -2.290  10.646  17.572  0.00  0.00    +0.000 NA
ATOM     29  N   UNL     1      -1.044  10.068  17.586  0.00  0.00    +0.000 NA
ATOM     30  C   UNL     1      -0.218  10.861  18.247  0.00  0.00    +0.000 A 
ENDBRANCH  24  30
ENDBRANCH   1  24
TORSDOF 5
ENDMDL
MODEL 2
REMARK VINA RESULT:      -7.9      0.544      1.094
REMARK  Name = 
REMARK  7 active torsions:
REMARK  status: ('A' for Active; 'I' for Inactive)
REMARK    1  A    between atoms: C_1  and  N_2
REMARK    2  A    between atoms: C_6  and  C_7
REMARK    3  A    between atoms: C_7  and  C_8
REMARK    4  A    between atoms: C_11  and  N_12
REMARK    5  A    between atoms: C_19  and  C_20
REMARK    6  A    between atoms: C_20  and  C_21
REMARK    7  A    between atoms: C_27  and  C_28
REMARK                            x       y       z     vdW  Elec       q    Type
REMARK                         _______ _______ _______ _____ _____    ______ ____
ROOT
ATOM      1  C   UNL     1       1.552   9.199  18.993  0.00  0.00    +0.000 A 
ATOM      2  C   UNL     1       2.180   8.323  18.095  0.00  0.00    +0.000 A 
ATOM      3  C   UNL     1       2.499   7.030  18.464  0.00  0.00    +0.000 A 
ATOM      4  C   UNL     1       2.378   6.654  19.804  0.00  0.00    +0.000 A 
ATOM      5  C   UNL     1       1.587   7.443  20.653  0.00  0.00    +0.000 A 
ATOM      6  C   UNL     1       1.091   8.702  20.237  0.00  0.00    +0.000 A 
ENDROOT
BRANCH   4   7
ATOM      7  N   UNL     1       3.331   5.697  20.356  0.00  0.00    +0.000 N 
ATOM      8  C   UNL     1       4.416   5.451  19.374  0.00  0.00    +0.000 C 
ATOM      9  C   UNL     1       3.881   4.294  18.582  0.00  0.00    +0.000 A 
ATOM     10  C   UNL     1       3.006   3.589  19.417  0.00  0.00    +0.000 A 
ATOM     11  C   UNL     1       2.188   2.571  18.956  0.00  0.00    +0.000 A 
ATOM     12  C   UNL     1       2.251   2.264  17.597  0.00  0.00    +0.000 A 
ATOM     13  C   UNL     1       3.128   2.964  16.745  0.00  0.00    +0.000 A 
ATOM     14  C   UNL     1       3.968   3.991  17.226  0.00  0.00    +0.000 A 
ATOM     15  C   UNL     1       2.789   4.408  20.635  0.00  0.00    +0.000 C 
ATOM     16  O   UNL     1       2.090   4.063  21.574  0.00  0.00    +0.000 OA
BRANCH  14  17
ATOM     17  C   UNL     1       4.861   4.739  16.264  0.00  0.00    +0.000 C 
ATOM     18  C   UNL     1       6.319   4.572  16.652  0.00  0.00    +0.000 C 
ATOM     19  F   UNL     1       4.719   4.311  14.974  0.00  0.00    +0.000 F 
ATOM     20  F   UNL     1       4.598   6.078  16.210  0.00  0.00    +0.000 F 
ENDBRANCH  14  17
ENDBRANCH   4   7
BRANCH   6  21
ATOM     21  C   UNL     1       0.009   9.423  21.022  0.00  0.00    +0.000 C 
ATOM     22  C   UNL     1       0.316  10.115  22.327  0.00  0.00    +0.000 C 
ATOM     23  C   UNL     1      -0.579   8.917  22.315  0.00  0.00    +0.000 C 
ENDBRANCH   6  21
BRANCH   1  24
ATOM     24  C   UNL     1       1.370  10.629  18.540  0.00  0.00    +0.000 C 
BRANCH  24  30
ATOM     25  C   UNL     1      -1.361   9.684  17.180  0.00  0.00    +0.000 C 
ATOM     26  N   UNL     1      -1.167  10.772  18.098  0.00  0.00    +0.000 N 
ATOM     27  C   UNL     1      -2.149  11.631  18.496  0.00  0.00    +0.000 A 
ATOM     28  N   UNL     1      -1.661  12.479  19.368  0.00  0.00    +0.000 NA
ATOM     29  N   UNL     1      -0.326  12.194  19.521  0.00  0.00    +0.000 NA
ATOM     30  C   UNL     1      -0.018  11.178  18.735  0.00  0.00    +0.000 A 
ENDBRANCH  24  30
ENDBRANCH   1  24
TORSDOF 5
ENDMDL
MODEL 3
REMARK VINA RESULT:      -7.9      1.596      2.205
REMARK  Name = 
REMARK  7 active torsions:
REMARK  status: ('A' for Active; 'I' for Inactive)
REMARK    1  A    between atoms: C_1  and  N_2
REMARK    2  A    between atoms: C_6  and  C_7
REMARK    3  A    between atoms: C_7  and  C_8
REMARK    4  A    between atoms: C_11  and  N_12
REMARK    5  A    between atoms: C_19  and  C_20
REMARK    6  A    between atoms: C_20  and  C_21
REMARK    7  A    between atoms: C_27  and  C_28
REMARK                            x       y       z     vdW  Elec       q    Type
REMARK                         _______ _______ _______ _____ _____    ______ ____
ROOT
ATOM      1  C   UNL     1       2.058   8.564  18.554  0.00  0.00    +0.000 A 
ATOM      2  C   UNL     1       2.382   7.623  17.566  0.00  0.00    +0.000 A 
ATOM      3  C   UNL     1       2.595   6.295  17.887  0.00  0.00    +0.000 A 
ATOM      4  C   UNL     1       2.686   5.926  19.231  0.00  0.00    +0.000 A 
ATOM      5  C   UNL     1       2.182   6.802  20.204  0.00  0.00    +0.000 A 
ATOM      6  C   UNL     1       1.784   8.120  19.872  0.00  0.00    +0.000 A 
ENDROOT
BRANCH   4   7
ATOM      7  N   UNL     1       3.594   4.846  19.605  0.00  0.00    +0.000 N 
ATOM      8  C   UNL     1       4.997   5.324  19.519  0.00  0.00    +0.000 C 
ATOM      9  C   UNL     1       5.365   4.993  18.101  0.00  0.00    +0.000 A 
ATOM     10  C   UNL     1       4.571   3.909  17.708  0.00  0.00    +0.000 A 
ATOM     11  C   UNL     1       4.512   3.460  16.400  0.00  0.00    +0.000 A 
ATOM     12  C   UNL     1       5.275   4.142  15.453  0.00  0.00    +0.000 A 
ATOM     13  C   UNL     1       6.080   5.233  15.834  0.00  0.00    +0.000 A 
ATOM     14  C   UNL     1       6.145   5.677  17.172  0.00  0.00    +0.000 A 
ATOM     15  C   UNL     1       3.543   3.702  18.758  0.00  0.00    +0.000 C 
ATOM     16  O   UNL     1       2.704   2.815  18.725  0.00  0.00    +0.000 OA
BRANCH  14  17
ATOM     17  C   UNL     1       6.991   6.878  17.523  0.00  0.00    +0.000 C 
ATOM     18  C   UNL     1       7.868   6.578  18.726  0.00  0.00    +0.000 C 
ATOM     19  F   UNL     1       7.807   7.264  16.496  0.00  0.00    +0.000 F 
ATOM     20  F   UNL     1       6.258   7.992  17.813  0.00  0.00    +0.000 F 
ENDBRANCH  14  17
ENDBRANCH   4   7
BRANCH   6  21
ATOM     21  C   UNL     1       0.977   8.968  20.838  0.00  0.00    +0.000 C 
ATOM     22  C   UNL     1       1.342   9.055  22.299  0.00  0.00    +0.000 C 
ATOM     23  C   UNL     1       0.056   8.407  21.893  0.00  0.00    +0.000 C 
ENDBRANCH   6  21
BRANCH   1  24
ATOM     24  C   UNL     1       1.980  10.011  18.123  0.00  0.00    +0.000 C 
BRANCH  24  30
ATOM     25  C   UNL     1       1.059  12.880  19.181  0.00  0.00    +0.000 C 
ATOM     26  N   UNL     1       0.230  11.828  18.659  0.00  0.00    +0.000 N 
ATOM     27  C   UNL     1      -1.130  11.880  18.589  0.00  0.00    +0.000 A 
ATOM     28  N   UNL     1      -1.581  10.786  18.026  0.00  0.00    +0.000 NA
ATOM     29  N   UNL     1      -0.500   9.985  17.751  0.00  0.00    +0.000 NA
ATOM     30  C   UNL     1       0.597  10.602  18.156  0.00  0.00    +0.000 A 
ENDBRANCH  24  30
ENDBRANCH   1  24
TORSDOF 5
ENDMDL
MODEL 4
REMARK VINA RESULT:      -7.5      5.658      8.429
REMARK  Name = 
REMARK  7 active torsions:
REMARK  status: ('A' for Active; 'I' for Inactive)
REMARK    1  A    between atoms: C_1  and  N_2
REMARK    2  A    between atoms: C_6  and  C_7
REMARK    3  A    between atoms: C_7  and  C_8
REMARK    4  A    between atoms: C_11  and  N_12
REMARK    5  A    between atoms: C_19  and  C_20
REMARK    6  A    between atoms: C_20  and  C_21
REMARK    7  A    between atoms: C_27  and  C_28
REMARK                            x       y       z     vdW  Elec       q    Type
REMARK                         _______ _______ _______ _____ _____    ______ ____
ROOT
ATOM      1  C   UNL     1      -6.098  12.711  19.655  0.00  0.00    +0.000 A 
ATOM      2  C   UNL     1      -4.930  12.407  18.939  0.00  0.00    +0.000 A 
ATOM      3  C   UNL     1      -3.717  12.251  19.583  0.00  0.00    +0.000 A 
ATOM      4  C   UNL     1      -3.614  12.595  20.933  0.00  0.00    +0.000 A 
ATOM      5  C   UNL     1      -4.791  12.711  21.688  0.00  0.00    +0.000 A 
ATOM      6  C   UNL     1      -6.066  12.694  21.072  0.00  0.00    +0.000 A 
ENDROOT
BRANCH   4   7
ATOM      7  N   UNL     1      -2.361  13.161  21.423  0.00  0.00    +0.000 N 
ATOM      8  C   UNL     1      -1.265  12.838  20.474  0.00  0.00    +0.000 C 
ATOM      9  C   UNL     1      -0.753  11.530  21.005  0.00  0.00    +0.000 A 
ATOM     10  C   UNL     1      -1.033  11.499  22.376  0.00  0.00    +0.000 A 
ATOM     11  C   UNL     1      -0.869  10.362  23.148  0.00  0.00    +0.000 A 
ATOM     12  C   UNL     1      -0.415   9.211  22.506  0.00  0.00    +0.000 A 
ATOM     13  C   UNL     1      -0.127   9.227  21.127  0.00  0.00    +0.000 A 
ATOM     14  C   UNL     1      -0.285  10.394  20.349  0.00  0.00    +0.000 A 
ATOM     15  C   UNL     1      -1.923  12.647  22.678  0.00  0.00    +0.000 C 
ATOM     16  O   UNL     1      -2.335  12.916  23.796  0.00  0.00    +0.000 OA
BRANCH  14  17
ATOM     17  C   UNL     1      -0.003  10.348  18.866  0.00  0.00    +0.000 C 
ATOM     18  C   UNL     1      -1.291  10.159  18.085  0.00  0.00    +0.000 C 
ATOM     19  F   UNL     1       0.598  11.488  18.410  0.00  0.00    +0.000 F 
ATOM     20  F   UNL     1       0.850   9.345  18.506  0.00  0.00    +0.000 F 
ENDBRANCH  14  17
ENDBRANCH   4   7
BRANCH   6  21
ATOM     21  C   UNL     1      -7.335  12.527  21.887  0.00  0.00    +0.000 C 
ATOM     22  C   UNL     1      -7.917  13.672  22.678  0.00  0.00    +0.000 C 
ATOM     23  C   UNL     1      -7.374  12.476  23.394  0.00  0.00    +0.000 C 
ENDBRANCH   6  21
BRANCH   1  24
ATOM     24  C   UNL     1      -7.342  12.997  18.847  0.00  0.00    +0.000 C 
BRANCH  24  30
ATOM     25  C   UNL     1      -7.221  16.147  19.358  0.00  0.00    +0.000 C 
ATOM     26  N   UNL     1      -7.191  15.460  18.096  0.00  0.00    +0.000 N 
ATOM     27  C   UNL     1      -7.163  16.077  16.881  0.00  0.00    +0.000 A 
ATOM     28  N   UNL     1      -7.095  15.175  15.933  0.00  0.00    +0.000 NA
ATOM     29  N   UNL     1      -7.114  13.940  16.534  0.00  0.00    +0.000 NA
ATOM     30  C   UNL     1      -7.197  14.109  17.843  0.00  0.00    +0.000 A 
ENDBRANCH  24  30
ENDBRANCH   1  24
TORSDOF 5
ENDMDL
MODEL 5
REMARK VINA RESULT:      -7.5      2.943      7.525
REMARK  Name = 
REMARK  7 active torsions:
REMARK  status: ('A' for Active; 'I' for Inactive)
REMARK    1  A    between atoms: C_1  and  N_2
REMARK    2  A    between atoms: C_6  and  C_7
REMARK    3  A    between atoms: C_7  and  C_8
REMARK    4  A    between atoms: C_11  and  N_12
REMARK    5  A    between atoms: C_19  and  C_20
REMARK    6  A    between atoms: C_20  and  C_21
REMARK    7  A    between atoms: C_27  and  C_28
REMARK                            x       y       z     vdW  Elec       q    Type
REMARK                         _______ _______ _______ _____ _____    ______ ____
ROOT
ATOM      1  C   UNL     1       2.295   6.414  18.942  0.00  0.00    +0.000 A 
ATOM      2  C   UNL     1       2.219   7.815  18.907  0.00  0.00    +0.000 A 
ATOM      3  C   UNL     1       1.722   8.530  19.980  0.00  0.00    +0.000 A 
ATOM      4  C   UNL     1       1.104   7.844  21.028  0.00  0.00    +0.000 A 
ATOM      5  C   UNL     1       1.341   6.468  21.162  0.00  0.00    +0.000 A 
ATOM      6  C   UNL     1       2.012   5.735  20.153  0.00  0.00    +0.000 A 
ENDROOT
BRANCH   4   7
ATOM      7  N   UNL     1      -0.020   8.473  21.717  0.00  0.00    +0.000 N 
ATOM      8  C   UNL     1      -1.079   8.812  20.733  0.00  0.00    +0.000 C 
ATOM      9  C   UNL     1      -0.699  10.203  20.316  0.00  0.00    +0.000 A 
ATOM     10  C   UNL     1       0.005  10.779  21.380  0.00  0.00    +0.000 A 
ATOM     11  C   UNL     1       0.669  11.989  21.270  0.00  0.00    +0.000 A 
ATOM     12  C   UNL     1       0.626  12.634  20.035  0.00  0.00    +0.000 A 
ATOM     13  C   UNL     1      -0.080  12.068  18.956  0.00  0.00    +0.000 A 
ATOM     14  C   UNL     1      -0.765  10.840  19.079  0.00  0.00    +0.000 A 
ATOM     15  C   UNL     1       0.290   9.704  22.363  0.00  0.00    +0.000 C 
ATOM     16  O   UNL     1       0.874   9.884  23.420  0.00  0.00    +0.000 OA
BRANCH  14  17
ATOM     17  C   UNL     1      -1.474  10.254  17.880  0.00  0.00    +0.000 C 
ATOM     18  C   UNL     1      -1.998  11.359  16.980  0.00  0.00    +0.000 C 
ATOM     19  F   UNL     1      -0.660   9.453  17.129  0.00  0.00    +0.000 F 
ATOM     20  F   UNL     1      -2.529   9.455  18.211  0.00  0.00    +0.000 F 
ENDBRANCH  14  17
ENDBRANCH   4   7
BRANCH   6  21
ATOM     21  C   UNL     1       2.528   4.330  20.409  0.00  0.00    +0.000 C 
ATOM     22  C   UNL     1       1.649   3.122  20.200  0.00  0.00    +0.000 C 
ATOM     23  C   UNL     1       2.111   3.473  21.578  0.00  0.00    +0.000 C 
ENDBRANCH   6  21
BRANCH   1  24
ATOM     24  C   UNL     1       2.723   5.719  17.670  0.00  0.00    +0.000 C 
BRANCH  24  30
ATOM     25  C   UNL     1       4.350   2.975  17.522  0.00  0.00    +0.000 C 
ATOM     26  N   UNL     1       4.879   4.311  17.520  0.00  0.00    +0.000 N 
ATOM     27  C   UNL     1       6.208   4.616  17.511  0.00  0.00    +0.000 A 
ATOM     28  N   UNL     1       6.358   5.916  17.467  0.00  0.00    +0.000 NA
ATOM     29  N   UNL     1       5.105   6.479  17.481  0.00  0.00    +0.000 NA
ATOM     30  C   UNL     1       4.208   5.511  17.538  0.00  0.00    +0.000 A 
ENDBRANCH  24  30
ENDBRANCH   1  24
TORSDOF 5
ENDMDL
MODEL 6
REMARK VINA RESULT:      -7.4      1.645      2.460
REMARK  Name = 
REMARK  7 active torsions:
REMARK  status: ('A' for Active; 'I' for Inactive)
REMARK    1  A    between atoms: C_1  and  N_2
REMARK    2  A    between atoms: C_6  and  C_7
REMARK    3  A    between atoms: C_7  and  C_8
REMARK    4  A    between atoms: C_11  and  N_12
REMARK    5  A    between atoms: C_19  and  C_20
REMARK    6  A    between atoms: C_20  and  C_21
REMARK    7  A    between atoms: C_27  and  C_28
REMARK                            x       y       z     vdW  Elec       q    Type
REMARK                         _______ _______ _______ _____ _____    ______ ____
ROOT
ATOM      1  C   UNL     1       2.060   8.640  18.513  0.00  0.00    +0.000 A 
ATOM      2  C   UNL     1       2.332   7.677  17.529  0.00  0.00    +0.000 A 
ATOM      3  C   UNL     1       2.504   6.346  17.860  0.00  0.00    +0.000 A 
ATOM      4  C   UNL     1       2.606   5.987  19.206  0.00  0.00    +0.000 A 
ATOM      5  C   UNL     1       2.152   6.891  20.178  0.00  0.00    +0.000 A 
ATOM      6  C   UNL     1       1.795   8.219  19.839  0.00  0.00    +0.000 A 
ENDROOT
BRANCH   4   7
ATOM      7  N   UNL     1       3.483   4.879  19.575  0.00  0.00    +0.000 N 
ATOM      8  C   UNL     1       4.898   5.325  19.520  0.00  0.00    +0.000 C 
ATOM      9  C   UNL     1       5.281   5.011  18.104  0.00  0.00    +0.000 A 
ATOM     10  C   UNL     1       4.470   3.954  17.677  0.00  0.00    +0.000 A 
ATOM     11  C   UNL     1       4.421   3.530  16.360  0.00  0.00    +0.000 A 
ATOM     12  C   UNL     1       5.217   4.210  15.439  0.00  0.00    +0.000 A 
ATOM     13  C   UNL     1       6.040   5.276  15.853  0.00  0.00    +0.000 A 
ATOM     14  C   UNL     1       6.094   5.693  17.200  0.00  0.00    +0.000 A 
ATOM     15  C   UNL     1       3.419   3.752  18.706  0.00  0.00    +0.000 C 
ATOM     16  O   UNL     1       2.560   2.886  18.643  0.00  0.00    +0.000 OA
BRANCH  14  17
ATOM     17  C   UNL     1       6.961   6.867  17.587  0.00  0.00    +0.000 C 
ATOM     18  C   UNL     1       7.838   6.513  18.774  0.00  0.00    +0.000 C 
ATOM     19  F   UNL     1       7.779   7.273  16.570  0.00  0.00    +0.000 F 
ATOM     20  F   UNL     1       6.248   7.983  17.918  0.00  0.00    +0.000 F 
ENDBRANCH  14  17
ENDBRANCH   4   7
BRANCH   6  21
ATOM     21  C   UNL     1       1.037   9.104  20.812  0.00  0.00    +0.000 C 
ATOM     22  C   UNL     1       1.235   8.983  22.302  0.00  0.00    +0.000 C 
ATOM     23  C   UNL     1      -0.085   8.624  21.698  0.00  0.00    +0.000 C 
ENDBRANCH   6  21
BRANCH   1  24
ATOM     24  C   UNL     1       2.025  10.083  18.067  0.00  0.00    +0.000 C 
BRANCH  24  30
ATOM     25  C   UNL     1      -1.103   9.752  17.516  0.00  0.00    +0.000 C 
ATOM     26  N   UNL     1      -0.454  10.741  18.332  0.00  0.00    +0.000 N 
ATOM     27  C   UNL     1      -1.099  11.758  18.971  0.00  0.00    +0.000 A 
ATOM     28  N   UNL     1      -0.235  12.457  19.665  0.00  0.00    +0.000 NA
ATOM     29  N   UNL     1       1.007  11.909  19.452  0.00  0.00    +0.000 NA
ATOM     30  C   UNL     1       0.881  10.885  18.625  0.00  0.00    +0.000 A 
ENDBRANCH  24  30
ENDBRANCH   1  24
TORSDOF 5
ENDMDL
MODEL 7
REMARK VINA RESULT:      -7.4      6.209      8.773
REMARK  Name = 
REMARK  7 active torsions:
REMARK  status: ('A' for Active; 'I' for Inactive)
REMARK    1  A    between atoms: C_1  and  N_2
REMARK    2  A    between atoms: C_6  and  C_7
REMARK    3  A    between atoms: C_7  and  C_8
REMARK    4  A    between atoms: C_11  and  N_12
REMARK    5  A    between atoms: C_19  and  C_20
REMARK    6  A    between atoms: C_20  and  C_21
REMARK    7  A    between atoms: C_27  and  C_28
REMARK                            x       y       z     vdW  Elec       q    Type
REMARK                         _______ _______ _______ _____ _____    ______ ____
ROOT
ATOM      1  C   UNL     1      -4.195  11.167  18.134  0.00  0.00    +0.000 A 
ATOM      2  C   UNL     1      -3.743  12.036  19.138  0.00  0.00    +0.000 A 
ATOM      3  C   UNL     1      -2.425  12.023  19.553  0.00  0.00    +0.000 A 
ATOM      4  C   UNL     1      -1.582  11.000  19.112  0.00  0.00    +0.000 A 
ATOM      5  C   UNL     1      -1.961  10.257  17.984  0.00  0.00    +0.000 A 
ATOM      6  C   UNL     1      -3.255  10.381  17.422  0.00  0.00    +0.000 A 
ENDROOT
BRANCH   4   7
ATOM      7  N   UNL     1      -0.545  10.504  20.012  0.00  0.00    +0.000 N 
ATOM      8  C   UNL     1      -0.653  11.193  21.323  0.00  0.00    +0.000 C 
ATOM      9  C   UNL     1       0.237  12.387  21.135  0.00  0.00    +0.000 A 
ATOM     10  C   UNL     1       1.197  12.044  20.176  0.00  0.00    +0.000 A 
ATOM     11  C   UNL     1       2.064  12.968  19.620  0.00  0.00    +0.000 A 
ATOM     12  C   UNL     1       1.948  14.291  20.043  0.00  0.00    +0.000 A 
ATOM     13  C   UNL     1       0.988  14.652  21.008  0.00  0.00    +0.000 A 
ATOM     14  C   UNL     1       0.115  13.701  21.580  0.00  0.00    +0.000 A 
ATOM     15  C   UNL     1       0.790  10.748  19.578  0.00  0.00    +0.000 C 
ATOM     16  O   UNL     1       1.431  10.161  18.720  0.00  0.00    +0.000 OA
BRANCH  14  17
ATOM     17  C   UNL     1      -0.925  14.146  22.581  0.00  0.00    +0.000 C 
ATOM     18  C   UNL     1      -0.599  15.533  23.106  0.00  0.00    +0.000 C 
ATOM     19  F   UNL     1      -2.183  14.185  22.049  0.00  0.00    +0.000 F 
ATOM     20  F   UNL     1      -1.034  13.312  23.656  0.00  0.00    +0.000 F 
ENDBRANCH  14  17
ENDBRANCH   4   7
BRANCH   6  21
ATOM     21  C   UNL     1      -3.578   9.813  16.052  0.00  0.00    +0.000 C 
ATOM     22  C   UNL     1      -2.532   9.736  14.968  0.00  0.00    +0.000 C 
ATOM     23  C   UNL     1      -3.709  10.643  14.799  0.00  0.00    +0.000 C 
ENDBRANCH   6  21
BRANCH   1  24
ATOM     24  C   UNL     1      -5.679  11.164  17.848  0.00  0.00    +0.000 C 
BRANCH  24  30
ATOM     25  C   UNL     1      -7.458  12.964  19.797  0.00  0.00    +0.000 C 
ATOM     26  N   UNL     1      -7.261  11.542  19.850  0.00  0.00    +0.000 N 
ATOM     27  C   UNL     1      -7.778  10.727  20.813  0.00  0.00    +0.000 A 
ATOM     28  N   UNL     1      -7.454   9.484  20.554  0.00  0.00    +0.000 NA
ATOM     29  N   UNL     1      -6.680   9.485  19.420  0.00  0.00    +0.000 NA
ATOM     30  C   UNL     1      -6.540  10.732  19.005  0.00  0.00    +0.000 A 
ENDBRANCH  24  30
ENDBRANCH   1  24
TORSDOF 5
ENDMDL
MODEL 8
REMARK VINA RESULT:      -7.3      2.940      7.343
REMARK  Name = 
REMARK  7 active torsions:
REMARK  status: ('A' for Active; 'I' for Inactive)
REMARK    1  A    between atoms: C_1  and  N_2
REMARK    2  A    between atoms: C_6  and  C_7
REMARK    3  A    between atoms: C_7  and  C_8
REMARK    4  A    between atoms: C_11  and  N_12
REMARK    5  A    between atoms: C_19  and  C_20
REMARK    6  A    between atoms: C_20  and  C_21
REMARK    7  A    between atoms: C_27  and  C_28
REMARK                            x       y       z     vdW  Elec       q    Type
REMARK                         _______ _______ _______ _____ _____    ______ ____
ROOT
ATOM      1  C   UNL     1       2.279   6.078  18.928  0.00  0.00    +0.000 A 
ATOM      2  C   UNL     1       2.265   7.479  18.845  0.00  0.00    +0.000 A 
ATOM      3  C   UNL     1       1.830   8.253  19.904  0.00  0.00    +0.000 A 
ATOM      4  C   UNL     1       1.211   7.632  20.992  0.00  0.00    +0.000 A 
ATOM      5  C   UNL     1       1.391   6.252  21.169  0.00  0.00    +0.000 A 
ATOM      6  C   UNL     1       2.000   5.455  20.170  0.00  0.00    +0.000 A 
ENDROOT
BRANCH   4   7
ATOM      7  N   UNL     1       0.136   8.335  21.687  0.00  0.00    +0.000 N 
ATOM      8  C   UNL     1      -0.922   8.710  20.715  0.00  0.00    +0.000 C 
ATOM      9  C   UNL     1      -0.477  10.069  20.261  0.00  0.00    +0.000 A 
ATOM     10  C   UNL     1       0.278  10.629  21.298  0.00  0.00    +0.000 A 
ATOM     11  C   UNL     1       1.003  11.799  21.151  0.00  0.00    +0.000 A 
ATOM     12  C   UNL     1       0.970  12.419  19.903  0.00  0.00    +0.000 A 
ATOM     13  C   UNL     1       0.214  11.869  18.849  0.00  0.00    +0.000 A 
ATOM     14  C   UNL     1      -0.533  10.683  19.011  0.00  0.00    +0.000 A 
ATOM     15  C   UNL     1       0.523   9.562  22.300  0.00  0.00    +0.000 C 
ATOM     16  O   UNL     1       1.137   9.732  23.342  0.00  0.00    +0.000 OA
BRANCH  14  17
ATOM     17  C   UNL     1      -1.294  10.111  17.839  0.00  0.00    +0.000 C 
ATOM     18  C   UNL     1      -1.846  11.226  16.969  0.00  0.00    +0.000 C 
ATOM     19  F   UNL     1      -0.518   9.309  17.049  0.00  0.00    +0.000 F 
ATOM     20  F   UNL     1      -2.342   9.317  18.207  0.00  0.00    +0.000 F 
ENDBRANCH  14  17
ENDBRANCH   4   7
BRANCH   6  21
ATOM     21  C   UNL     1       2.460   4.038  20.462  0.00  0.00    +0.000 C 
ATOM     22  C   UNL     1       1.555   2.855  20.225  0.00  0.00    +0.000 C 
ATOM     23  C   UNL     1       1.965   3.208  21.619  0.00  0.00    +0.000 C 
ENDBRANCH   6  21
BRANCH   1  24
ATOM     24  C   UNL     1       2.641   5.321  17.671  0.00  0.00    +0.000 C 
BRANCH  24  30
ATOM     25  C   UNL     1       4.725   7.074  16.003  0.00  0.00    +0.000 C 
ATOM     26  N   UNL     1       4.976   5.852  16.714  0.00  0.00    +0.000 N 
ATOM     27  C   UNL     1       6.176   5.204  16.735  0.00  0.00    +0.000 A 
ATOM     28  N   UNL     1       6.089   4.148  17.506  0.00  0.00    +0.000 NA
ATOM     29  N   UNL     1       4.799   4.081  17.974  0.00  0.00    +0.000 NA
ATOM     30  C   UNL     1       4.116   5.097  17.476  0.00  0.00    +0.000 A 
ENDBRANCH  24  30
ENDBRANCH   1  24
TORSDOF 5
ENDMDL
MODEL 9
REMARK VINA RESULT:      -7.2      1.774      2.171
REMARK  Name = 
REMARK  7 active torsions:
REMARK  status: ('A' for Active; 'I' for Inactive)
REMARK    1  A    between atoms: C_1  and  N_2
REMARK    2  A    between atoms: C_6  and  C_7
REMARK    3  A    between atoms: C_7  and  C_8
REMARK    4  A    between atoms: C_11  and  N_12
REMARK    5  A    between atoms: C_19  and  C_20
REMARK    6  A    between atoms: C_20  and  C_21
REMARK    7  A    between atoms: C_27  and  C_28
REMARK                            x       y       z     vdW  Elec       q    Type
REMARK                         _______ _______ _______ _____ _____    ______ ____
ROOT
ATOM      1  C   UNL     1       1.147   9.511  18.956  0.00  0.00    +0.000 A 
ATOM      2  C   UNL     1       1.890   8.776  18.019  0.00  0.00    +0.000 A 
ATOM      3  C   UNL     1       2.403   7.532  18.333  0.00  0.00    +0.000 A 
ATOM      4  C   UNL     1       2.354   7.089  19.657  0.00  0.00    +0.000 A 
ATOM      5  C   UNL     1       1.463   7.715  20.542  0.00  0.00    +0.000 A 
ATOM      6  C   UNL     1       0.779   8.901  20.181  0.00  0.00    +0.000 A 
ENDROOT
BRANCH   4   7
ATOM      7  N   UNL     1       3.446   6.264  20.165  0.00  0.00    +0.000 N 
ATOM      8  C   UNL     1       4.571   6.275  19.197  0.00  0.00    +0.000 C 
ATOM      9  C   UNL     1       4.247   5.107  18.312  0.00  0.00    +0.000 A 
ATOM     10  C   UNL     1       3.490   4.207  19.071  0.00  0.00    +0.000 A 
ATOM     11  C   UNL     1       2.861   3.105  18.518  0.00  0.00    +0.000 A 
ATOM     12  C   UNL     1       2.993   2.914  17.143  0.00  0.00    +0.000 A 
ATOM     13  C   UNL     1       3.753   3.810  16.366  0.00  0.00    +0.000 A 
ATOM     14  C   UNL     1       4.403   4.924  16.939  0.00  0.00    +0.000 A 
ATOM     15  C   UNL     1       3.123   4.887  20.338  0.00  0.00    +0.000 C 
ATOM     16  O   UNL     1       2.478   4.362  21.232  0.00  0.00    +0.000 OA
BRANCH  14  17
ATOM     17  C   UNL     1       5.171   5.879  16.057  0.00  0.00    +0.000 C 
ATOM     18  C   UNL     1       5.533   5.213  14.741  0.00  0.00    +0.000 C 
ATOM     19  F   UNL     1       4.465   7.014  15.771  0.00  0.00    +0.000 F 
ATOM     20  F   UNL     1       6.328   6.330  16.623  0.00  0.00    +0.000 F 
ENDBRANCH  14  17
ENDBRANCH   4   7
BRANCH   6  21
ATOM     21  C   UNL     1      -0.390   9.419  21.000  0.00  0.00    +0.000 C 
ATOM     22  C   UNL     1      -0.182  10.377  22.146  0.00  0.00    +0.000 C 
ATOM     23  C   UNL     1      -0.686   8.995  22.416  0.00  0.00    +0.000 C 
ENDBRANCH   6  21
BRANCH   1  24
ATOM     24  C   UNL     1       0.747  10.914  18.563  0.00  0.00    +0.000 C 
BRANCH  24  30
ATOM     25  C   UNL     1       1.104  13.100  20.865  0.00  0.00    +0.000 C 
ATOM     26  N   UNL     1       1.931  12.900  19.707  0.00  0.00    +0.000 N 
ATOM     27  C   UNL     1       3.000  13.680  19.378  0.00  0.00    +0.000 A 
ATOM     28  N   UNL     1       3.567  13.209  18.295  0.00  0.00    +0.000 NA
ATOM     29  N   UNL     1       2.839  12.120  17.885  0.00  0.00    +0.000 NA
ATOM     30  C   UNL     1       1.833  11.944  18.724  0.00  0.00    +0.000 A 
ENDBRANCH  24  30
ENDBRANCH   1  24
TORSDOF 5
ENDMDL
