MODEL 1
REMARK VINA RESULT:      -9.2      0.000      0.000
REMARK  Name = 
REMARK  8 active torsions:
REMARK  status: ('A' for Active; 'I' for Inactive)
REMARK    1  A    between atoms: C_1  and  C_2
REMARK    2  A    between atoms: C_2  and  C_3
REMARK    3  A    between atoms: C_2  and  C_4
REMARK    4  A    between atoms: C_10  and  C_11
REMARK    5  A    between atoms: N_13  and  C_14
REMARK    6  A    between atoms: C_19  and  C_20
REMARK    7  A    between atoms: C_20  and  N_21
REMARK    8  A    between atoms: C_24  and  O_25
REMARK                            x       y       z     vdW  Elec       q    Type
REMARK                         _______ _______ _______ _____ _____    ______ ____
ROOT
ATOM      1  C   UNL     1       5.172   4.156  17.684  0.00  0.00    +0.000 C 
ATOM      2  O   UNL     1       5.910   3.983  18.653  0.00  0.00    +0.000 OA
ATOM      3  N   UNL     1       3.763   4.112  17.716  0.00  0.00    +0.000 N 
ATOM      4  H   UNL     1       3.248   4.255  16.860  0.00  0.00    +0.000 HD
ENDROOT
BRANCH   1  11
ATOM      5  C   UNL     1       6.244   3.590  12.689  0.00  0.00    +0.000 A 
ATOM      6  N   UNL     1       7.201   4.216  11.987  0.00  0.00    +0.000 NA
ATOM      7  O   UNL     1       7.822   5.084  12.873  0.00  0.00    +0.000 OA
ATOM      8  C   UNL     1       7.245   4.985  14.105  0.00  0.00    +0.000 A 
ATOM      9  N   UNL     1       7.627   5.705  15.186  0.00  0.00    +0.000 NA
ATOM     10  C   UNL     1       6.926   5.410  16.316  0.00  0.00    +0.000 A 
ATOM     11  C   UNL     1       5.913   4.472  16.424  0.00  0.00    +0.000 A 
ATOM     12  C   UNL     1       5.523   3.796  15.238  0.00  0.00    +0.000 A 
ATOM     13  C   UNL     1       6.233   4.041  14.045  0.00  0.00    +0.000 A 
BRANCH   5  15
ATOM     14  C   UNL     1       4.236   3.254  11.212  0.00  0.00    +0.000 C 
ATOM     15  C   UNL     1       5.353   2.575  12.018  0.00  0.00    +0.000 C 
ATOM     16  C   UNL     1       6.113   1.604  11.092  0.00  0.00    +0.000 C 
ENDBRANCH   5  15
ENDBRANCH   1  11
BRANCH   3  17
ATOM     17  C   UNL     1       2.959   3.992  18.919  0.00  0.00    +0.000 A 
ATOM     18  C   UNL     1       2.504   2.730  19.348  0.00  0.00    +0.000 A 
ATOM     19  C   UNL     1       1.796   2.531  20.541  0.00  0.00    +0.000 A 
ATOM     20  C   UNL     1       1.495   3.603  21.353  0.00  0.00    +0.000 A 
ATOM     21  C   UNL     1       1.888   4.873  20.951  0.00  0.00    +0.000 A 
ATOM     22  C   UNL     1       2.614   5.097  19.748  0.00  0.00    +0.000 A 
BRANCH  22  23
ATOM     23  C   UNL     1       2.933   6.563  19.509  0.00  0.00    +0.000 C 
BRANCH  23  24
ATOM     24  N   UNL     1       1.727   7.393  19.231  0.00  0.00    +0.000 NA
ATOM     25  C   UNL     1       1.794   7.890  17.851  0.00  0.00    +0.000 C 
ATOM     26  C   UNL     1       0.912   9.096  17.553  0.00  0.00    +0.000 C 
ATOM     27  C   UNL     1       1.204  10.211  18.536  0.00  0.00    +0.000 C 
ATOM     28  C   UNL     1       0.848   9.723  19.920  0.00  0.00    +0.000 C 
ATOM     29  C   UNL     1       1.584   8.422  20.278  0.00  0.00    +0.000 C 
BRANCH  27  30
ATOM     30  O   UNL     1       2.582  10.561  18.459  0.00  0.00    +0.000 OA
ATOM     31  H   UNL     1       2.770  11.197  19.170  0.00  0.00    +0.000 HD
ENDBRANCH  27  30
ENDBRANCH  23  24
ENDBRANCH  22  23
ENDBRANCH   3  17
TORSDOF 6
ENDMDL
MODEL 2
REMARK VINA RESULT:      -8.8      0.816      1.175
REMARK  Name = 
REMARK  8 active torsions:
REMARK  status: ('A' for Active; 'I' for Inactive)
REMARK    1  A    between atoms: C_1  and  C_2
REMARK    2  A    between atoms: C_2  and  C_3
REMARK    3  A    between atoms: C_2  and  C_4
REMARK    4  A    between atoms: C_10  and  C_11
REMARK    5  A    between atoms: N_13  and  C_14
REMARK    6  A    between atoms: C_19  and  C_20
REMARK    7  A    between atoms: C_20  and  N_21
REMARK    8  A    between atoms: C_24  and  O_25
REMARK                            x       y       z     vdW  Elec       q    Type
REMARK                         _______ _______ _______ _____ _____    ______ ____
ROOT
ATOM      1  C   UNL     1       5.383   4.187  17.749  0.00  0.00    +0.000 C 
ATOM      2  O   UNL     1       6.145   4.231  18.714  0.00  0.00    +0.000 OA
ATOM      3  N   UNL     1       4.001   3.910  17.815  0.00  0.00    +0.000 N 
ATOM      4  H   UNL     1       3.465   3.884  16.961  0.00  0.00    +0.000 HD
ENDROOT
BRANCH   1  11
ATOM      5  C   UNL     1       6.214   3.590  12.712  0.00  0.00    +0.000 A 
ATOM      6  N   UNL     1       7.121   4.229  11.957  0.00  0.00    +0.000 NA
ATOM      7  O   UNL     1       7.766   5.120  12.802  0.00  0.00    +0.000 OA
ATOM      8  C   UNL     1       7.254   5.022  14.062  0.00  0.00    +0.000 A 
ATOM      9  N   UNL     1       7.673   5.762  15.115  0.00  0.00    +0.000 NA
ATOM     10  C   UNL     1       7.037   5.463  16.283  0.00  0.00    +0.000 A 
ATOM     11  C   UNL     1       6.052   4.505  16.451  0.00  0.00    +0.000 A 
ATOM     12  C   UNL     1       5.618   3.808  15.293  0.00  0.00    +0.000 A 
ATOM     13  C   UNL     1       6.261   4.056  14.063  0.00  0.00    +0.000 A 
BRANCH   5  15
ATOM     14  C   UNL     1       4.215   3.193  11.238  0.00  0.00    +0.000 C 
ATOM     15  C   UNL     1       5.313   2.548  12.097  0.00  0.00    +0.000 C 
ATOM     16  C   UNL     1       6.066   1.510  11.242  0.00  0.00    +0.000 C 
ENDBRANCH   5  15
ENDBRANCH   1  11
BRANCH   3  17
ATOM     17  C   UNL     1       3.236   3.768  19.041  0.00  0.00    +0.000 A 
ATOM     18  C   UNL     1       3.537   2.737  19.953  0.00  0.00    +0.000 A 
ATOM     19  C   UNL     1       2.897   2.593  21.191  0.00  0.00    +0.000 A 
ATOM     20  C   UNL     1       1.902   3.472  21.562  0.00  0.00    +0.000 A 
ATOM     21  C   UNL     1       1.543   4.480  20.677  0.00  0.00    +0.000 A 
ATOM     22  C   UNL     1       2.185   4.651  19.420  0.00  0.00    +0.000 A 
BRANCH  22  23
ATOM     23  C   UNL     1       1.626   5.814  18.618  0.00  0.00    +0.000 C 
BRANCH  23  24
ATOM     24  N   UNL     1       2.173   7.137  19.034  0.00  0.00    +0.000 NA
ATOM     25  C   UNL     1       1.171   7.835  19.849  0.00  0.00    +0.000 C 
ATOM     26  C   UNL     1       1.367   9.342  19.966  0.00  0.00    +0.000 C 
ATOM     27  C   UNL     1       1.461   9.964  18.588  0.00  0.00    +0.000 C 
ATOM     28  C   UNL     1       2.683   9.402  17.901  0.00  0.00    +0.000 C 
ATOM     29  C   UNL     1       2.658   7.866  17.847  0.00  0.00    +0.000 C 
BRANCH  27  30
ATOM     30  O   UNL     1       0.280   9.663  17.851  0.00  0.00    +0.000 OA
ATOM     31  H   UNL     1      -0.258  10.471  17.804  0.00  0.00    +0.000 HD
ENDBRANCH  27  30
ENDBRANCH  23  24
ENDBRANCH  22  23
ENDBRANCH   3  17
TORSDOF 6
ENDMDL
MODEL 3
REMARK VINA RESULT:      -8.6      3.403      8.617
REMARK  Name = 
REMARK  8 active torsions:
REMARK  status: ('A' for Active; 'I' for Inactive)
REMARK    1  A    between atoms: C_1  and  C_2
REMARK    2  A    between atoms: C_2  and  C_3
REMARK    3  A    between atoms: C_2  and  C_4
REMARK    4  A    between atoms: C_10  and  C_11
REMARK    5  A    between atoms: N_13  and  C_14
REMARK    6  A    between atoms: C_19  and  C_20
REMARK    7  A    between atoms: C_20  and  N_21
REMARK    8  A    between atoms: C_24  and  O_25
REMARK                            x       y       z     vdW  Elec       q    Type
REMARK                         _______ _______ _______ _____ _____    ______ ____
ROOT
ATOM      1  C   UNL     1       2.386   7.814  18.471  0.00  0.00    +0.000 C 
ATOM      2  O   UNL     1       2.552   8.456  17.435  0.00  0.00    +0.000 OA
ATOM      3  N   UNL     1       2.939   6.545  18.738  0.00  0.00    +0.000 N 
ATOM      4  H   UNL     1       2.731   6.094  19.617  0.00  0.00    +0.000 HD
ENDROOT
BRANCH   1  11
ATOM      5  C   UNL     1      -0.865  11.479  20.024  0.00  0.00    +0.000 A 
ATOM      6  N   UNL     1      -1.305  11.699  21.273  0.00  0.00    +0.000 NA
ATOM      7  O   UNL     1      -0.738  10.709  22.061  0.00  0.00    +0.000 OA
ATOM      8  C   UNL     1       0.042   9.893  21.295  0.00  0.00    +0.000 A 
ATOM      9  N   UNL     1       0.731   8.829  21.771  0.00  0.00    +0.000 NA
ATOM     10  C   UNL     1       1.467   8.184  20.824  0.00  0.00    +0.000 A 
ATOM     11  C   UNL     1       1.555   8.531  19.486  0.00  0.00    +0.000 A 
ATOM     12  C   UNL     1       0.759   9.619  19.043  0.00  0.00    +0.000 A 
ATOM     13  C   UNL     1      -0.001  10.342  19.985  0.00  0.00    +0.000 A 
BRANCH   5  15
ATOM     14  C   UNL     1      -0.141  13.211  18.351  0.00  0.00    +0.000 C 
ATOM     15  C   UNL     1      -1.308  12.375  18.895  0.00  0.00    +0.000 C 
ATOM     16  C   UNL     1      -1.963  11.616  17.724  0.00  0.00    +0.000 C 
ENDBRANCH   5  15
ENDBRANCH   1  11
BRANCH   3  17
ATOM     17  C   UNL     1       3.898   5.857  17.892  0.00  0.00    +0.000 A 
ATOM     18  C   UNL     1       5.177   6.405  17.674  0.00  0.00    +0.000 A 
ATOM     19  C   UNL     1       6.178   5.756  16.939  0.00  0.00    +0.000 A 
ATOM     20  C   UNL     1       5.929   4.526  16.368  0.00  0.00    +0.000 A 
ATOM     21  C   UNL     1       4.668   3.965  16.522  0.00  0.00    +0.000 A 
ATOM     22  C   UNL     1       3.640   4.602  17.270  0.00  0.00    +0.000 A 
BRANCH  22  23
ATOM     23  C   UNL     1       2.346   3.808  17.300  0.00  0.00    +0.000 C 
BRANCH  23  24
ATOM     24  N   UNL     1       2.173   3.002  18.541  0.00  0.00    +0.000 NA
ATOM     25  C   UNL     1       1.033   3.528  19.301  0.00  0.00    +0.000 C 
ATOM     26  C   UNL     1       1.000   3.139  20.774  0.00  0.00    +0.000 C 
ATOM     27  C   UNL     1       2.306   3.515  21.442  0.00  0.00    +0.000 C 
ATOM     28  C   UNL     1       3.414   2.722  20.790  0.00  0.00    +0.000 C 
ATOM     29  C   UNL     1       3.454   2.935  19.269  0.00  0.00    +0.000 C 
BRANCH  27  30
ATOM     30  O   UNL     1       2.527   4.914  21.295  0.00  0.00    +0.000 OA
ATOM     31  H   UNL     1       2.093   5.201  20.474  0.00  0.00    +0.000 HD
ENDBRANCH  27  30
ENDBRANCH  23  24
ENDBRANCH  22  23
ENDBRANCH   3  17
TORSDOF 6
ENDMDL
MODEL 4
REMARK VINA RESULT:      -8.6      0.834      1.010
REMARK  Name = 
REMARK  8 active torsions:
REMARK  status: ('A' for Active; 'I' for Inactive)
REMARK    1  A    between atoms: C_1  and  C_2
REMARK    2  A    between atoms: C_2  and  C_3
REMARK    3  A    between atoms: C_2  and  C_4
REMARK    4  A    between atoms: C_10  and  C_11
REMARK    5  A    between atoms: N_13  and  C_14
REMARK    6  A    between atoms: C_19  and  C_20
REMARK    7  A    between atoms: C_20  and  N_21
REMARK    8  A    between atoms: C_24  and  O_25
REMARK                            x       y       z     vdW  Elec       q    Type
REMARK                         _______ _______ _______ _____ _____    ______ ____
ROOT
ATOM      1  C   UNL     1       5.157   4.121  17.858  0.00  0.00    +0.000 C 
ATOM      2  O   UNL     1       5.889   3.998  18.839  0.00  0.00    +0.000 OA
ATOM      3  N   UNL     1       3.754   3.981  17.866  0.00  0.00    +0.000 N 
ATOM      4  H   UNL     1       3.245   4.090  17.001  0.00  0.00    +0.000 HD
ENDROOT
BRANCH   1  11
ATOM      5  C   UNL     1       6.267   3.724  12.855  0.00  0.00    +0.000 A 
ATOM      6  N   UNL     1       7.212   4.394  12.177  0.00  0.00    +0.000 NA
ATOM      7  O   UNL     1       7.806   5.253  13.090  0.00  0.00    +0.000 OA
ATOM      8  C   UNL     1       7.226   5.104  14.315  0.00  0.00    +0.000 A 
ATOM      9  N   UNL     1       7.583   5.804  15.418  0.00  0.00    +0.000 NA
ATOM     10  C   UNL     1       6.884   5.458  16.536  0.00  0.00    +0.000 A 
ATOM     11  C   UNL     1       5.896   4.492  16.612  0.00  0.00    +0.000 A 
ATOM     12  C   UNL     1       5.529   3.840  15.405  0.00  0.00    +0.000 A 
ATOM     13  C   UNL     1       6.238   4.137  14.223  0.00  0.00    +0.000 A 
BRANCH   5  15
ATOM     14  C   UNL     1       4.290   3.379  11.341  0.00  0.00    +0.000 C 
ATOM     15  C   UNL     1       5.407   2.705  12.151  0.00  0.00    +0.000 C 
ATOM     16  C   UNL     1       6.199   1.767  11.219  0.00  0.00    +0.000 C 
ENDBRANCH   5  15
ENDBRANCH   1  11
BRANCH   3  17
ATOM     17  C   UNL     1       2.940   3.802  19.055  0.00  0.00    +0.000 A 
ATOM     18  C   UNL     1       2.501   2.517  19.430  0.00  0.00    +0.000 A 
ATOM     19  C   UNL     1       1.785   2.261  20.607  0.00  0.00    +0.000 A 
ATOM     20  C   UNL     1       1.457   3.296  21.456  0.00  0.00    +0.000 A 
ATOM     21  C   UNL     1       1.833   4.587  21.106  0.00  0.00    +0.000 A 
ATOM     22  C   UNL     1       2.567   4.868  19.922  0.00  0.00    +0.000 A 
BRANCH  22  23
ATOM     23  C   UNL     1       2.864   6.347  19.742  0.00  0.00    +0.000 C 
BRANCH  23  24
ATOM     24  N   UNL     1       1.640   7.195  19.687  0.00  0.00    +0.000 NA
ATOM     25  C   UNL     1       1.983   8.496  19.100  0.00  0.00    +0.000 C 
ATOM     26  C   UNL     1       0.992   9.618  19.387  0.00  0.00    +0.000 C 
ATOM     27  C   UNL     1       0.768   9.747  20.880  0.00  0.00    +0.000 C 
ATOM     28  C   UNL     1       0.151   8.461  21.377  0.00  0.00    +0.000 C 
ATOM     29  C   UNL     1       1.008   7.237  21.019  0.00  0.00    +0.000 C 
BRANCH  27  30
ATOM     30  O   UNL     1       2.014   9.996  21.524  0.00  0.00    +0.000 OA
ATOM     31  H   UNL     1       2.724   9.767  20.902  0.00  0.00    +0.000 HD
ENDBRANCH  27  30
ENDBRANCH  23  24
ENDBRANCH  22  23
ENDBRANCH   3  17
TORSDOF 6
ENDMDL
MODEL 5
REMARK VINA RESULT:      -8.6      2.957      8.238
REMARK  Name = 
REMARK  8 active torsions:
REMARK  status: ('A' for Active; 'I' for Inactive)
REMARK    1  A    between atoms: C_1  and  C_2
REMARK    2  A    between atoms: C_2  and  C_3
REMARK    3  A    between atoms: C_2  and  C_4
REMARK    4  A    between atoms: C_10  and  C_11
REMARK    5  A    between atoms: N_13  and  C_14
REMARK    6  A    between atoms: C_19  and  C_20
REMARK    7  A    between atoms: C_20  and  N_21
REMARK    8  A    between atoms: C_24  and  O_25
REMARK                            x       y       z     vdW  Elec       q    Type
REMARK                         _______ _______ _______ _____ _____    ______ ____
ROOT
ATOM      1  C   UNL     1       2.271   6.729  19.145  0.00  0.00    +0.000 C 
ATOM      2  O   UNL     1       2.817   6.467  20.216  0.00  0.00    +0.000 OA
ATOM      3  N   UNL     1       1.946   5.788  18.146  0.00  0.00    +0.000 N 
ATOM      4  H   UNL     1       1.510   6.109  17.294  0.00  0.00    +0.000 HD
ENDROOT
BRANCH   1  11
ATOM      5  C   UNL     1       0.287  11.193  20.741  0.00  0.00    +0.000 A 
ATOM      6  N   UNL     1       0.204  12.340  20.048  0.00  0.00    +0.000 NA
ATOM      7  O   UNL     1       0.803  12.092  18.822  0.00  0.00    +0.000 OA
ATOM      8  C   UNL     1       1.246  10.803  18.770  0.00  0.00    +0.000 A 
ATOM      9  N   UNL     1       1.876  10.255  17.705  0.00  0.00    +0.000 NA
ATOM     10  C   UNL     1       2.194   8.941  17.873  0.00  0.00    +0.000 A 
ATOM     11  C   UNL     1       1.925   8.175  18.995  0.00  0.00    +0.000 A 
ATOM     12  C   UNL     1       1.317   8.830  20.098  0.00  0.00    +0.000 A 
ATOM     13  C   UNL     1       0.939  10.182  19.970  0.00  0.00    +0.000 A 
BRANCH   5  15
ATOM     14  C   UNL     1      -1.548  11.937  22.291  0.00  0.00    +0.000 C 
ATOM     15  C   UNL     1      -0.260  11.115  22.144  0.00  0.00    +0.000 C 
ATOM     16  C   UNL     1      -0.535   9.674  22.620  0.00  0.00    +0.000 C 
ENDBRANCH   5  15
ENDBRANCH   1  11
BRANCH   3  17
ATOM     17  C   UNL     1       2.079   4.349  18.280  0.00  0.00    +0.000 A 
ATOM     18  C   UNL     1       1.175   3.621  19.078  0.00  0.00    +0.000 A 
ATOM     19  C   UNL     1       1.194   2.224  19.184  0.00  0.00    +0.000 A 
ATOM     20  C   UNL     1       2.144   1.491  18.505  0.00  0.00    +0.000 A 
ATOM     21  C   UNL     1       3.082   2.169  17.738  0.00  0.00    +0.000 A 
ATOM     22  C   UNL     1       3.076   3.585  17.609  0.00  0.00    +0.000 A 
BRANCH  22  23
ATOM     23  C   UNL     1       4.196   4.108  16.725  0.00  0.00    +0.000 C 
BRANCH  23  24
ATOM     24  N   UNL     1       5.022   5.162  17.378  0.00  0.00    +0.000 NA
ATOM     25  C   UNL     1       6.102   5.559  16.466  0.00  0.00    +0.000 C 
ATOM     26  C   UNL     1       7.281   6.265  17.124  0.00  0.00    +0.000 C 
ATOM     27  C   UNL     1       7.824   5.423  18.261  0.00  0.00    +0.000 C 
ATOM     28  C   UNL     1       6.741   5.284  19.303  0.00  0.00    +0.000 C 
ATOM     29  C   UNL     1       5.446   4.703  18.713  0.00  0.00    +0.000 C 
BRANCH  27  30
ATOM     30  O   UNL     1       8.214   4.148  17.759  0.00  0.00    +0.000 OA
ATOM     31  H   UNL     1       8.202   3.518  18.500  0.00  0.00    +0.000 HD
ENDBRANCH  27  30
ENDBRANCH  23  24
ENDBRANCH  22  23
ENDBRANCH   3  17
TORSDOF 6
ENDMDL
MODEL 6
REMARK VINA RESULT:      -8.5      3.128      8.173
REMARK  Name = 
REMARK  8 active torsions:
REMARK  status: ('A' for Active; 'I' for Inactive)
REMARK    1  A    between atoms: C_1  and  C_2
REMARK    2  A    between atoms: C_2  and  C_3
REMARK    3  A    between atoms: C_2  and  C_4
REMARK    4  A    between atoms: C_10  and  C_11
REMARK    5  A    between atoms: N_13  and  C_14
REMARK    6  A    between atoms: C_19  and  C_20
REMARK    7  A    between atoms: C_20  and  N_21
REMARK    8  A    between atoms: C_24  and  O_25
REMARK                            x       y       z     vdW  Elec       q    Type
REMARK                         _______ _______ _______ _____ _____    ______ ____
ROOT
ATOM      1  C   UNL     1       2.238   6.702  19.178  0.00  0.00    +0.000 C 
ATOM      2  O   UNL     1       2.661   6.426  20.299  0.00  0.00    +0.000 OA
ATOM      3  N   UNL     1       2.033   5.776  18.135  0.00  0.00    +0.000 N 
ATOM      4  H   UNL     1       1.693   6.107  17.244  0.00  0.00    +0.000 HD
ENDROOT
BRANCH   1  11
ATOM      5  C   UNL     1      -0.007  11.112  20.567  0.00  0.00    +0.000 A 
ATOM      6  N   UNL     1      -0.001  12.274  19.895  0.00  0.00    +0.000 NA
ATOM      7  O   UNL     1       0.772  12.060  18.764  0.00  0.00    +0.000 OA
ATOM      8  C   UNL     1       1.232  10.777  18.749  0.00  0.00    +0.000 A 
ATOM      9  N   UNL     1       2.016  10.259  17.774  0.00  0.00    +0.000 NA
ATOM     10  C   UNL     1       2.321   8.944  17.958  0.00  0.00    +0.000 A 
ATOM     11  C   UNL     1       1.901   8.149  19.011  0.00  0.00    +0.000 A 
ATOM     12  C   UNL     1       1.131   8.773  20.028  0.00  0.00    +0.000 A 
ATOM     13  C   UNL     1       0.761  10.124  19.877  0.00  0.00    +0.000 A 
BRANCH   5  15
ATOM     14  C   UNL     1      -0.070   9.997  22.820  0.00  0.00    +0.000 C 
ATOM     15  C   UNL     1      -0.751  10.996  21.874  0.00  0.00    +0.000 C 
ATOM     16  C   UNL     1      -0.921  12.340  22.609  0.00  0.00    +0.000 C 
ENDBRANCH   5  15
ENDBRANCH   1  11
BRANCH   3  17
ATOM     17  C   UNL     1       2.160   4.335  18.261  0.00  0.00    +0.000 A 
ATOM     18  C   UNL     1       1.166   3.588  18.922  0.00  0.00    +0.000 A 
ATOM     19  C   UNL     1       1.183   2.189  19.008  0.00  0.00    +0.000 A 
ATOM     20  C   UNL     1       2.219   1.474  18.446  0.00  0.00    +0.000 A 
ATOM     21  C   UNL     1       3.243   2.172  17.819  0.00  0.00    +0.000 A 
ATOM     22  C   UNL     1       3.242   3.590  17.713  0.00  0.00    +0.000 A 
BRANCH  22  23
ATOM     23  C   UNL     1       4.463   4.134  16.991  0.00  0.00    +0.000 C 
BRANCH  23  24
ATOM     24  N   UNL     1       5.157   5.221  17.739  0.00  0.00    +0.000 NA
ATOM     25  C   UNL     1       5.120   6.452  16.941  0.00  0.00    +0.000 C 
ATOM     26  C   UNL     1       6.151   7.506  17.325  0.00  0.00    +0.000 C 
ATOM     27  C   UNL     1       7.541   6.904  17.313  0.00  0.00    +0.000 C 
ATOM     28  C   UNL     1       7.593   5.818  18.360  0.00  0.00    +0.000 C 
ATOM     29  C   UNL     1       6.498   4.761  18.148  0.00  0.00    +0.000 C 
BRANCH  27  30
ATOM     30  O   UNL     1       7.816   6.377  16.019  0.00  0.00    +0.000 OA
ATOM     31  H   UNL     1       7.750   5.408  16.069  0.00  0.00    +0.000 HD
ENDBRANCH  27  30
ENDBRANCH  23  24
ENDBRANCH  22  23
ENDBRANCH   3  17
TORSDOF 6
ENDMDL
MODEL 7
REMARK VINA RESULT:      -8.3      3.123      8.666
REMARK  Name = 
REMARK  8 active torsions:
REMARK  status: ('A' for Active; 'I' for Inactive)
REMARK    1  A    between atoms: C_1  and  C_2
REMARK    2  A    between atoms: C_2  and  C_3
REMARK    3  A    between atoms: C_2  and  C_4
REMARK    4  A    between atoms: C_10  and  C_11
REMARK    5  A    between atoms: N_13  and  C_14
REMARK    6  A    between atoms: C_19  and  C_20
REMARK    7  A    between atoms: C_20  and  N_21
REMARK    8  A    between atoms: C_24  and  O_25
REMARK                            x       y       z     vdW  Elec       q    Type
REMARK                         _______ _______ _______ _____ _____    ______ ____
ROOT
ATOM      1  C   UNL     1       2.663   7.787  17.857  0.00  0.00    +0.000 C 
ATOM      2  O   UNL     1       1.775   6.968  17.624  0.00  0.00    +0.000 OA
ATOM      3  N   UNL     1       4.040   7.577  17.643  0.00  0.00    +0.000 N 
ATOM      4  H   UNL     1       4.692   8.310  17.881  0.00  0.00    +0.000 HD
ENDROOT
BRANCH   1  11
ATOM      5  C   UNL     1       0.052  10.762  21.136  0.00  0.00    +0.000 A 
ATOM      6  N   UNL     1      -0.140  12.088  21.054  0.00  0.00    +0.000 NA
ATOM      7  O   UNL     1       0.546  12.507  19.924  0.00  0.00    +0.000 OA
ATOM      8  C   UNL     1       1.150  11.442  19.323  0.00  0.00    +0.000 A 
ATOM      9  N   UNL     1       1.898  11.524  18.198  0.00  0.00    +0.000 NA
ATOM     10  C   UNL     1       2.371  10.322  17.765  0.00  0.00    +0.000 A 
ATOM     11  C   UNL     1       2.144   9.094  18.365  0.00  0.00    +0.000 A 
ATOM     12  C   UNL     1       1.403   9.089  19.575  0.00  0.00    +0.000 A 
ATOM     13  C   UNL     1       0.864  10.300  20.055  0.00  0.00    +0.000 A 
BRANCH   5  15
ATOM     14  C   UNL     1       0.532   9.275  23.107  0.00  0.00    +0.000 C 
ATOM     15  C   UNL     1      -0.551   9.978  22.274  0.00  0.00    +0.000 C 
ATOM     16  C   UNL     1      -1.426  10.829  23.216  0.00  0.00    +0.000 C 
ENDBRANCH   5  15
ENDBRANCH   1  11
BRANCH   3  17
ATOM     17  C   UNL     1       4.616   6.415  16.990  0.00  0.00    +0.000 A 
ATOM     18  C   UNL     1       5.048   6.492  15.651  0.00  0.00    +0.000 A 
ATOM     19  C   UNL     1       5.687   5.437  14.986  0.00  0.00    +0.000 A 
ATOM     20  C   UNL     1       5.904   4.240  15.635  0.00  0.00    +0.000 A 
ATOM     21  C   UNL     1       5.457   4.104  16.943  0.00  0.00    +0.000 A 
ATOM     22  C   UNL     1       4.814   5.164  17.640  0.00  0.00    +0.000 A 
BRANCH  22  23
ATOM     23  C   UNL     1       4.409   4.787  19.055  0.00  0.00    +0.000 C 
BRANCH  23  24
ATOM     24  N   UNL     1       3.018   4.262  19.153  0.00  0.00    +0.000 NA
ATOM     25  C   UNL     1       2.336   4.917  20.276  0.00  0.00    +0.000 C 
ATOM     26  C   UNL     1       1.102   4.190  20.799  0.00  0.00    +0.000 C 
ATOM     27  C   UNL     1       1.451   2.757  21.147  0.00  0.00    +0.000 C 
ATOM     28  C   UNL     1       1.885   2.058  19.881  0.00  0.00    +0.000 C 
ATOM     29  C   UNL     1       3.046   2.788  19.190  0.00  0.00    +0.000 C 
BRANCH  27  30
ATOM     30  O   UNL     1       2.493   2.747  22.118  0.00  0.00    +0.000 OA
ATOM     31  H   UNL     1       3.340   2.683  21.647  0.00  0.00    +0.000 HD
ENDBRANCH  27  30
ENDBRANCH  23  24
ENDBRANCH  22  23
ENDBRANCH   3  17
TORSDOF 6
ENDMDL
MODEL 8
REMARK VINA RESULT:      -8.3      1.193      1.659
REMARK  Name = 
REMARK  8 active torsions:
REMARK  status: ('A' for Active; 'I' for Inactive)
REMARK    1  A    between atoms: C_1  and  C_2
REMARK    2  A    between atoms: C_2  and  C_3
REMARK    3  A    between atoms: C_2  and  C_4
REMARK    4  A    between atoms: C_10  and  C_11
REMARK    5  A    between atoms: N_13  and  C_14
REMARK    6  A    between atoms: C_19  and  C_20
REMARK    7  A    between atoms: C_20  and  N_21
REMARK    8  A    between atoms: C_24  and  O_25
REMARK                            x       y       z     vdW  Elec       q    Type
REMARK                         _______ _______ _______ _____ _____    ______ ____
ROOT
ATOM      1  C   UNL     1       4.205   4.083  17.226  0.00  0.00    +0.000 C 
ATOM      2  O   UNL     1       3.268   3.497  16.684  0.00  0.00    +0.000 OA
ATOM      3  N   UNL     1       4.322   4.324  18.610  0.00  0.00    +0.000 N 
ATOM      4  H   UNL     1       5.127   4.827  18.954  0.00  0.00    +0.000 HD
ENDROOT
BRANCH   1  11
ATOM      5  C   UNL     1       6.564   4.115  12.659  0.00  0.00    +0.000 A 
ATOM      6  N   UNL     1       7.708   4.740  12.340  0.00  0.00    +0.000 NA
ATOM      7  O   UNL     1       8.109   5.415  13.483  0.00  0.00    +0.000 OA
ATOM      8  C   UNL     1       7.215   5.201  14.490  0.00  0.00    +0.000 A 
ATOM      9  N   UNL     1       7.325   5.726  15.733  0.00  0.00    +0.000 NA
ATOM     10  C   UNL     1       6.329   5.344  16.580  0.00  0.00    +0.000 A 
ATOM     11  C   UNL     1       5.276   4.499  16.270  0.00  0.00    +0.000 A 
ATOM     12  C   UNL     1       5.189   4.034  14.932  0.00  0.00    +0.000 A 
ATOM     13  C   UNL     1       6.208   4.374  14.019  0.00  0.00    +0.000 A 
BRANCH   5  15
ATOM     14  C   UNL     1       6.214   1.805  11.729  0.00  0.00    +0.000 C 
ATOM     15  C   UNL     1       5.837   3.290  11.627  0.00  0.00    +0.000 C 
ATOM     16  C   UNL     1       4.303   3.419  11.703  0.00  0.00    +0.000 C 
ENDBRANCH   5  15
ENDBRANCH   1  11
BRANCH   3  17
ATOM     17  C   UNL     1       3.426   3.802  19.627  0.00  0.00    +0.000 A 
ATOM     18  C   UNL     1       3.815   2.708  20.425  0.00  0.00    +0.000 A 
ATOM     19  C   UNL     1       3.038   2.208  21.478  0.00  0.00    +0.000 A 
ATOM     20  C   UNL     1       1.814   2.776  21.765  0.00  0.00    +0.000 A 
ATOM     21  C   UNL     1       1.371   3.831  20.978  0.00  0.00    +0.000 A 
ATOM     22  C   UNL     1       2.147   4.360  19.910  0.00  0.00    +0.000 A 
BRANCH  22  23
ATOM     23  C   UNL     1       1.462   5.506  19.186  0.00  0.00    +0.000 C 
BRANCH  23  24
ATOM     24  N   UNL     1       2.141   6.818  19.379  0.00  0.00    +0.000 NA
ATOM     25  C   UNL     1       1.366   7.625  20.330  0.00  0.00    +0.000 C 
ATOM     26  C   UNL     1       1.647   9.123  20.290  0.00  0.00    +0.000 C 
ATOM     27  C   UNL     1       1.476   9.648  18.879  0.00  0.00    +0.000 C 
ATOM     28  C   UNL     1       2.500   8.972  17.998  0.00  0.00    +0.000 C 
ATOM     29  C   UNL     1       2.397   7.441  18.067  0.00  0.00    +0.000 C 
BRANCH  27  30
ATOM     30  O   UNL     1       0.154   9.370  18.429  0.00  0.00    +0.000 OA
ATOM     31  H   UNL     1      -0.330  10.212  18.383  0.00  0.00    +0.000 HD
ENDBRANCH  27  30
ENDBRANCH  23  24
ENDBRANCH  22  23
ENDBRANCH   3  17
TORSDOF 6
ENDMDL
MODEL 9
REMARK VINA RESULT:      -8.3      2.833      8.421
REMARK  Name = 
REMARK  8 active torsions:
REMARK  status: ('A' for Active; 'I' for Inactive)
REMARK    1  A    between atoms: C_1  and  C_2
REMARK    2  A    between atoms: C_2  and  C_3
REMARK    3  A    between atoms: C_2  and  C_4
REMARK    4  A    between atoms: C_10  and  C_11
REMARK    5  A    between atoms: N_13  and  C_14
REMARK    6  A    between atoms: C_19  and  C_20
REMARK    7  A    between atoms: C_20  and  N_21
REMARK    8  A    between atoms: C_24  and  O_25
REMARK                            x       y       z     vdW  Elec       q    Type
REMARK                         _______ _______ _______ _____ _____    ______ ____
ROOT
ATOM      1  C   UNL     1       1.942   6.782  19.765  0.00  0.00    +0.000 C 
ATOM      2  O   UNL     1       1.910   6.465  20.953  0.00  0.00    +0.000 OA
ATOM      3  N   UNL     1       2.183   5.899  18.693  0.00  0.00    +0.000 N 
ATOM      4  H   UNL     1       2.202   6.263  17.752  0.00  0.00    +0.000 HD
ENDROOT
BRANCH   1  11
ATOM      5  C   UNL     1       0.051  11.382  21.062  0.00  0.00    +0.000 A 
ATOM      6  N   UNL     1       0.030  12.494  20.310  0.00  0.00    +0.000 NA
ATOM      7  O   UNL     1       0.663  12.165  19.121  0.00  0.00    +0.000 OA
ATOM      8  C   UNL     1       1.065  10.862  19.150  0.00  0.00    +0.000 A 
ATOM      9  N   UNL     1       1.714  10.241  18.137  0.00  0.00    +0.000 NA
ATOM     10  C   UNL     1       1.983   8.928  18.382  0.00  0.00    +0.000 A 
ATOM     11  C   UNL     1       1.649   8.229  19.531  0.00  0.00    +0.000 A 
ATOM     12  C   UNL     1       1.024   8.958  20.576  0.00  0.00    +0.000 A 
ATOM     13  C   UNL     1       0.695  10.313  20.367  0.00  0.00    +0.000 A 
BRANCH   5  15
ATOM     14  C   UNL     1      -1.945  12.029  22.449  0.00  0.00    +0.000 C 
ATOM     15  C   UNL     1      -0.548  11.392  22.446  0.00  0.00    +0.000 C 
ATOM     16  C   UNL     1      -0.639   9.994  23.089  0.00  0.00    +0.000 C 
ENDBRANCH   5  15
ENDBRANCH   1  11
BRANCH   3  17
ATOM     17  C   UNL     1       2.298   4.456  18.810  0.00  0.00    +0.000 A 
ATOM     18  C   UNL     1       1.153   3.641  18.712  0.00  0.00    +0.000 A 
ATOM     19  C   UNL     1       1.201   2.240  18.732  0.00  0.00    +0.000 A 
ATOM     20  C   UNL     1       2.410   1.592  18.873  0.00  0.00    +0.000 A 
ATOM     21  C   UNL     1       3.561   2.355  19.014  0.00  0.00    +0.000 A 
ATOM     22  C   UNL     1       3.537   3.777  18.988  0.00  0.00    +0.000 A 
BRANCH  22  23
ATOM     23  C   UNL     1       4.911   4.400  19.164  0.00  0.00    +0.000 C 
BRANCH  23  24
ATOM     24  N   UNL     1       5.235   5.422  18.130  0.00  0.00    +0.000 NA
ATOM     25  C   UNL     1       5.082   4.824  16.798  0.00  0.00    +0.000 C 
ATOM     26  C   UNL     1       5.799   5.558  15.671  0.00  0.00    +0.000 C 
ATOM     27  C   UNL     1       7.264   5.734  16.013  0.00  0.00    +0.000 C 
ATOM     28  C   UNL     1       7.359   6.599  17.247  0.00  0.00    +0.000 C 
ATOM     29  C   UNL     1       6.552   6.018  18.419  0.00  0.00    +0.000 C 
BRANCH  27  30
ATOM     30  O   UNL     1       7.853   4.458  16.239  0.00  0.00    +0.000 OA
ATOM     31  H   UNL     1       7.137   3.821  16.402  0.00  0.00    +0.000 HD
ENDBRANCH  27  30
ENDBRANCH  23  24
ENDBRANCH  22  23
ENDBRANCH   3  17
TORSDOF 6
ENDMDL
