MODEL 1
REMARK VINA RESULT:      -8.9      0.000      0.000
REMARK  Name = 
REMARK  6 active torsions:
REMARK  status: ('A' for Active; 'I' for Inactive)
REMARK    1  A    between atoms: C_1  and  C_2
REMARK    2  A    between atoms: N_4  and  C_5
REMARK    3  A    between atoms: C_5  and  C_6
REMARK    4  A    between atoms: C_10  and  C_11
REMARK    5  A    between atoms: N_17  and  C_18
REMARK    6  A    between atoms: C_22  and  C_23
REMARK                            x       y       z     vdW  Elec       q    Type
REMARK                         _______ _______ _______ _____ _____    ______ ____
ROOT
ATOM      1  C   UNL     1      -0.022  11.180  19.197  0.00  0.00    +0.000 A 
ATOM      2  C   UNL     1       0.776  10.362  18.389  0.00  0.00    +0.000 A 
ATOM      3  C   UNL     1       1.312   9.221  18.952  0.00  0.00    +0.000 A 
ATOM      4  C   UNL     1       1.113   8.859  20.278  0.00  0.00    +0.000 A 
ATOM      5  C   UNL     1       0.367   9.675  21.123  0.00  0.00    +0.000 A 
ATOM      6  C   UNL     1      -0.202  10.839  20.560  0.00  0.00    +0.000 A 
ATOM      7  C   UNL     1       1.772   7.538  20.529  0.00  0.00    +0.000 C 
ATOM      8  N   UNL     1       2.370   7.202  19.244  0.00  0.00    +0.000 N 
ATOM      9  C   UNL     1       2.112   8.188  18.289  0.00  0.00    +0.000 C 
ATOM     10  O   UNL     1       2.420   8.280  17.115  0.00  0.00    +0.000 OA
ENDROOT
BRANCH   8  11
ATOM     11  C   UNL     1       3.117   6.010  19.039  0.00  0.00    +0.000 A 
ATOM     12  C   UNL     1       4.481   5.943  19.343  0.00  0.00    +0.000 A 
ATOM     13  C   UNL     1       5.210   4.766  19.155  0.00  0.00    +0.000 A 
ATOM     14  C   UNL     1       4.591   3.633  18.642  0.00  0.00    +0.000 A 
ATOM     15  C   UNL     1       3.234   3.670  18.312  0.00  0.00    +0.000 A 
ATOM     16  C   UNL     1       2.557   2.469  17.720  0.00  0.00    +0.000 C 
ATOM     17  C   UNL     1       2.507   4.857  18.518  0.00  0.00    +0.000 A 
ENDBRANCH   8  11
BRANCH   5  18
ATOM     18  C   UNL     1       0.132   9.354  22.576  0.00  0.00    +0.000 C 
ATOM     19  F   UNL     1      -0.473  10.358  23.266  0.00  0.00    +0.000 F 
ATOM     20  F   UNL     1      -0.660   8.260  22.739  0.00  0.00    +0.000 F 
ATOM     21  F   UNL     1       1.287   9.085  23.243  0.00  0.00    +0.000 F 
ENDBRANCH   5  18
BRANCH   1  22
ATOM     22  C   UNL     1      -0.779  12.340  18.576  0.00  0.00    +0.000 C 
BRANCH  22  26
ATOM     23  C   UNL     1      -3.311  10.477  14.780  0.00  0.00    +0.000 C 
ATOM     24  C   UNL     1      -3.352  10.869  16.224  0.00  0.00    +0.000 C 
ATOM     25  C   UNL     1      -2.296  11.423  16.844  0.00  0.00    +0.000 C 
ATOM     26  N   UNL     1      -2.132  11.893  18.148  0.00  0.00    +0.000 N 
ATOM     27  C   UNL     1      -3.213  12.160  18.985  0.00  0.00    +0.000 C 
ATOM     28  C   UNL     1      -4.528  12.099  18.749  0.00  0.00    +0.000 C 
ATOM     29  C   UNL     1      -5.187  11.645  17.488  0.00  0.00    +0.000 C 
ATOM     30  O   UNL     1      -4.535  10.550  16.851  0.00  0.00    +0.000 OA
ENDBRANCH  22  26
ENDBRANCH   1  22
TORSDOF 4
ENDMDL
MODEL 2
REMARK VINA RESULT:      -8.7      0.734      1.829
REMARK  Name = 
REMARK  6 active torsions:
REMARK  status: ('A' for Active; 'I' for Inactive)
REMARK    1  A    between atoms: C_1  and  C_2
REMARK    2  A    between atoms: N_4  and  C_5
REMARK    3  A    between atoms: C_5  and  C_6
REMARK    4  A    between atoms: C_10  and  C_11
REMARK    5  A    between atoms: N_17  and  C_18
REMARK    6  A    between atoms: C_22  and  C_23
REMARK                            x       y       z     vdW  Elec       q    Type
REMARK                         _______ _______ _______ _____ _____    ______ ____
ROOT
ATOM      1  C   UNL     1       0.115  11.266  19.230  0.00  0.00    +0.000 A 
ATOM      2  C   UNL     1       0.897  10.427  18.428  0.00  0.00    +0.000 A 
ATOM      3  C   UNL     1       1.370   9.255  18.984  0.00  0.00    +0.000 A 
ATOM      4  C   UNL     1       1.123   8.882  20.299  0.00  0.00    +0.000 A 
ATOM      5  C   UNL     1       0.391   9.716  21.139  0.00  0.00    +0.000 A 
ATOM      6  C   UNL     1      -0.113  10.912  20.582  0.00  0.00    +0.000 A 
ATOM      7  C   UNL     1       1.719   7.530  20.544  0.00  0.00    +0.000 C 
ATOM      8  N   UNL     1       2.334   7.189  19.268  0.00  0.00    +0.000 N 
ATOM      9  C   UNL     1       2.142   8.200  18.324  0.00  0.00    +0.000 C 
ATOM     10  O   UNL     1       2.483   8.297  17.159  0.00  0.00    +0.000 OA
ENDROOT
BRANCH   8  11
ATOM     11  C   UNL     1       3.034   5.970  19.061  0.00  0.00    +0.000 A 
ATOM     12  C   UNL     1       4.404   5.860  19.329  0.00  0.00    +0.000 A 
ATOM     13  C   UNL     1       5.088   4.656  19.139  0.00  0.00    +0.000 A 
ATOM     14  C   UNL     1       4.417   3.538  18.661  0.00  0.00    +0.000 A 
ATOM     15  C   UNL     1       3.053   3.617  18.368  0.00  0.00    +0.000 A 
ATOM     16  C   UNL     1       2.320   2.430  17.813  0.00  0.00    +0.000 C 
ATOM     17  C   UNL     1       2.372   4.830  18.575  0.00  0.00    +0.000 A 
ENDBRANCH   8  11
BRANCH   5  18
ATOM     18  C   UNL     1       0.108   9.383  22.580  0.00  0.00    +0.000 C 
ATOM     19  F   UNL     1      -0.697   8.298  22.742  0.00  0.00    +0.000 F 
ATOM     20  F   UNL     1       1.244   9.110  23.278  0.00  0.00    +0.000 F 
ATOM     21  F   UNL     1      -0.503  10.403  23.240  0.00  0.00    +0.000 F 
ENDBRANCH   5  18
BRANCH   1  22
ATOM     22  C   UNL     1      -0.577  12.467  18.610  0.00  0.00    +0.000 C 
BRANCH  22  26
ATOM     23  C   UNL     1      -4.882  12.713  20.994  0.00  0.00    +0.000 C 
ATOM     24  C   UNL     1      -4.201  12.423  19.693  0.00  0.00    +0.000 C 
ATOM     25  C   UNL     1      -2.864  12.466  19.561  0.00  0.00    +0.000 C 
ATOM     26  N   UNL     1      -2.034  12.199  18.472  0.00  0.00    +0.000 N 
ATOM     27  C   UNL     1      -2.475  11.497  17.354  0.00  0.00    +0.000 C 
ATOM     28  C   UNL     1      -3.655  10.918  17.104  0.00  0.00    +0.000 C 
ATOM     29  C   UNL     1      -4.863  10.940  17.982  0.00  0.00    +0.000 C 
ATOM     30  O   UNL     1      -5.071  12.178  18.655  0.00  0.00    +0.000 OA
ENDBRANCH  22  26
ENDBRANCH   1  22
TORSDOF 4
ENDMDL
MODEL 3
REMARK VINA RESULT:      -8.6      0.875      1.332
REMARK  Name = 
REMARK  6 active torsions:
REMARK  status: ('A' for Active; 'I' for Inactive)
REMARK    1  A    between atoms: C_1  and  C_2
REMARK    2  A    between atoms: N_4  and  C_5
REMARK    3  A    between atoms: C_5  and  C_6
REMARK    4  A    between atoms: C_10  and  C_11
REMARK    5  A    between atoms: N_17  and  C_18
REMARK    6  A    between atoms: C_22  and  C_23
REMARK                            x       y       z     vdW  Elec       q    Type
REMARK                         _______ _______ _______ _____ _____    ______ ____
ROOT
ATOM      1  C   UNL     1      -0.418  11.443  19.504  0.00  0.00    +0.000 A 
ATOM      2  C   UNL     1       0.414  10.733  18.632  0.00  0.00    +0.000 A 
ATOM      3  C   UNL     1       1.039   9.599  19.112  0.00  0.00    +0.000 A 
ATOM      4  C   UNL     1       0.896   9.145  20.417  0.00  0.00    +0.000 A 
ATOM      5  C   UNL     1       0.116   9.855  21.325  0.00  0.00    +0.000 A 
ATOM      6  C   UNL     1      -0.543  11.010  20.847  0.00  0.00    +0.000 A 
ATOM      7  C   UNL     1       1.649   7.859  20.573  0.00  0.00    +0.000 C 
ATOM      8  N   UNL     1       2.237   7.644  19.259  0.00  0.00    +0.000 N 
ATOM      9  C   UNL     1       1.891   8.665  18.372  0.00  0.00    +0.000 C 
ATOM     10  O   UNL     1       2.165   8.850  17.200  0.00  0.00    +0.000 OA
ENDROOT
BRANCH   8  11
ATOM     11  C   UNL     1       3.058   6.520  18.965  0.00  0.00    +0.000 A 
ATOM     12  C   UNL     1       3.123   5.420  19.827  0.00  0.00    +0.000 A 
ATOM     13  C   UNL     1       3.919   4.310  19.529  0.00  0.00    +0.000 A 
ATOM     14  C   UNL     1       4.679   4.285  18.368  0.00  0.00    +0.000 A 
ATOM     15  C   UNL     1       4.650   5.375  17.493  0.00  0.00    +0.000 A 
ATOM     16  C   UNL     1       5.496   5.383  16.253  0.00  0.00    +0.000 C 
ATOM     17  C   UNL     1       3.836   6.481  17.796  0.00  0.00    +0.000 A 
ENDBRANCH   8  11
BRANCH   5  18
ATOM     18  C   UNL     1      -0.061   9.432  22.759  0.00  0.00    +0.000 C 
ATOM     19  F   UNL     1       1.112   9.251  23.425  0.00  0.00    +0.000 F 
ATOM     20  F   UNL     1      -0.762  10.348  23.483  0.00  0.00    +0.000 F 
ATOM     21  F   UNL     1      -0.742   8.259  22.877  0.00  0.00    +0.000 F 
ENDBRANCH   5  18
BRANCH   1  22
ATOM     22  C   UNL     1      -1.266  12.584  18.970  0.00  0.00    +0.000 C 
BRANCH  22  26
ATOM     23  C   UNL     1      -3.471  10.511  15.081  0.00  0.00    +0.000 C 
ATOM     24  C   UNL     1      -3.618  10.934  16.510  0.00  0.00    +0.000 C 
ATOM     25  C   UNL     1      -2.630  11.554  17.176  0.00  0.00    +0.000 C 
ATOM     26  N   UNL     1      -2.567  12.061  18.475  0.00  0.00    +0.000 N 
ATOM     27  C   UNL     1      -3.708  12.294  19.239  0.00  0.00    +0.000 C 
ATOM     28  C   UNL     1      -5.002  12.162  18.927  0.00  0.00    +0.000 C 
ATOM     29  C   UNL     1      -5.561  11.647  17.641  0.00  0.00    +0.000 C 
ATOM     30  O   UNL     1      -4.820  10.571  17.073  0.00  0.00    +0.000 OA
ENDBRANCH  22  26
ENDBRANCH   1  22
TORSDOF 4
ENDMDL
MODEL 4
REMARK VINA RESULT:      -8.5      0.984      2.061
REMARK  Name = 
REMARK  6 active torsions:
REMARK  status: ('A' for Active; 'I' for Inactive)
REMARK    1  A    between atoms: C_1  and  C_2
REMARK    2  A    between atoms: N_4  and  C_5
REMARK    3  A    between atoms: C_5  and  C_6
REMARK    4  A    between atoms: C_10  and  C_11
REMARK    5  A    between atoms: N_17  and  C_18
REMARK    6  A    between atoms: C_22  and  C_23
REMARK                            x       y       z     vdW  Elec       q    Type
REMARK                         _______ _______ _______ _____ _____    ______ ____
ROOT
ATOM      1  C   UNL     1       0.013  11.242  19.281  0.00  0.00    +0.000 A 
ATOM      2  C   UNL     1       0.837  10.363  18.570  0.00  0.00    +0.000 A 
ATOM      3  C   UNL     1       1.292   9.233  19.218  0.00  0.00    +0.000 A 
ATOM      4  C   UNL     1       0.986   8.939  20.541  0.00  0.00    +0.000 A 
ATOM      5  C   UNL     1       0.212   9.816  21.294  0.00  0.00    +0.000 A 
ATOM      6  C   UNL     1      -0.275  10.971  20.641  0.00  0.00    +0.000 A 
ATOM      7  C   UNL     1       1.580   7.610  20.897  0.00  0.00    +0.000 C 
ATOM      8  N   UNL     1       2.255   7.197  19.674  0.00  0.00    +0.000 N 
ATOM      9  C   UNL     1       2.100   8.146  18.661  0.00  0.00    +0.000 C 
ATOM     10  O   UNL     1       2.493   8.174  17.509  0.00  0.00    +0.000 OA
ENDROOT
BRANCH   8  11
ATOM     11  C   UNL     1       2.973   5.974  19.575  0.00  0.00    +0.000 A 
ATOM     12  C   UNL     1       2.443   4.776  20.067  0.00  0.00    +0.000 A 
ATOM     13  C   UNL     1       3.143   3.571  19.954  0.00  0.00    +0.000 A 
ATOM     14  C   UNL     1       4.399   3.544  19.361  0.00  0.00    +0.000 A 
ATOM     15  C   UNL     1       4.964   4.726  18.874  0.00  0.00    +0.000 A 
ATOM     16  C   UNL     1       6.336   4.723  18.265  0.00  0.00    +0.000 C 
ATOM     17  C   UNL     1       4.245   5.930  18.981  0.00  0.00    +0.000 A 
ENDBRANCH   8  11
BRANCH   5  18
ATOM     18  C   UNL     1      -0.136   9.570  22.738  0.00  0.00    +0.000 C 
ATOM     19  F   UNL     1      -0.795  10.605  23.326  0.00  0.00    +0.000 F 
ATOM     20  F   UNL     1      -0.937   8.481  22.896  0.00  0.00    +0.000 F 
ATOM     21  F   UNL     1       0.963   9.342  23.507  0.00  0.00    +0.000 F 
ENDBRANCH   5  18
BRANCH   1  22
ATOM     22  C   UNL     1      -0.658  12.396  18.557  0.00  0.00    +0.000 C 
BRANCH  22  26
ATOM     23  C   UNL     1      -4.984  12.722  20.893  0.00  0.00    +0.000 C 
ATOM     24  C   UNL     1      -4.292  12.393  19.607  0.00  0.00    +0.000 C 
ATOM     25  C   UNL     1      -2.954  12.429  19.487  0.00  0.00    +0.000 C 
ATOM     26  N   UNL     1      -2.114  12.128  18.414  0.00  0.00    +0.000 N 
ATOM     27  C   UNL     1      -2.547  11.396  17.312  0.00  0.00    +0.000 C 
ATOM     28  C   UNL     1      -3.726  10.812  17.068  0.00  0.00    +0.000 C 
ATOM     29  C   UNL     1      -4.942  10.864  17.934  0.00  0.00    +0.000 C 
ATOM     30  O   UNL     1      -5.153  12.121  18.569  0.00  0.00    +0.000 OA
ENDBRANCH  22  26
ENDBRANCH   1  22
TORSDOF 4
ENDMDL
MODEL 5
REMARK VINA RESULT:      -8.3      2.447      3.676
REMARK  Name = 
REMARK  6 active torsions:
REMARK  status: ('A' for Active; 'I' for Inactive)
REMARK    1  A    between atoms: C_1  and  C_2
REMARK    2  A    between atoms: N_4  and  C_5
REMARK    3  A    between atoms: C_5  and  C_6
REMARK    4  A    between atoms: C_10  and  C_11
REMARK    5  A    between atoms: N_17  and  C_18
REMARK    6  A    between atoms: C_22  and  C_23
REMARK                            x       y       z     vdW  Elec       q    Type
REMARK                         _______ _______ _______ _____ _____    ______ ____
ROOT
ATOM      1  C   UNL     1       0.222  11.366  19.081  0.00  0.00    +0.000 A 
ATOM      2  C   UNL     1       1.015  10.498  18.321  0.00  0.00    +0.000 A 
ATOM      3  C   UNL     1       1.422   9.315  18.904  0.00  0.00    +0.000 A 
ATOM      4  C   UNL     1       1.099   8.957  20.207  0.00  0.00    +0.000 A 
ATOM      5  C   UNL     1       0.355   9.818  21.007  0.00  0.00    +0.000 A 
ATOM      6  C   UNL     1      -0.083  11.027  20.422  0.00  0.00    +0.000 A 
ATOM      7  C   UNL     1       1.639   7.588  20.486  0.00  0.00    +0.000 C 
ATOM      8  N   UNL     1       2.303   7.220  19.243  0.00  0.00    +0.000 N 
ATOM      9  C   UNL     1       2.190   8.231  18.286  0.00  0.00    +0.000 C 
ATOM     10  O   UNL     1       2.589   8.311  17.139  0.00  0.00    +0.000 OA
ENDROOT
BRANCH   8  11
ATOM     11  C   UNL     1       2.973   5.977  19.075  0.00  0.00    +0.000 A 
ATOM     12  C   UNL     1       4.336   5.839  19.359  0.00  0.00    +0.000 A 
ATOM     13  C   UNL     1       4.989   4.613  19.208  0.00  0.00    +0.000 A 
ATOM     14  C   UNL     1       4.294   3.501  18.752  0.00  0.00    +0.000 A 
ATOM     15  C   UNL     1       2.935   3.607  18.443  0.00  0.00    +0.000 A 
ATOM     16  C   UNL     1       2.176   2.427  17.912  0.00  0.00    +0.000 C 
ATOM     17  C   UNL     1       2.284   4.843  18.612  0.00  0.00    +0.000 A 
ENDBRANCH   8  11
BRANCH   5  18
ATOM     18  C   UNL     1      -0.008   9.502  22.434  0.00  0.00    +0.000 C 
ATOM     19  F   UNL     1       1.064   9.216  23.220  0.00  0.00    +0.000 F 
ATOM     20  F   UNL     1      -0.650  10.537  23.042  0.00  0.00    +0.000 F 
ATOM     21  F   UNL     1      -0.842   8.432  22.535  0.00  0.00    +0.000 F 
ENDBRANCH   5  18
BRANCH   1  22
ATOM     22  C   UNL     1      -0.400  12.585  18.423  0.00  0.00    +0.000 C 
BRANCH  22  26
ATOM     23  C   UNL     1       4.063  14.665  18.209  0.00  0.00    +0.000 C 
ATOM     24  C   UNL     1       2.625  14.852  18.581  0.00  0.00    +0.000 C 
ATOM     25  C   UNL     1       1.724  13.861  18.470  0.00  0.00    +0.000 C 
ATOM     26  N   UNL     1       0.366  13.806  18.790  0.00  0.00    +0.000 N 
ATOM     27  C   UNL     1      -0.241  14.743  19.622  0.00  0.00    +0.000 C 
ATOM     28  C   UNL     1       0.283  15.775  20.293  0.00  0.00    +0.000 C 
ATOM     29  C   UNL     1       1.705  16.231  20.259  0.00  0.00    +0.000 C 
ATOM     30  O   UNL     1       2.318  16.134  18.977  0.00  0.00    +0.000 OA
ENDBRANCH  22  26
ENDBRANCH   1  22
TORSDOF 4
ENDMDL
MODEL 6
REMARK VINA RESULT:      -8.3      0.951      1.936
REMARK  Name = 
REMARK  6 active torsions:
REMARK  status: ('A' for Active; 'I' for Inactive)
REMARK    1  A    between atoms: C_1  and  C_2
REMARK    2  A    between atoms: N_4  and  C_5
REMARK    3  A    between atoms: C_5  and  C_6
REMARK    4  A    between atoms: C_10  and  C_11
REMARK    5  A    between atoms: N_17  and  C_18
REMARK    6  A    between atoms: C_22  and  C_23
REMARK                            x       y       z     vdW  Elec       q    Type
REMARK                         _______ _______ _______ _____ _____    ______ ____
ROOT
ATOM      1  C   UNL     1      -0.404  11.483  19.490  0.00  0.00    +0.000 A 
ATOM      2  C   UNL     1       0.439  10.767  18.634  0.00  0.00    +0.000 A 
ATOM      3  C   UNL     1       1.035   9.620  19.121  0.00  0.00    +0.000 A 
ATOM      4  C   UNL     1       0.853   9.159  20.418  0.00  0.00    +0.000 A 
ATOM      5  C   UNL     1       0.062   9.874  21.312  0.00  0.00    +0.000 A 
ATOM      6  C   UNL     1      -0.568  11.042  20.826  0.00  0.00    +0.000 A 
ATOM      7  C   UNL     1       1.583   7.862  20.583  0.00  0.00    +0.000 C 
ATOM      8  N   UNL     1       2.201   7.647  19.282  0.00  0.00    +0.000 N 
ATOM      9  C   UNL     1       1.892   8.680  18.394  0.00  0.00    +0.000 C 
ATOM     10  O   UNL     1       2.197   8.868  17.231  0.00  0.00    +0.000 OA
ENDROOT
BRANCH   8  11
ATOM     11  C   UNL     1       3.012   6.514  19.001  0.00  0.00    +0.000 A 
ATOM     12  C   UNL     1       3.052   5.413  19.863  0.00  0.00    +0.000 A 
ATOM     13  C   UNL     1       3.838   4.293  19.577  0.00  0.00    +0.000 A 
ATOM     14  C   UNL     1       4.615   4.259  18.427  0.00  0.00    +0.000 A 
ATOM     15  C   UNL     1       4.612   5.349  17.552  0.00  0.00    +0.000 A 
ATOM     16  C   UNL     1       5.475   5.346  16.324  0.00  0.00    +0.000 C 
ATOM     17  C   UNL     1       3.806   6.465  17.843  0.00  0.00    +0.000 A 
ENDBRANCH   8  11
BRANCH   5  18
ATOM     18  C   UNL     1      -0.157   9.443  22.738  0.00  0.00    +0.000 C 
ATOM     19  F   UNL     1       0.995   9.278  23.442  0.00  0.00    +0.000 F 
ATOM     20  F   UNL     1      -0.895  10.346  23.441  0.00  0.00    +0.000 F 
ATOM     21  F   UNL     1      -0.824   8.261  22.829  0.00  0.00    +0.000 F 
ENDBRANCH   5  18
BRANCH   1  22
ATOM     22  C   UNL     1      -1.222  12.640  18.944  0.00  0.00    +0.000 C 
BRANCH  22  26
ATOM     23  C   UNL     1      -5.972  11.334  19.065  0.00  0.00    +0.000 C 
ATOM     24  C   UNL     1      -4.769  11.554  18.202  0.00  0.00    +0.000 C 
ATOM     25  C   UNL     1      -3.577  11.908  18.714  0.00  0.00    +0.000 C 
ATOM     26  N   UNL     1      -2.338  12.123  18.109  0.00  0.00    +0.000 N 
ATOM     27  C   UNL     1      -2.050  11.673  16.823  0.00  0.00    +0.000 C 
ATOM     28  C   UNL     1      -2.786  10.951  15.971  0.00  0.00    +0.000 C 
ATOM     29  C   UNL     1      -4.190  10.484  16.181  0.00  0.00    +0.000 C 
ATOM     30  O   UNL     1      -5.022  11.424  16.855  0.00  0.00    +0.000 OA
ENDBRANCH  22  26
ENDBRANCH   1  22
TORSDOF 4
ENDMDL
MODEL 7
REMARK VINA RESULT:      -8.2      2.616      3.903
REMARK  Name = 
REMARK  6 active torsions:
REMARK  status: ('A' for Active; 'I' for Inactive)
REMARK    1  A    between atoms: C_1  and  C_2
REMARK    2  A    between atoms: N_4  and  C_5
REMARK    3  A    between atoms: C_5  and  C_6
REMARK    4  A    between atoms: C_10  and  C_11
REMARK    5  A    between atoms: N_17  and  C_18
REMARK    6  A    between atoms: C_22  and  C_23
REMARK                            x       y       z     vdW  Elec       q    Type
REMARK                         _______ _______ _______ _____ _____    ______ ____
ROOT
ATOM      1  C   UNL     1       0.386  11.395  19.203  0.00  0.00    +0.000 A 
ATOM      2  C   UNL     1       1.144  10.452  18.500  0.00  0.00    +0.000 A 
ATOM      3  C   UNL     1       1.448   9.262  19.132  0.00  0.00    +0.000 A 
ATOM      4  C   UNL     1       1.055   8.969  20.431  0.00  0.00    +0.000 A 
ATOM      5  C   UNL     1       0.344   9.903  21.178  0.00  0.00    +0.000 A 
ATOM      6  C   UNL     1       0.011  11.120  20.541  0.00  0.00    +0.000 A 
ATOM      7  C   UNL     1       1.489   7.576  20.770  0.00  0.00    +0.000 C 
ATOM      8  N   UNL     1       2.170   7.125  19.565  0.00  0.00    +0.000 N 
ATOM      9  C   UNL     1       2.161   8.110  18.575  0.00  0.00    +0.000 C 
ATOM     10  O   UNL     1       2.606   8.127  17.442  0.00  0.00    +0.000 OA
ENDROOT
BRANCH   8  11
ATOM     11  C   UNL     1       2.759   5.835  19.458  0.00  0.00    +0.000 A 
ATOM     12  C   UNL     1       4.146   5.670  19.386  0.00  0.00    +0.000 A 
ATOM     13  C   UNL     1       4.724   4.401  19.297  0.00  0.00    +0.000 A 
ATOM     14  C   UNL     1       3.921   3.267  19.262  0.00  0.00    +0.000 A 
ATOM     15  C   UNL     1       2.531   3.397  19.315  0.00  0.00    +0.000 A 
ATOM     16  C   UNL     1       1.647   2.187  19.238  0.00  0.00    +0.000 C 
ATOM     17  C   UNL     1       1.961   4.679  19.418  0.00  0.00    +0.000 A 
ENDBRANCH   8  11
BRANCH   5  18
ATOM     18  C   UNL     1      -0.091   9.658  22.599  0.00  0.00    +0.000 C 
ATOM     19  F   UNL     1      -0.740  10.713  23.161  0.00  0.00    +0.000 F 
ATOM     20  F   UNL     1      -0.942   8.601  22.701  0.00  0.00    +0.000 F 
ATOM     21  F   UNL     1       0.955   9.380  23.423  0.00  0.00    +0.000 F 
ENDBRANCH   5  18
BRANCH   1  22
ATOM     22  C   UNL     1      -0.126  12.632  18.488  0.00  0.00    +0.000 C 
BRANCH  22  26
ATOM     23  C   UNL     1       0.068  17.355  19.879  0.00  0.00    +0.000 C 
ATOM     24  C   UNL     1       0.858  16.139  19.508  0.00  0.00    +0.000 C 
ATOM     25  C   UNL     1       0.268  14.991  19.132  0.00  0.00    +0.000 C 
ATOM     26  N   UNL     1       0.802  13.771  18.714  0.00  0.00    +0.000 N 
ATOM     27  C   UNL     1       2.124  13.641  18.297  0.00  0.00    +0.000 C 
ATOM     28  C   UNL     1       3.082  14.563  18.152  0.00  0.00    +0.000 C 
ATOM     29  C   UNL     1       2.977  16.017  18.479  0.00  0.00    +0.000 C 
ATOM     30  O   UNL     1       2.218  16.297  19.651  0.00  0.00    +0.000 OA
ENDBRANCH  22  26
ENDBRANCH   1  22
TORSDOF 4
ENDMDL
MODEL 8
REMARK VINA RESULT:      -8.1      2.449      3.788
REMARK  Name = 
REMARK  6 active torsions:
REMARK  status: ('A' for Active; 'I' for Inactive)
REMARK    1  A    between atoms: C_1  and  C_2
REMARK    2  A    between atoms: N_4  and  C_5
REMARK    3  A    between atoms: C_5  and  C_6
REMARK    4  A    between atoms: C_10  and  C_11
REMARK    5  A    between atoms: N_17  and  C_18
REMARK    6  A    between atoms: C_22  and  C_23
REMARK                            x       y       z     vdW  Elec       q    Type
REMARK                         _______ _______ _______ _____ _____    ______ ____
ROOT
ATOM      1  C   UNL     1       0.087  11.320  19.184  0.00  0.00    +0.000 A 
ATOM      2  C   UNL     1       0.916  10.430  18.492  0.00  0.00    +0.000 A 
ATOM      3  C   UNL     1       1.316   9.279  19.142  0.00  0.00    +0.000 A 
ATOM      4  C   UNL     1       0.951   8.975  20.448  0.00  0.00    +0.000 A 
ATOM      5  C   UNL     1       0.170   9.862  21.182  0.00  0.00    +0.000 A 
ATOM      6  C   UNL     1      -0.261  11.038  20.527  0.00  0.00    +0.000 A 
ATOM      7  C   UNL     1       1.496   7.627  20.807  0.00  0.00    +0.000 C 
ATOM      8  N   UNL     1       2.208   7.213  19.606  0.00  0.00    +0.000 N 
ATOM      9  C   UNL     1       2.118   8.179  18.601  0.00  0.00    +0.000 C 
ATOM     10  O   UNL     1       2.557   8.213  17.467  0.00  0.00    +0.000 OA
ENDROOT
BRANCH   8  11
ATOM     11  C   UNL     1       2.898   5.973  19.518  0.00  0.00    +0.000 A 
ATOM     12  C   UNL     1       2.340   4.791  20.017  0.00  0.00    +0.000 A 
ATOM     13  C   UNL     1       3.013   3.570  19.915  0.00  0.00    +0.000 A 
ATOM     14  C   UNL     1       4.269   3.510  19.324  0.00  0.00    +0.000 A 
ATOM     15  C   UNL     1       4.862   4.675  18.830  0.00  0.00    +0.000 A 
ATOM     16  C   UNL     1       6.235   4.636  18.224  0.00  0.00    +0.000 C 
ATOM     17  C   UNL     1       4.170   5.896  18.926  0.00  0.00    +0.000 A 
ENDBRANCH   8  11
BRANCH   5  18
ATOM     18  C   UNL     1      -0.241   9.605  22.608  0.00  0.00    +0.000 C 
ATOM     19  F   UNL     1       0.808   9.408  23.451  0.00  0.00    +0.000 F 
ATOM     20  F   UNL     1      -0.951  10.642  23.133  0.00  0.00    +0.000 F 
ATOM     21  F   UNL     1      -1.032   8.506  22.733  0.00  0.00    +0.000 F 
ENDBRANCH   5  18
BRANCH   1  22
ATOM     22  C   UNL     1      -0.524  12.501  18.451  0.00  0.00    +0.000 C 
BRANCH  22  26
ATOM     23  C   UNL     1       3.966  14.515  18.203  0.00  0.00    +0.000 C 
ATOM     24  C   UNL     1       2.521  14.743  18.522  0.00  0.00    +0.000 C 
ATOM     25  C   UNL     1       1.612  13.756  18.460  0.00  0.00    +0.000 C 
ATOM     26  N   UNL     1       0.246  13.738  18.748  0.00  0.00    +0.000 N 
ATOM     27  C   UNL     1      -0.371  14.739  19.493  0.00  0.00    +0.000 C 
ATOM     28  C   UNL     1       0.147  15.812  20.100  0.00  0.00    +0.000 C 
ATOM     29  C   UNL     1       1.575  16.250  20.070  0.00  0.00    +0.000 C 
ATOM     30  O   UNL     1       2.219  16.054  18.815  0.00  0.00    +0.000 OA
ENDBRANCH  22  26
ENDBRANCH   1  22
TORSDOF 4
ENDMDL
MODEL 9
REMARK VINA RESULT:      -8.1      1.507      1.940
REMARK  Name = 
REMARK  6 active torsions:
REMARK  status: ('A' for Active; 'I' for Inactive)
REMARK    1  A    between atoms: C_1  and  C_2
REMARK    2  A    between atoms: N_4  and  C_5
REMARK    3  A    between atoms: C_5  and  C_6
REMARK    4  A    between atoms: C_10  and  C_11
REMARK    5  A    between atoms: N_17  and  C_18
REMARK    6  A    between atoms: C_22  and  C_23
REMARK                            x       y       z     vdW  Elec       q    Type
REMARK                         _______ _______ _______ _____ _____    ______ ____
ROOT
ATOM      1  C   UNL     1      -0.333  11.580  19.517  0.00  0.00    +0.000 A 
ATOM      2  C   UNL     1       0.489  10.853  18.648  0.00  0.00    +0.000 A 
ATOM      3  C   UNL     1       1.052   9.682  19.116  0.00  0.00    +0.000 A 
ATOM      4  C   UNL     1       0.856   9.206  20.406  0.00  0.00    +0.000 A 
ATOM      5  C   UNL     1       0.086   9.929  21.312  0.00  0.00    +0.000 A 
ATOM      6  C   UNL     1      -0.510  11.121  20.845  0.00  0.00    +0.000 A 
ATOM      7  C   UNL     1       1.549   7.885  20.550  0.00  0.00    +0.000 C 
ATOM      8  N   UNL     1       2.160   7.674  19.245  0.00  0.00    +0.000 N 
ATOM      9  C   UNL     1       1.881   8.730  18.374  0.00  0.00    +0.000 C 
ATOM     10  O   UNL     1       2.191   8.928  17.214  0.00  0.00    +0.000 OA
ENDROOT
BRANCH   8  11
ATOM     11  C   UNL     1       2.938   6.523  18.945  0.00  0.00    +0.000 A 
ATOM     12  C   UNL     1       2.998   5.434  19.821  0.00  0.00    +0.000 A 
ATOM     13  C   UNL     1       3.751   4.296  19.517  0.00  0.00    +0.000 A 
ATOM     14  C   UNL     1       4.475   4.232  18.334  0.00  0.00    +0.000 A 
ATOM     15  C   UNL     1       4.451   5.309  17.444  0.00  0.00    +0.000 A 
ATOM     16  C   UNL     1       5.258   5.274  16.179  0.00  0.00    +0.000 C 
ATOM     17  C   UNL     1       3.679   6.443  17.754  0.00  0.00    +0.000 A 
ENDBRANCH   8  11
BRANCH   5  18
ATOM     18  C   UNL     1      -0.146   9.481  22.731  0.00  0.00    +0.000 C 
ATOM     19  F   UNL     1      -0.889  10.353  23.464  0.00  0.00    +0.000 F 
ATOM     20  F   UNL     1      -0.801   8.289  22.794  0.00  0.00    +0.000 F 
ATOM     21  F   UNL     1       1.015   9.309  23.420  0.00  0.00    +0.000 F 
ENDBRANCH   5  18
BRANCH   1  22
ATOM     22  C   UNL     1      -1.117  12.768  18.990  0.00  0.00    +0.000 C 
BRANCH  22  26
ATOM     23  C   UNL     1      -5.648  11.083  18.030  0.00  0.00    +0.000 C 
ATOM     24  C   UNL     1      -4.769  11.780  19.022  0.00  0.00    +0.000 C 
ATOM     25  C   UNL     1      -3.482  12.063  18.760  0.00  0.00    +0.000 C 
ATOM     26  N   UNL     1      -2.511  12.728  19.510  0.00  0.00    +0.000 N 
ATOM     27  C   UNL     1      -2.833  13.531  20.601  0.00  0.00    +0.000 C 
ATOM     28  C   UNL     1      -4.025  13.873  21.104  0.00  0.00    +0.000 C 
ATOM     29  C   UNL     1      -5.360  13.401  20.630  0.00  0.00    +0.000 C 
ATOM     30  O   UNL     1      -5.386  12.036  20.225  0.00  0.00    +0.000 OA
ENDBRANCH  22  26
ENDBRANCH   1  22
TORSDOF 4
ENDMDL
