MODEL 1
REMARK VINA RESULT:      -9.0      0.000      0.000
REMARK  Name = 
REMARK  5 active torsions:
REMARK  status: ('A' for Active; 'I' for Inactive)
REMARK    1  A    between atoms: S_2  and  N_4
REMARK    2  A    between atoms: S_2  and  C_17
REMARK    3  A    between atoms: N_4  and  C_5
REMARK    4  A    between atoms: C_5  and  C_6
REMARK    5  A    between atoms: C_11  and  N_12
REMARK                            x       y       z     vdW  Elec       q    Type
REMARK                         _______ _______ _______ _____ _____    ______ ____
ROOT
ATOM      1  N   UNL     1       4.021   5.397  17.101  0.00  0.00    +0.000 NA
ATOM      2  H   UNL     1       4.698   6.165  17.018  0.00  0.00    +0.000 HD
ENDROOT
BRANCH   1   4
ATOM      3  O   UNL     1       2.529   4.273  18.814  0.00  0.00    +0.000 OA
ATOM      4  S   UNL     1       3.518   5.322  18.728  0.00  0.00    +0.000 S 
ATOM      5  O   UNL     1       4.688   5.338  19.581  0.00  0.00    +0.000 OA
BRANCH   4   6
ATOM      6  C   UNL     1       2.657   6.867  18.945  0.00  0.00    +0.000 A 
ATOM      7  C   UNL     1       2.532   7.731  17.855  0.00  0.00    +0.000 A 
ATOM      8  C   UNL     1       1.833   8.929  17.998  0.00  0.00    +0.000 A 
ATOM      9  C   UNL     1       1.251   9.277  19.227  0.00  0.00    +0.000 A 
ATOM     10  C   UNL     1       0.563  10.491  19.381  0.00  0.00    +0.000 A 
ATOM     11  C   UNL     1      -0.012  10.835  20.605  0.00  0.00    +0.000 A 
ATOM     12  C   UNL     1       0.088   9.965  21.686  0.00  0.00    +0.000 A 
ATOM     13  C   UNL     1       0.766   8.752  21.550  0.00  0.00    +0.000 A 
ATOM     14  C   UNL     1       1.360   8.392  20.328  0.00  0.00    +0.000 A 
ATOM     15  C   UNL     1       2.060   7.181  20.172  0.00  0.00    +0.000 A 
ENDBRANCH   4   6
ENDBRANCH   1   4
BRANCH   1  16
ATOM     16  C   UNL     1       4.635   4.155  16.584  0.00  0.00    +0.000 C 
BRANCH  16  17
ATOM     17  C   UNL     1       5.629   4.396  15.465  0.00  0.00    +0.000 A 
ATOM     18  C   UNL     1       5.313   3.893  14.187  0.00  0.00    +0.000 A 
ATOM     19  C   UNL     1       6.184   4.057  13.115  0.00  0.00    +0.000 A 
ATOM     20  C   UNL     1       7.357   4.746  13.332  0.00  0.00    +0.000 A 
ATOM     21  N   UNL     1       7.714   5.242  14.535  0.00  0.00    +0.000 NA
ATOM     22  C   UNL     1       6.869   5.046  15.592  0.00  0.00    +0.000 A 
BRANCH  22  23
ATOM     23  N   UNL     1       7.366   5.491  16.852  0.00  0.00    +0.000 N 
ATOM     24  C   UNL     1       7.685   4.706  17.935  0.00  0.00    +0.000 A 
ATOM     25  N   UNL     1       7.980   5.452  18.975  0.00  0.00    +0.000 NA
ATOM     26  C   UNL     1       7.851   6.712  18.485  0.00  0.00    +0.000 A 
ATOM     27  N   UNL     1       7.554   6.796  17.187  0.00  0.00    +0.000 NA
ENDBRANCH  22  23
ENDBRANCH  16  17
ENDBRANCH   1  16
TORSDOF 5
ENDMDL
MODEL 2
REMARK VINA RESULT:      -9.0      0.921      1.750
REMARK  Name = 
REMARK  5 active torsions:
REMARK  status: ('A' for Active; 'I' for Inactive)
REMARK    1  A    between atoms: S_2  and  N_4
REMARK    2  A    between atoms: S_2  and  C_17
REMARK    3  A    between atoms: N_4  and  C_5
REMARK    4  A    between atoms: C_5  and  C_6
REMARK    5  A    between atoms: C_11  and  N_12
REMARK                            x       y       z     vdW  Elec       q    Type
REMARK                         _______ _______ _______ _____ _____    ______ ____
ROOT
ATOM      1  N   UNL     1       4.323   4.733  16.731  0.00  0.00    +0.000 NA
ATOM      2  H   UNL     1       5.082   5.377  16.984  0.00  0.00    +0.000 HD
ENDROOT
BRANCH   1   4
ATOM      3  O   UNL     1       2.564   3.255  17.802  0.00  0.00    +0.000 OA
ATOM      4  S   UNL     1       3.616   4.170  18.177  0.00  0.00    +0.000 S 
ATOM      5  O   UNL     1       4.668   3.787  19.094  0.00  0.00    +0.000 OA
BRANCH   4   6
ATOM      6  C   UNL     1       2.827   5.632  18.823  0.00  0.00    +0.000 A 
ATOM      7  C   UNL     1       2.336   5.613  20.130  0.00  0.00    +0.000 A 
ATOM      8  C   UNL     1       1.745   6.758  20.664  0.00  0.00    +0.000 A 
ATOM      9  C   UNL     1       1.641   7.933  19.902  0.00  0.00    +0.000 A 
ATOM     10  C   UNL     1       1.030   9.082  20.428  0.00  0.00    +0.000 A 
ATOM     11  C   UNL     1       0.925  10.247  19.667  0.00  0.00    +0.000 A 
ATOM     12  C   UNL     1       1.438  10.277  18.375  0.00  0.00    +0.000 A 
ATOM     13  C   UNL     1       2.051   9.144  17.836  0.00  0.00    +0.000 A 
ATOM     14  C   UNL     1       2.158   7.959  18.584  0.00  0.00    +0.000 A 
ATOM     15  C   UNL     1       2.760   6.801  18.056  0.00  0.00    +0.000 A 
ENDBRANCH   4   6
ENDBRANCH   1   4
BRANCH   1  16
ATOM     16  C   UNL     1       4.861   3.673  15.851  0.00  0.00    +0.000 C 
BRANCH  16  17
ATOM     17  C   UNL     1       5.898   4.178  14.866  0.00  0.00    +0.000 A 
ATOM     18  C   UNL     1       5.779   3.773  13.522  0.00  0.00    +0.000 A 
ATOM     19  C   UNL     1       6.702   4.178  12.565  0.00  0.00    +0.000 A 
ATOM     20  C   UNL     1       7.727   5.008  12.964  0.00  0.00    +0.000 A 
ATOM     21  N   UNL     1       7.895   5.422  14.237  0.00  0.00    +0.000 NA
ATOM     22  C   UNL     1       7.003   4.989  15.180  0.00  0.00    +0.000 A 
BRANCH  22  23
ATOM     23  N   UNL     1       7.311   5.367  16.520  0.00  0.00    +0.000 N 
ATOM     24  C   UNL     1       7.739   4.539  17.530  0.00  0.00    +0.000 A 
ATOM     25  N   UNL     1       7.795   5.192  18.668  0.00  0.00    +0.000 NA
ATOM     26  C   UNL     1       7.407   6.444  18.315  0.00  0.00    +0.000 A 
ATOM     27  N   UNL     1       7.174   6.627  17.014  0.00  0.00    +0.000 NA
ENDBRANCH  22  23
ENDBRANCH  16  17
ENDBRANCH   1  16
TORSDOF 5
ENDMDL
MODEL 3
REMARK VINA RESULT:      -8.8      1.548      2.533
REMARK  Name = 
REMARK  5 active torsions:
REMARK  status: ('A' for Active; 'I' for Inactive)
REMARK    1  A    between atoms: S_2  and  N_4
REMARK    2  A    between atoms: S_2  and  C_17
REMARK    3  A    between atoms: N_4  and  C_5
REMARK    4  A    between atoms: C_5  and  C_6
REMARK    5  A    between atoms: C_11  and  N_12
REMARK                            x       y       z     vdW  Elec       q    Type
REMARK                         _______ _______ _______ _____ _____    ______ ____
ROOT
ATOM      1  N   UNL     1       4.720   3.067  17.289  0.00  0.00    +0.000 NA
ATOM      2  H   UNL     1       4.992   2.277  16.691  0.00  0.00    +0.000 HD
ENDROOT
BRANCH   1   4
ATOM      3  O   UNL     1       2.351   2.163  17.265  0.00  0.00    +0.000 OA
ATOM      4  S   UNL     1       3.365   2.584  18.204  0.00  0.00    +0.000 S 
ATOM      5  O   UNL     1       3.810   1.724  19.281  0.00  0.00    +0.000 OA
BRANCH   4   6
ATOM      6  C   UNL     1       2.807   4.118  18.919  0.00  0.00    +0.000 A 
ATOM      7  C   UNL     1       2.491   4.155  20.278  0.00  0.00    +0.000 A 
ATOM      8  C   UNL     1       2.083   5.355  20.862  0.00  0.00    +0.000 A 
ATOM      9  C   UNL     1       1.990   6.528  20.097  0.00  0.00    +0.000 A 
ATOM     10  C   UNL     1       1.562   7.734  20.676  0.00  0.00    +0.000 A 
ATOM     11  C   UNL     1       1.468   8.898  19.912  0.00  0.00    +0.000 A 
ATOM     12  C   UNL     1       1.807   8.870  18.564  0.00  0.00    +0.000 A 
ATOM     13  C   UNL     1       2.237   7.681  17.972  0.00  0.00    +0.000 A 
ATOM     14  C   UNL     1       2.330   6.496  18.723  0.00  0.00    +0.000 A 
ATOM     15  C   UNL     1       2.748   5.282  18.144  0.00  0.00    +0.000 A 
ENDBRANCH   4   6
ENDBRANCH   1   4
BRANCH   1  16
ATOM     16  C   UNL     1       4.502   4.260  16.442  0.00  0.00    +0.000 C 
BRANCH  16  17
ATOM     17  C   UNL     1       5.604   4.485  15.425  0.00  0.00    +0.000 A 
ATOM     18  C   UNL     1       5.417   3.966  14.129  0.00  0.00    +0.000 A 
ATOM     19  C   UNL     1       6.391   4.114  13.148  0.00  0.00    +0.000 A 
ATOM     20  C   UNL     1       7.538   4.804  13.473  0.00  0.00    +0.000 A 
ATOM     21  N   UNL     1       7.774   5.316  14.699  0.00  0.00    +0.000 NA
ATOM     22  C   UNL     1       6.827   5.134  15.668  0.00  0.00    +0.000 A 
BRANCH  22  23
ATOM     23  N   UNL     1       7.196   5.596  16.966  0.00  0.00    +0.000 N 
ATOM     24  C   UNL     1       7.422   6.899  17.341  0.00  0.00    +0.000 A 
ATOM     25  N   UNL     1       7.878   6.951  18.573  0.00  0.00    +0.000 NA
ATOM     26  C   UNL     1       7.902   5.644  18.938  0.00  0.00    +0.000 A 
ATOM     27  N   UNL     1       7.430   4.785  18.033  0.00  0.00    +0.000 NA
ENDBRANCH  22  23
ENDBRANCH  16  17
ENDBRANCH   1  16
TORSDOF 5
ENDMDL
MODEL 4
REMARK VINA RESULT:      -8.7      0.985      1.802
REMARK  Name = 
REMARK  5 active torsions:
REMARK  status: ('A' for Active; 'I' for Inactive)
REMARK    1  A    between atoms: S_2  and  N_4
REMARK    2  A    between atoms: S_2  and  C_17
REMARK    3  A    between atoms: N_4  and  C_5
REMARK    4  A    between atoms: C_5  and  C_6
REMARK    5  A    between atoms: C_11  and  N_12
REMARK                            x       y       z     vdW  Elec       q    Type
REMARK                         _______ _______ _______ _____ _____    ______ ____
ROOT
ATOM      1  N   UNL     1       3.822   4.823  17.104  0.00  0.00    +0.000 NA
ATOM      2  H   UNL     1       4.328   5.674  17.377  0.00  0.00    +0.000 HD
ENDROOT
BRANCH   1   4
ATOM      3  O   UNL     1       1.639   3.748  17.815  0.00  0.00    +0.000 OA
ATOM      4  S   UNL     1       2.795   4.393  18.394  0.00  0.00    +0.000 S 
ATOM      5  O   UNL     1       3.583   3.757  19.428  0.00  0.00    +0.000 OA
BRANCH   4   6
ATOM      6  C   UNL     1       2.253   5.976  19.010  0.00  0.00    +0.000 A 
ATOM      7  C   UNL     1       1.835   6.078  20.338  0.00  0.00    +0.000 A 
ATOM      8  C   UNL     1       1.439   7.315  20.845  0.00  0.00    +0.000 A 
ATOM      9  C   UNL     1       1.459   8.462  20.036  0.00  0.00    +0.000 A 
ATOM     10  C   UNL     1       1.043   9.706  20.537  0.00  0.00    +0.000 A 
ATOM     11  C   UNL     1       1.062  10.843  19.728  0.00  0.00    +0.000 A 
ATOM     12  C   UNL     1       1.503  10.749  18.413  0.00  0.00    +0.000 A 
ATOM     13  C   UNL     1       1.923   9.521  17.898  0.00  0.00    +0.000 A 
ATOM     14  C   UNL     1       1.903   8.363  18.694  0.00  0.00    +0.000 A 
ATOM     15  C   UNL     1       2.308   7.111  18.192  0.00  0.00    +0.000 A 
ENDBRANCH   4   6
ENDBRANCH   1   4
BRANCH   1  16
ATOM     16  C   UNL     1       4.800   3.782  16.717  0.00  0.00    +0.000 C 
BRANCH  16  17
ATOM     17  C   UNL     1       5.753   4.229  15.626  0.00  0.00    +0.000 A 
ATOM     18  C   UNL     1       5.544   3.727  14.326  0.00  0.00    +0.000 A 
ATOM     19  C   UNL     1       6.387   4.074  13.277  0.00  0.00    +0.000 A 
ATOM     20  C   UNL     1       7.424   4.944  13.539  0.00  0.00    +0.000 A 
ATOM     21  N   UNL     1       7.676   5.449  14.764  0.00  0.00    +0.000 NA
ATOM     22  C   UNL     1       6.863   5.074  15.799  0.00  0.00    +0.000 A 
BRANCH  22  23
ATOM     23  N   UNL     1       7.261   5.551  17.082  0.00  0.00    +0.000 N 
ATOM     24  C   UNL     1       7.428   6.864  17.455  0.00  0.00    +0.000 A 
ATOM     25  N   UNL     1       7.933   6.937  18.666  0.00  0.00    +0.000 NA
ATOM     26  C   UNL     1       8.048   5.633  19.022  0.00  0.00    +0.000 A 
ATOM     27  N   UNL     1       7.587   4.752  18.133  0.00  0.00    +0.000 NA
ENDBRANCH  22  23
ENDBRANCH  16  17
ENDBRANCH   1  16
TORSDOF 5
ENDMDL
MODEL 5
REMARK VINA RESULT:      -8.6      3.512      7.258
REMARK  Name = 
REMARK  5 active torsions:
REMARK  status: ('A' for Active; 'I' for Inactive)
REMARK    1  A    between atoms: S_2  and  N_4
REMARK    2  A    between atoms: S_2  and  C_17
REMARK    3  A    between atoms: N_4  and  C_5
REMARK    4  A    between atoms: C_5  and  C_6
REMARK    5  A    between atoms: C_11  and  N_12
REMARK                            x       y       z     vdW  Elec       q    Type
REMARK                         _______ _______ _______ _____ _____    ______ ____
ROOT
ATOM      1  N   UNL     1       1.143   5.035  20.479  0.00  0.00    +0.000 NA
ATOM      2  H   UNL     1       0.443   5.006  21.230  0.00  0.00    +0.000 HD
ENDROOT
BRANCH   1   4
ATOM      3  O   UNL     1       2.591   3.246  21.542  0.00  0.00    +0.000 OA
ATOM      4  S   UNL     1       1.821   3.477  20.342  0.00  0.00    +0.000 S 
ATOM      5  O   UNL     1       0.794   2.555  19.907  0.00  0.00    +0.000 OA
BRANCH   4   6
ATOM      6  C   UNL     1       2.987   3.672  19.007  0.00  0.00    +0.000 A 
ATOM      7  C   UNL     1       2.543   3.513  17.693  0.00  0.00    +0.000 A 
ATOM      8  C   UNL     1       3.433   3.694  16.635  0.00  0.00    +0.000 A 
ATOM      9  C   UNL     1       4.773   4.038  16.876  0.00  0.00    +0.000 A 
ATOM     10  C   UNL     1       5.677   4.203  15.815  0.00  0.00    +0.000 A 
ATOM     11  C   UNL     1       7.009   4.541  16.059  0.00  0.00    +0.000 A 
ATOM     12  C   UNL     1       7.448   4.726  17.365  0.00  0.00    +0.000 A 
ATOM     13  C   UNL     1       6.562   4.569  18.433  0.00  0.00    +0.000 A 
ATOM     14  C   UNL     1       5.219   4.219  18.208  0.00  0.00    +0.000 A 
ATOM     15  C   UNL     1       4.311   4.042  19.270  0.00  0.00    +0.000 A 
ENDBRANCH   4   6
ENDBRANCH   1   4
BRANCH   1  16
ATOM     16  C   UNL     1       2.116   6.111  20.768  0.00  0.00    +0.000 C 
BRANCH  16  17
ATOM     17  C   UNL     1       2.018   7.283  19.810  0.00  0.00    +0.000 A 
ATOM     18  C   UNL     1       2.661   7.166  18.562  0.00  0.00    +0.000 A 
ATOM     19  C   UNL     1       2.633   8.206  17.640  0.00  0.00    +0.000 A 
ATOM     20  C   UNL     1       1.938   9.348  17.971  0.00  0.00    +0.000 A 
ATOM     21  N   UNL     1       1.311   9.518  19.154  0.00  0.00    +0.000 NA
ATOM     22  C   UNL     1       1.373   8.505  20.070  0.00  0.00    +0.000 A 
BRANCH  22  23
ATOM     23  N   UNL     1       0.791   8.801  21.338  0.00  0.00    +0.000 N 
ATOM     24  C   UNL     1      -0.525   8.633  21.697  0.00  0.00    +0.000 A 
ATOM     25  N   UNL     1      -0.744   9.136  22.891  0.00  0.00    +0.000 NA
ATOM     26  C   UNL     1       0.481   9.595  23.252  0.00  0.00    +0.000 A 
ATOM     27  N   UNL     1       1.464   9.353  22.383  0.00  0.00    +0.000 NA
ENDBRANCH  22  23
ENDBRANCH  16  17
ENDBRANCH   1  16
TORSDOF 5
ENDMDL
MODEL 6
REMARK VINA RESULT:      -8.4      1.517      2.449
REMARK  Name = 
REMARK  5 active torsions:
REMARK  status: ('A' for Active; 'I' for Inactive)
REMARK    1  A    between atoms: S_2  and  N_4
REMARK    2  A    between atoms: S_2  and  C_17
REMARK    3  A    between atoms: N_4  and  C_5
REMARK    4  A    between atoms: C_5  and  C_6
REMARK    5  A    between atoms: C_11  and  N_12
REMARK                            x       y       z     vdW  Elec       q    Type
REMARK                         _______ _______ _______ _____ _____    ______ ____
ROOT
ATOM      1  N   UNL     1       4.528   3.205  18.145  0.00  0.00    +0.000 NA
ATOM      2  H   UNL     1       4.815   2.584  17.379  0.00  0.00    +0.000 HD
ENDROOT
BRANCH   1   4
ATOM      3  O   UNL     1       2.311   3.036  16.928  0.00  0.00    +0.000 OA
ATOM      4  S   UNL     1       2.830   3.122  18.273  0.00  0.00    +0.000 S 
ATOM      5  O   UNL     1       2.484   2.148  19.286  0.00  0.00    +0.000 OA
BRANCH   4   6
ATOM      6  C   UNL     1       2.403   4.738  18.893  0.00  0.00    +0.000 A 
ATOM      7  C   UNL     1       2.144   4.892  20.256  0.00  0.00    +0.000 A 
ATOM      8  C   UNL     1       1.840   6.155  20.764  0.00  0.00    +0.000 A 
ATOM      9  C   UNL     1       1.795   7.275  19.920  0.00  0.00    +0.000 A 
ATOM     10  C   UNL     1       1.471   8.545  20.423  0.00  0.00    +0.000 A 
ATOM     11  C   UNL     1       1.424   9.656  19.580  0.00  0.00    +0.000 A 
ATOM     12  C   UNL     1       1.707   9.510  18.227  0.00  0.00    +0.000 A 
ATOM     13  C   UNL     1       2.034   8.255  17.709  0.00  0.00    +0.000 A 
ATOM     14  C   UNL     1       2.078   7.123  18.540  0.00  0.00    +0.000 A 
ATOM     15  C   UNL     1       2.391   5.846  18.037  0.00  0.00    +0.000 A 
ENDBRANCH   4   6
ENDBRANCH   1   4
BRANCH   1  16
ATOM     16  C   UNL     1       5.065   4.560  17.894  0.00  0.00    +0.000 C 
BRANCH  16  17
ATOM     17  C   UNL     1       5.806   4.678  16.577  0.00  0.00    +0.000 A 
ATOM     18  C   UNL     1       5.461   3.782  15.546  0.00  0.00    +0.000 A 
ATOM     19  C   UNL     1       6.110   3.816  14.318  0.00  0.00    +0.000 A 
ATOM     20  C   UNL     1       7.089   4.767  14.127  0.00  0.00    +0.000 A 
ATOM     21  N   UNL     1       7.466   5.645  15.079  0.00  0.00    +0.000 NA
ATOM     22  C   UNL     1       6.847   5.582  16.298  0.00  0.00    +0.000 A 
BRANCH  22  23
ATOM     23  N   UNL     1       7.378   6.457  17.290  0.00  0.00    +0.000 N 
ATOM     24  C   UNL     1       7.542   7.818  17.183  0.00  0.00    +0.000 A 
ATOM     25  N   UNL     1       8.185   8.289  18.227  0.00  0.00    +0.000 NA
ATOM     26  C   UNL     1       8.389   7.177  18.979  0.00  0.00    +0.000 A 
ATOM     27  N   UNL     1       7.857   6.052  18.497  0.00  0.00    +0.000 NA
ENDBRANCH  22  23
ENDBRANCH  16  17
ENDBRANCH   1  16
TORSDOF 5
ENDMDL
MODEL 7
REMARK VINA RESULT:      -8.2      3.322      7.319
REMARK  Name = 
REMARK  5 active torsions:
REMARK  status: ('A' for Active; 'I' for Inactive)
REMARK    1  A    between atoms: S_2  and  N_4
REMARK    2  A    between atoms: S_2  and  C_17
REMARK    3  A    between atoms: N_4  and  C_5
REMARK    4  A    between atoms: C_5  and  C_6
REMARK    5  A    between atoms: C_11  and  N_12
REMARK                            x       y       z     vdW  Elec       q    Type
REMARK                         _______ _______ _______ _____ _____    ______ ____
ROOT
ATOM      1  N   UNL     1       1.298   4.935  20.018  0.00  0.00    +0.000 NA
ATOM      2  H   UNL     1       0.407   4.708  20.475  0.00  0.00    +0.000 HD
ENDROOT
BRANCH   1   4
ATOM      3  O   UNL     1       2.756   3.463  21.478  0.00  0.00    +0.000 OA
ATOM      4  S   UNL     1       2.295   3.556  20.112  0.00  0.00    +0.000 S 
ATOM      5  O   UNL     1       1.630   2.451  19.456  0.00  0.00    +0.000 OA
BRANCH   4   6
ATOM      6  C   UNL     1       3.702   4.020  19.119  0.00  0.00    +0.000 A 
ATOM      7  C   UNL     1       4.826   4.556  19.749  0.00  0.00    +0.000 A 
ATOM      8  C   UNL     1       5.948   4.893  18.992  0.00  0.00    +0.000 A 
ATOM      9  C   UNL     1       5.961   4.698  17.602  0.00  0.00    +0.000 A 
ATOM     10  C   UNL     1       7.080   5.053  16.834  0.00  0.00    +0.000 A 
ATOM     11  C   UNL     1       7.088   4.860  15.452  0.00  0.00    +0.000 A 
ATOM     12  C   UNL     1       5.979   4.302  14.825  0.00  0.00    +0.000 A 
ATOM     13  C   UNL     1       4.858   3.939  15.574  0.00  0.00    +0.000 A 
ATOM     14  C   UNL     1       4.827   4.135  16.966  0.00  0.00    +0.000 A 
ATOM     15  C   UNL     1       3.702   3.789  17.738  0.00  0.00    +0.000 A 
ENDBRANCH   4   6
ENDBRANCH   1   4
BRANCH   1  16
ATOM     16  C   UNL     1       1.863   6.152  20.639  0.00  0.00    +0.000 C 
BRANCH  16  17
ATOM     17  C   UNL     1       1.901   7.344  19.703  0.00  0.00    +0.000 A 
ATOM     18  C   UNL     1       2.552   7.184  18.463  0.00  0.00    +0.000 A 
ATOM     19  C   UNL     1       2.646   8.237  17.560  0.00  0.00    +0.000 A 
ATOM     20  C   UNL     1       2.063   9.438  17.901  0.00  0.00    +0.000 A 
ATOM     21  N   UNL     1       1.434   9.650  19.076  0.00  0.00    +0.000 NA
ATOM     22  C   UNL     1       1.378   8.620  19.974  0.00  0.00    +0.000 A 
BRANCH  22  23
ATOM     23  N   UNL     1       0.805   8.953  21.237  0.00  0.00    +0.000 N 
ATOM     24  C   UNL     1       1.470   9.437  22.339  0.00  0.00    +0.000 A 
ATOM     25  N   UNL     1       0.662   9.502  23.373  0.00  0.00    +0.000 NA
ATOM     26  C   UNL     1      -0.516   9.062  22.860  0.00  0.00    +0.000 A 
ATOM     27  N   UNL     1      -0.507   8.786  21.555  0.00  0.00    +0.000 NA
ENDBRANCH  22  23
ENDBRANCH  16  17
ENDBRANCH   1  16
TORSDOF 5
ENDMDL
MODEL 8
REMARK VINA RESULT:      -8.1      1.055      1.407
REMARK  Name = 
REMARK  5 active torsions:
REMARK  status: ('A' for Active; 'I' for Inactive)
REMARK    1  A    between atoms: S_2  and  N_4
REMARK    2  A    between atoms: S_2  and  C_17
REMARK    3  A    between atoms: N_4  and  C_5
REMARK    4  A    between atoms: C_5  and  C_6
REMARK    5  A    between atoms: C_11  and  N_12
REMARK                            x       y       z     vdW  Elec       q    Type
REMARK                         _______ _______ _______ _____ _____    ______ ____
ROOT
ATOM      1  N   UNL     1       4.720   5.439  18.885  0.00  0.00    +0.000 NA
ATOM      2  H   UNL     1       5.103   5.710  19.799  0.00  0.00    +0.000 HD
ENDROOT
BRANCH   1   4
ATOM      3  O   UNL     1       2.563   4.622  17.833  0.00  0.00    +0.000 OA
ATOM      4  S   UNL     1       3.056   5.131  19.092  0.00  0.00    +0.000 S 
ATOM      5  O   UNL     1       2.864   4.410  20.333  0.00  0.00    +0.000 OA
BRANCH   4   6
ATOM      6  C   UNL     1       2.376   6.766  19.294  0.00  0.00    +0.000 A 
ATOM      7  C   UNL     1       2.372   7.636  18.202  0.00  0.00    +0.000 A 
ATOM      8  C   UNL     1       1.814   8.908  18.333  0.00  0.00    +0.000 A 
ATOM      9  C   UNL     1       1.252   9.323  19.550  0.00  0.00    +0.000 A 
ATOM     10  C   UNL     1       0.706  10.608  19.692  0.00  0.00    +0.000 A 
ATOM     11  C   UNL     1       0.152  11.018  20.905  0.00  0.00    +0.000 A 
ATOM     12  C   UNL     1       0.130  10.144  21.987  0.00  0.00    +0.000 A 
ATOM     13  C   UNL     1       0.666   8.861  21.863  0.00  0.00    +0.000 A 
ATOM     14  C   UNL     1       1.237   8.433  20.652  0.00  0.00    +0.000 A 
ATOM     15  C   UNL     1       1.796   7.148  20.509  0.00  0.00    +0.000 A 
ENDBRANCH   4   6
ENDBRANCH   1   4
BRANCH   1  16
ATOM     16  C   UNL     1       5.500   4.300  18.353  0.00  0.00    +0.000 C 
BRANCH  16  17
ATOM     17  C   UNL     1       5.999   4.522  16.939  0.00  0.00    +0.000 A 
ATOM     18  C   UNL     1       5.625   3.585  15.956  0.00  0.00    +0.000 A 
ATOM     19  C   UNL     1       6.060   3.709  14.642  0.00  0.00    +0.000 A 
ATOM     20  C   UNL     1       6.852   4.790  14.321  0.00  0.00    +0.000 A 
ATOM     21  N   UNL     1       7.248   5.714  15.222  0.00  0.00    +0.000 NA
ATOM     22  C   UNL     1       6.845   5.564  16.520  0.00  0.00    +0.000 A 
BRANCH  22  23
ATOM     23  N   UNL     1       7.398   6.507  17.436  0.00  0.00    +0.000 N 
ATOM     24  C   UNL     1       7.541   7.860  17.236  0.00  0.00    +0.000 A 
ATOM     25  N   UNL     1       8.213   8.403  18.226  0.00  0.00    +0.000 NA
ATOM     26  C   UNL     1       8.456   7.344  19.039  0.00  0.00    +0.000 A 
ATOM     27  N   UNL     1       7.922   6.185  18.649  0.00  0.00    +0.000 NA
ENDBRANCH  22  23
ENDBRANCH  16  17
ENDBRANCH   1  16
TORSDOF 5
ENDMDL
MODEL 9
REMARK VINA RESULT:      -8.1      1.695      3.660
REMARK  Name = 
REMARK  5 active torsions:
REMARK  status: ('A' for Active; 'I' for Inactive)
REMARK    1  A    between atoms: S_2  and  N_4
REMARK    2  A    between atoms: S_2  and  C_17
REMARK    3  A    between atoms: N_4  and  C_5
REMARK    4  A    between atoms: C_5  and  C_6
REMARK    5  A    between atoms: C_11  and  N_12
REMARK                            x       y       z     vdW  Elec       q    Type
REMARK                         _______ _______ _______ _____ _____    ______ ____
ROOT
ATOM      1  N   UNL     1       4.466   3.006  18.305  0.00  0.00    +0.000 NA
ATOM      2  H   UNL     1       4.821   2.074  18.548  0.00  0.00    +0.000 HD
ENDROOT
BRANCH   1   4
ATOM      3  O   UNL     1       2.272   2.846  17.044  0.00  0.00    +0.000 OA
ATOM      4  S   UNL     1       2.765   2.954  18.398  0.00  0.00    +0.000 S 
ATOM      5  O   UNL     1       2.380   2.009  19.425  0.00  0.00    +0.000 OA
BRANCH   4   6
ATOM      6  C   UNL     1       2.352   4.590  18.972  0.00  0.00    +0.000 A 
ATOM      7  C   UNL     1       2.027   4.773  20.318  0.00  0.00    +0.000 A 
ATOM      8  C   UNL     1       1.733   6.051  20.791  0.00  0.00    +0.000 A 
ATOM      9  C   UNL     1       1.763   7.159  19.930  0.00  0.00    +0.000 A 
ATOM     10  C   UNL     1       1.450   8.446  20.398  0.00  0.00    +0.000 A 
ATOM     11  C   UNL     1       1.478   9.544  19.538  0.00  0.00    +0.000 A 
ATOM     12  C   UNL     1       1.827   9.369  18.204  0.00  0.00    +0.000 A 
ATOM     13  C   UNL     1       2.144   8.098  17.721  0.00  0.00    +0.000 A 
ATOM     14  C   UNL     1       2.113   6.978  18.570  0.00  0.00    +0.000 A 
ATOM     15  C   UNL     1       2.416   5.685  18.102  0.00  0.00    +0.000 A 
ENDBRANCH   4   6
ENDBRANCH   1   4
BRANCH   1  16
ATOM     16  C   UNL     1       5.002   3.397  16.983  0.00  0.00    +0.000 C 
BRANCH  16  17
ATOM     17  C   UNL     1       5.907   4.613  17.037  0.00  0.00    +0.000 A 
ATOM     18  C   UNL     1       6.005   5.304  18.261  0.00  0.00    +0.000 A 
ATOM     19  C   UNL     1       6.798   6.439  18.383  0.00  0.00    +0.000 A 
ATOM     20  C   UNL     1       7.506   6.857  17.277  0.00  0.00    +0.000 A 
ATOM     21  N   UNL     1       7.445   6.240  16.080  0.00  0.00    +0.000 NA
ATOM     22  C   UNL     1       6.634   5.145  15.958  0.00  0.00    +0.000 A 
BRANCH  22  23
ATOM     23  N   UNL     1       6.527   4.618  14.637  0.00  0.00    +0.000 N 
ATOM     24  C   UNL     1       7.450   4.742  13.626  0.00  0.00    +0.000 A 
ATOM     25  N   UNL     1       6.970   4.255  12.503  0.00  0.00    +0.000 NA
ATOM     26  C   UNL     1       5.740   3.816  12.869  0.00  0.00    +0.000 A 
ATOM     27  N   UNL     1       5.446   3.941  14.164  0.00  0.00    +0.000 NA
ENDBRANCH  22  23
ENDBRANCH  16  17
ENDBRANCH   1  16
TORSDOF 5
ENDMDL
