MODEL 1
REMARK VINA RESULT:      -8.5      0.000      0.000
REMARK  Name = 
REMARK  5 active torsions:
REMARK  status: ('A' for Active; 'I' for Inactive)
REMARK    1  A    between atoms: C_2  and  C_24
REMARK    2  A    between atoms: N_3  and  C_4
REMARK    3  A    between atoms: C_4  and  C_5
REMARK    4  A    between atoms: N_10  and  S_11
REMARK    5  A    between atoms: S_11  and  C_14
REMARK                            x       y       z     vdW  Elec       q    Type
REMARK                         _______ _______ _______ _____ _____    ______ ____
ROOT
ATOM      1  C   UNL     1       1.227   8.409  20.584  0.00  0.00    +0.000 C 
ATOM      2  O   UNL     1       0.476   8.265  21.557  0.00  0.00    +0.000 OA
ATOM      3  N   UNL     1       1.880   7.337  19.995  0.00  0.00    +0.000 N 
ATOM      4  C   UNL     1       2.791   7.455  18.843  0.00  0.00    +0.000 C 
ATOM      5  C   UNL     1       2.600   6.292  17.851  0.00  0.00    +0.000 C 
ATOM      6  N   UNL     1       2.699   4.960  18.531  0.00  0.00    +0.000 NA
ATOM      7  C   UNL     1       1.678   4.888  19.637  0.00  0.00    +0.000 C 
ATOM      8  C   UNL     1       1.868   6.023  20.655  0.00  0.00    +0.000 C 
ENDROOT
BRANCH   6   9
ATOM      9  S   UNL     1       4.277   4.439  18.993  0.00  0.00    +0.000 S 
ATOM     10  O   UNL     1       4.801   5.370  19.968  0.00  0.00    +0.000 OA
ATOM     11  O   UNL     1       4.187   3.039  19.328  0.00  0.00    +0.000 OA
BRANCH   9  12
ATOM     12  C   UNL     1       5.254   4.589  17.538  0.00  0.00    +0.000 A 
ATOM     13  C   UNL     1       6.555   5.072  17.605  0.00  0.00    +0.000 A 
ATOM     14  F   UNL     1       7.054   5.578  18.739  0.00  0.00    +0.000 F 
ATOM     15  C   UNL     1       7.385   5.041  16.484  0.00  0.00    +0.000 A 
ATOM     16  C   UNL     1       6.930   4.500  15.283  0.00  0.00    +0.000 A 
ATOM     17  C   UNL     1       5.631   3.993  15.215  0.00  0.00    +0.000 A 
ATOM     18  C   UNL     1       4.803   4.042  16.345  0.00  0.00    +0.000 A 
ATOM     19  F   UNL     1       3.574   3.528  16.214  0.00  0.00    +0.000 F 
ENDBRANCH   9  12
ENDBRANCH   6   9
BRANCH   1  20
ATOM     20  C   UNL     1       1.338   9.772  19.903  0.00  0.00    +0.000 C 
BRANCH  20  23
ATOM     21  O   UNL     1      -0.990  11.322  20.301  0.00  0.00    +0.000 OA
ATOM     22  C   UNL     1      -0.878  10.665  19.273  0.00  0.00    +0.000 C 
ATOM     23  N   UNL     1       0.236   9.919  18.968  0.00  0.00    +0.000 N 
ATOM     24  H   UNL     1       0.323   9.456  18.072  0.00  0.00    +0.000 HD
BRANCH  22  25
ATOM     25  C   UNL     1      -1.953  10.689  18.249  0.00  0.00    +0.000 A 
ATOM     26  C   UNL     1      -3.094  11.467  18.491  0.00  0.00    +0.000 A 
ATOM     27  C   UNL     1      -4.119  11.528  17.544  0.00  0.00    +0.000 A 
ATOM     28  C   UNL     1      -4.010  10.802  16.359  0.00  0.00    +0.000 A 
ATOM     29  C   UNL     1      -2.885  10.015  16.137  0.00  0.00    +0.000 A 
ATOM     30  F   UNL     1      -2.791   9.307  15.004  0.00  0.00    +0.000 F 
ATOM     31  C   UNL     1      -1.855   9.946  17.067  0.00  0.00    +0.000 A 
ENDBRANCH  22  25
ENDBRANCH  20  23
ENDBRANCH   1  20
TORSDOF 5
ENDMDL
MODEL 2
REMARK VINA RESULT:      -8.5      1.256      2.131
REMARK  Name = 
REMARK  5 active torsions:
REMARK  status: ('A' for Active; 'I' for Inactive)
REMARK    1  A    between atoms: C_2  and  C_24
REMARK    2  A    between atoms: N_3  and  C_4
REMARK    3  A    between atoms: C_4  and  C_5
REMARK    4  A    between atoms: N_10  and  S_11
REMARK    5  A    between atoms: S_11  and  C_14
REMARK                            x       y       z     vdW  Elec       q    Type
REMARK                         _______ _______ _______ _____ _____    ______ ____
ROOT
ATOM      1  C   UNL     1       1.059   8.121  20.859  0.00  0.00    +0.000 C 
ATOM      2  O   UNL     1       0.254   7.839  21.755  0.00  0.00    +0.000 OA
ATOM      3  N   UNL     1       1.798   7.149  20.204  0.00  0.00    +0.000 N 
ATOM      4  C   UNL     1       2.777   7.430  19.139  0.00  0.00    +0.000 C 
ATOM      5  C   UNL     1       2.705   6.380  18.014  0.00  0.00    +0.000 C 
ATOM      6  N   UNL     1       2.820   4.985  18.548  0.00  0.00    +0.000 NA
ATOM      7  C   UNL     1       1.733   4.750  19.564  0.00  0.00    +0.000 C 
ATOM      8  C   UNL     1       1.804   5.769  20.712  0.00  0.00    +0.000 C 
ENDROOT
BRANCH   6   9
ATOM      9  S   UNL     1       4.387   4.476  19.060  0.00  0.00    +0.000 S 
ATOM     10  O   UNL     1       4.976   5.531  19.853  0.00  0.00    +0.000 OA
ATOM     11  O   UNL     1       4.246   3.157  19.628  0.00  0.00    +0.000 OA
BRANCH   9  12
ATOM     12  C   UNL     1       5.329   4.333  17.582  0.00  0.00    +0.000 A 
ATOM     13  C   UNL     1       4.718   3.978  16.385  0.00  0.00    +0.000 A 
ATOM     14  F   UNL     1       3.439   3.588  16.343  0.00  0.00    +0.000 F 
ATOM     15  C   UNL     1       5.426   4.021  15.184  0.00  0.00    +0.000 A 
ATOM     16  C   UNL     1       6.753   4.447  15.161  0.00  0.00    +0.000 A 
ATOM     17  C   UNL     1       7.366   4.826  16.356  0.00  0.00    +0.000 A 
ATOM     18  C   UNL     1       6.647   4.765  17.558  0.00  0.00    +0.000 A 
ATOM     19  F   UNL     1       7.291   5.154  18.666  0.00  0.00    +0.000 F 
ENDBRANCH   9  12
ENDBRANCH   6   9
BRANCH   1  20
ATOM     20  C   UNL     1       1.153   9.556  20.343  0.00  0.00    +0.000 C 
BRANCH  20  23
ATOM     21  O   UNL     1       0.526   9.546  17.589  0.00  0.00    +0.000 OA
ATOM     22  C   UNL     1      -0.316   9.927  18.392  0.00  0.00    +0.000 C 
ATOM     23  N   UNL     1      -0.123   9.924  19.753  0.00  0.00    +0.000 N 
ATOM     24  H   UNL     1      -0.873  10.170  20.386  0.00  0.00    +0.000 HD
BRANCH  22  25
ATOM     25  C   UNL     1      -1.652  10.374  17.919  0.00  0.00    +0.000 A 
ATOM     26  C   UNL     1      -2.099   9.942  16.663  0.00  0.00    +0.000 A 
ATOM     27  C   UNL     1      -3.357  10.327  16.192  0.00  0.00    +0.000 A 
ATOM     28  C   UNL     1      -4.163  11.155  16.971  0.00  0.00    +0.000 A 
ATOM     29  C   UNL     1      -3.703  11.596  18.207  0.00  0.00    +0.000 A 
ATOM     30  F   UNL     1      -4.475  12.404  18.946  0.00  0.00    +0.000 F 
ATOM     31  C   UNL     1      -2.456  11.220  18.691  0.00  0.00    +0.000 A 
ENDBRANCH  22  25
ENDBRANCH  20  23
ENDBRANCH   1  20
TORSDOF 5
ENDMDL
MODEL 3
REMARK VINA RESULT:      -8.5      0.347      1.544
REMARK  Name = 
REMARK  5 active torsions:
REMARK  status: ('A' for Active; 'I' for Inactive)
REMARK    1  A    between atoms: C_2  and  C_24
REMARK    2  A    between atoms: N_3  and  C_4
REMARK    3  A    between atoms: C_4  and  C_5
REMARK    4  A    between atoms: N_10  and  S_11
REMARK    5  A    between atoms: S_11  and  C_14
REMARK                            x       y       z     vdW  Elec       q    Type
REMARK                         _______ _______ _______ _____ _____    ______ ____
ROOT
ATOM      1  C   UNL     1       1.200   8.146  20.654  0.00  0.00    +0.000 C 
ATOM      2  O   UNL     1       0.450   7.933  21.615  0.00  0.00    +0.000 OA
ATOM      3  N   UNL     1       1.929   7.132  20.053  0.00  0.00    +0.000 N 
ATOM      4  C   UNL     1       2.843   7.333  18.915  0.00  0.00    +0.000 C 
ATOM      5  C   UNL     1       2.740   6.180  17.898  0.00  0.00    +0.000 C 
ATOM      6  N   UNL     1       2.920   4.844  18.552  0.00  0.00    +0.000 NA
ATOM      7  C   UNL     1       1.894   4.683  19.644  0.00  0.00    +0.000 C 
ATOM      8  C   UNL     1       1.997   5.807  20.687  0.00  0.00    +0.000 C 
ENDROOT
BRANCH   6   9
ATOM      9  S   UNL     1       4.525   4.420  19.024  0.00  0.00    +0.000 S 
ATOM     10  O   UNL     1       5.076   5.505  19.804  0.00  0.00    +0.000 OA
ATOM     11  O   UNL     1       4.469   3.095  19.593  0.00  0.00    +0.000 OA
BRANCH   9  12
ATOM     12  C   UNL     1       5.435   4.329  17.522  0.00  0.00    +0.000 A 
ATOM     13  C   UNL     1       4.811   3.951  16.338  0.00  0.00    +0.000 A 
ATOM     14  F   UNL     1       3.552   3.501  16.326  0.00  0.00    +0.000 F 
ATOM     15  C   UNL     1       5.487   4.034  15.120  0.00  0.00    +0.000 A 
ATOM     16  C   UNL     1       6.791   4.522  15.068  0.00  0.00    +0.000 A 
ATOM     17  C   UNL     1       7.415   4.924  16.249  0.00  0.00    +0.000 A 
ATOM     18  C   UNL     1       6.730   4.824  17.468  0.00  0.00    +0.000 A 
ATOM     19  F   UNL     1       7.382   5.237  18.562  0.00  0.00    +0.000 F 
ENDBRANCH   9  12
ENDBRANCH   6   9
BRANCH   1  20
ATOM     20  C   UNL     1       1.228   9.528  20.001  0.00  0.00    +0.000 C 
BRANCH  20  23
ATOM     21  O   UNL     1      -0.270  11.888  19.602  0.00  0.00    +0.000 OA
ATOM     22  C   UNL     1      -0.631  10.853  19.057  0.00  0.00    +0.000 C 
ATOM     23  N   UNL     1       0.057   9.666  19.151  0.00  0.00    +0.000 N 
ATOM     24  H   UNL     1      -0.229   8.854  18.619  0.00  0.00    +0.000 HD
BRANCH  22  25
ATOM     25  C   UNL     1      -1.839  10.843  18.192  0.00  0.00    +0.000 A 
ATOM     26  C   UNL     1      -2.948  11.609  18.580  0.00  0.00    +0.000 A 
ATOM     27  C   UNL     1      -4.096  11.638  17.785  0.00  0.00    +0.000 A 
ATOM     28  C   UNL     1      -4.141  10.893  16.608  0.00  0.00    +0.000 A 
ATOM     29  C   UNL     1      -3.045  10.119  16.242  0.00  0.00    +0.000 A 
ATOM     30  F   UNL     1      -3.098   9.392  15.118  0.00  0.00    +0.000 F 
ATOM     31  C   UNL     1      -1.895  10.081  17.020  0.00  0.00    +0.000 A 
ENDBRANCH  22  25
ENDBRANCH  20  23
ENDBRANCH   1  20
TORSDOF 5
ENDMDL
MODEL 4
REMARK VINA RESULT:      -8.4      0.854      1.226
REMARK  Name = 
REMARK  5 active torsions:
REMARK  status: ('A' for Active; 'I' for Inactive)
REMARK    1  A    between atoms: C_2  and  C_24
REMARK    2  A    between atoms: N_3  and  C_4
REMARK    3  A    between atoms: C_4  and  C_5
REMARK    4  A    between atoms: N_10  and  S_11
REMARK    5  A    between atoms: S_11  and  C_14
REMARK                            x       y       z     vdW  Elec       q    Type
REMARK                         _______ _______ _______ _____ _____    ______ ____
ROOT
ATOM      1  C   UNL     1       1.221   8.409  20.592  0.00  0.00    +0.000 C 
ATOM      2  O   UNL     1       0.512   8.266  21.595  0.00  0.00    +0.000 OA
ATOM      3  N   UNL     1       1.879   7.343  20.000  0.00  0.00    +0.000 N 
ATOM      4  C   UNL     1       2.743   7.459  18.812  0.00  0.00    +0.000 C 
ATOM      5  C   UNL     1       2.545   6.272  17.851  0.00  0.00    +0.000 C 
ATOM      6  N   UNL     1       2.703   4.957  18.552  0.00  0.00    +0.000 NA
ATOM      7  C   UNL     1       1.727   4.882  19.697  0.00  0.00    +0.000 C 
ATOM      8  C   UNL     1       1.926   6.042  20.685  0.00  0.00    +0.000 C 
ENDROOT
BRANCH   6   9
ATOM      9  S   UNL     1       4.311   4.485  18.964  0.00  0.00    +0.000 S 
ATOM     10  O   UNL     1       4.833   5.427  19.929  0.00  0.00    +0.000 OA
ATOM     11  O   UNL     1       4.276   3.080  19.291  0.00  0.00    +0.000 OA
BRANCH   9  12
ATOM     12  C   UNL     1       5.238   4.675  17.481  0.00  0.00    +0.000 A 
ATOM     13  C   UNL     1       6.494   5.270  17.503  0.00  0.00    +0.000 A 
ATOM     14  F   UNL     1       6.973   5.849  18.610  0.00  0.00    +0.000 F 
ATOM     15  C   UNL     1       7.299   5.277  16.364  0.00  0.00    +0.000 A 
ATOM     16  C   UNL     1       6.866   4.664  15.190  0.00  0.00    +0.000 A 
ATOM     17  C   UNL     1       5.615   4.045  15.167  0.00  0.00    +0.000 A 
ATOM     18  C   UNL     1       4.810   4.057  16.315  0.00  0.00    +0.000 A 
ATOM     19  F   UNL     1       3.627   3.436  16.229  0.00  0.00    +0.000 F 
ENDBRANCH   9  12
ENDBRANCH   6   9
BRANCH   1  20
ATOM     20  C   UNL     1       1.272   9.761  19.881  0.00  0.00    +0.000 C 
BRANCH  20  23
ATOM     21  O   UNL     1      -0.687  11.795  19.852  0.00  0.00    +0.000 OA
ATOM     22  C   UNL     1      -0.783  10.863  19.064  0.00  0.00    +0.000 C 
ATOM     23  N   UNL     1       0.144   9.852  18.969  0.00  0.00    +0.000 N 
ATOM     24  H   UNL     1       0.071   9.144  18.250  0.00  0.00    +0.000 HD
BRANCH  22  25
ATOM     25  C   UNL     1      -1.914  10.809  18.103  0.00  0.00    +0.000 A 
ATOM     26  C   UNL     1      -1.838   9.915  17.026  0.00  0.00    +0.000 A 
ATOM     27  C   UNL     1      -2.889   9.823  16.111  0.00  0.00    +0.000 A 
ATOM     28  C   UNL     1      -4.012  10.635  16.265  0.00  0.00    +0.000 A 
ATOM     29  C   UNL     1      -4.070  11.535  17.323  0.00  0.00    +0.000 A 
ATOM     30  F   UNL     1      -5.144  12.324  17.458  0.00  0.00    +0.000 F 
ATOM     31  C   UNL     1      -3.034  11.636  18.244  0.00  0.00    +0.000 A 
ENDBRANCH  22  25
ENDBRANCH  20  23
ENDBRANCH   1  20
TORSDOF 5
ENDMDL
MODEL 5
REMARK VINA RESULT:      -7.9      2.536      3.022
REMARK  Name = 
REMARK  5 active torsions:
REMARK  status: ('A' for Active; 'I' for Inactive)
REMARK    1  A    between atoms: C_2  and  C_24
REMARK    2  A    between atoms: N_3  and  C_4
REMARK    3  A    between atoms: C_4  and  C_5
REMARK    4  A    between atoms: N_10  and  S_11
REMARK    5  A    between atoms: S_11  and  C_14
REMARK                            x       y       z     vdW  Elec       q    Type
REMARK                         _______ _______ _______ _____ _____    ______ ____
ROOT
ATOM      1  C   UNL     1       1.165   8.151  20.692  0.00  0.00    +0.000 C 
ATOM      2  O   UNL     1       0.524   7.966  21.735  0.00  0.00    +0.000 OA
ATOM      3  N   UNL     1       1.882   7.135  20.081  0.00  0.00    +0.000 N 
ATOM      4  C   UNL     1       2.668   7.305  18.846  0.00  0.00    +0.000 C 
ATOM      5  C   UNL     1       2.525   6.087  17.914  0.00  0.00    +0.000 C 
ATOM      6  N   UNL     1       2.835   4.803  18.623  0.00  0.00    +0.000 NA
ATOM      7  C   UNL     1       1.930   4.666  19.820  0.00  0.00    +0.000 C 
ATOM      8  C   UNL     1       2.078   5.857  20.780  0.00  0.00    +0.000 C 
ENDROOT
BRANCH   6   9
ATOM      9  S   UNL     1       4.497   4.481  18.954  0.00  0.00    +0.000 S 
ATOM     10  O   UNL     1       4.995   5.505  19.846  0.00  0.00    +0.000 OA
ATOM     11  O   UNL     1       4.597   3.095  19.342  0.00  0.00    +0.000 OA
BRANCH   9  12
ATOM     12  C   UNL     1       5.318   4.675  17.411  0.00  0.00    +0.000 A 
ATOM     13  C   UNL     1       6.542   5.328  17.338  0.00  0.00    +0.000 A 
ATOM     14  F   UNL     1       7.062   5.958  18.398  0.00  0.00    +0.000 F 
ATOM     15  C   UNL     1       7.271   5.343  16.149  0.00  0.00    +0.000 A 
ATOM     16  C   UNL     1       6.794   4.680  15.019  0.00  0.00    +0.000 A 
ATOM     17  C   UNL     1       5.576   4.003  15.092  0.00  0.00    +0.000 A 
ATOM     18  C   UNL     1       4.847   4.008  16.290  0.00  0.00    +0.000 A 
ATOM     19  F   UNL     1       3.691   3.330  16.295  0.00  0.00    +0.000 F 
ENDBRANCH   9  12
ENDBRANCH   6   9
BRANCH   1  20
ATOM     20  C   UNL     1       1.059   9.489  19.961  0.00  0.00    +0.000 C 
BRANCH  20  23
ATOM     21  O   UNL     1       0.929  11.984  21.278  0.00  0.00    +0.000 OA
ATOM     22  C   UNL     1      -0.106  11.363  21.072  0.00  0.00    +0.000 C 
ATOM     23  N   UNL     1      -0.150  10.166  20.398  0.00  0.00    +0.000 N 
ATOM     24  H   UNL     1      -1.034   9.725  20.177  0.00  0.00    +0.000 HD
BRANCH  22  25
ATOM     25  C   UNL     1      -1.412  11.921  21.506  0.00  0.00    +0.000 A 
ATOM     26  C   UNL     1      -2.159  12.674  20.590  0.00  0.00    +0.000 A 
ATOM     27  C   UNL     1      -3.400  13.201  20.956  0.00  0.00    +0.000 A 
ATOM     28  C   UNL     1      -3.889  12.986  22.244  0.00  0.00    +0.000 A 
ATOM     29  C   UNL     1      -3.132  12.256  23.154  0.00  0.00    +0.000 A 
ATOM     30  F   UNL     1      -3.599  12.065  24.395  0.00  0.00    +0.000 F 
ATOM     31  C   UNL     1      -1.897  11.723  22.804  0.00  0.00    +0.000 A 
ENDBRANCH  22  25
ENDBRANCH  20  23
ENDBRANCH   1  20
TORSDOF 5
ENDMDL
MODEL 6
REMARK VINA RESULT:      -7.9      2.321      2.766
REMARK  Name = 
REMARK  5 active torsions:
REMARK  status: ('A' for Active; 'I' for Inactive)
REMARK    1  A    between atoms: C_2  and  C_24
REMARK    2  A    between atoms: N_3  and  C_4
REMARK    3  A    between atoms: C_4  and  C_5
REMARK    4  A    between atoms: N_10  and  S_11
REMARK    5  A    between atoms: S_11  and  C_14
REMARK                            x       y       z     vdW  Elec       q    Type
REMARK                         _______ _______ _______ _____ _____    ______ ____
ROOT
ATOM      1  C   UNL     1       1.285   8.138  20.621  0.00  0.00    +0.000 C 
ATOM      2  O   UNL     1       0.689   7.984  21.694  0.00  0.00    +0.000 OA
ATOM      3  N   UNL     1       2.021   7.119  20.037  0.00  0.00    +0.000 N 
ATOM      4  C   UNL     1       2.757   7.253  18.768  0.00  0.00    +0.000 C 
ATOM      5  C   UNL     1       2.631   5.983  17.905  0.00  0.00    +0.000 C 
ATOM      6  N   UNL     1       3.017   4.752  18.668  0.00  0.00    +0.000 NA
ATOM      7  C   UNL     1       2.160   4.643  19.903  0.00  0.00    +0.000 C 
ATOM      8  C   UNL     1       2.293   5.888  20.794  0.00  0.00    +0.000 C 
ENDROOT
BRANCH   6   9
ATOM      9  S   UNL     1       4.701   4.512  18.954  0.00  0.00    +0.000 S 
ATOM     10  O   UNL     1       5.185   5.593  19.784  0.00  0.00    +0.000 OA
ATOM     11  O   UNL     1       4.872   3.149  19.395  0.00  0.00    +0.000 OA
BRANCH   9  12
ATOM     12  C   UNL     1       5.462   4.673  17.377  0.00  0.00    +0.000 A 
ATOM     13  C   UNL     1       6.682   5.324  17.242  0.00  0.00    +0.000 A 
ATOM     14  F   UNL     1       7.241   5.978  18.267  0.00  0.00    +0.000 F 
ATOM     15  C   UNL     1       7.365   5.313  16.026  0.00  0.00    +0.000 A 
ATOM     16  C   UNL     1       6.845   4.625  14.931  0.00  0.00    +0.000 A 
ATOM     17  C   UNL     1       5.631   3.950  15.065  0.00  0.00    +0.000 A 
ATOM     18  C   UNL     1       4.949   3.980  16.289  0.00  0.00    +0.000 A 
ATOM     19  F   UNL     1       3.795   3.302  16.354  0.00  0.00    +0.000 F 
ENDBRANCH   9  12
ENDBRANCH   6   9
BRANCH   1  20
ATOM     20  C   UNL     1       1.101   9.430  19.826  0.00  0.00    +0.000 C 
BRANCH  20  23
ATOM     21  O   UNL     1       1.025  11.747  21.440  0.00  0.00    +0.000 OA
ATOM     22  C   UNL     1      -0.027  11.206  21.122  0.00  0.00    +0.000 C 
ATOM     23  N   UNL     1      -0.095  10.104  20.302  0.00  0.00    +0.000 N 
ATOM     24  H   UNL     1      -0.988   9.736  19.998  0.00  0.00    +0.000 HD
BRANCH  22  25
ATOM     25  C   UNL     1      -1.325  11.767  21.578  0.00  0.00    +0.000 A 
ATOM     26  C   UNL     1      -1.677  11.634  22.928  0.00  0.00    +0.000 A 
ATOM     27  C   UNL     1      -2.882  12.163  23.397  0.00  0.00    +0.000 A 
ATOM     28  C   UNL     1      -3.742  12.814  22.513  0.00  0.00    +0.000 A 
ATOM     29  C   UNL     1      -3.394  12.922  21.171  0.00  0.00    +0.000 A 
ATOM     30  F   UNL     1      -4.230  13.535  20.322  0.00  0.00    +0.000 F 
ATOM     31  C   UNL     1      -2.198  12.404  20.690  0.00  0.00    +0.000 A 
ENDBRANCH  22  25
ENDBRANCH  20  23
ENDBRANCH   1  20
TORSDOF 5
ENDMDL
MODEL 7
REMARK VINA RESULT:      -7.8      1.144      1.374
REMARK  Name = 
REMARK  5 active torsions:
REMARK  status: ('A' for Active; 'I' for Inactive)
REMARK    1  A    between atoms: C_2  and  C_24
REMARK    2  A    between atoms: N_3  and  C_4
REMARK    3  A    between atoms: C_4  and  C_5
REMARK    4  A    between atoms: N_10  and  S_11
REMARK    5  A    between atoms: S_11  and  C_14
REMARK                            x       y       z     vdW  Elec       q    Type
REMARK                         _______ _______ _______ _____ _____    ______ ____
ROOT
ATOM      1  C   UNL     1       1.299   8.404  20.538  0.00  0.00    +0.000 C 
ATOM      2  O   UNL     1       0.647   8.331  21.586  0.00  0.00    +0.000 OA
ATOM      3  N   UNL     1       1.927   7.299  19.984  0.00  0.00    +0.000 N 
ATOM      4  C   UNL     1       2.723   7.334  18.745  0.00  0.00    +0.000 C 
ATOM      5  C   UNL     1       2.476   6.085  17.879  0.00  0.00    +0.000 C 
ATOM      6  N   UNL     1       2.676   4.820  18.658  0.00  0.00    +0.000 NA
ATOM      7  C   UNL     1       1.764   4.824  19.858  0.00  0.00    +0.000 C 
ATOM      8  C   UNL     1       2.015   6.048  20.752  0.00  0.00    +0.000 C 
ENDROOT
BRANCH   6   9
ATOM      9  S   UNL     1       4.306   4.376  19.012  0.00  0.00    +0.000 S 
ATOM     10  O   UNL     1       4.821   5.281  20.014  0.00  0.00    +0.000 OA
ATOM     11  O   UNL     1       4.318   2.956  19.266  0.00  0.00    +0.000 OA
BRANCH   9  12
ATOM     12  C   UNL     1       5.194   4.669  17.522  0.00  0.00    +0.000 A 
ATOM     13  C   UNL     1       6.387   5.381  17.539  0.00  0.00    +0.000 A 
ATOM     14  F   UNL     1       6.820   5.994  18.647  0.00  0.00    +0.000 F 
ATOM     15  C   UNL     1       7.175   5.477  16.391  0.00  0.00    +0.000 A 
ATOM     16  C   UNL     1       6.789   4.837  15.215  0.00  0.00    +0.000 A 
ATOM     17  C   UNL     1       5.604   4.101  15.197  0.00  0.00    +0.000 A 
ATOM     18  C   UNL     1       4.815   4.024  16.354  0.00  0.00    +0.000 A 
ATOM     19  F   UNL     1       3.696   3.293  16.272  0.00  0.00    +0.000 F 
ENDBRANCH   9  12
ENDBRANCH   6   9
BRANCH   1  20
ATOM     20  C   UNL     1       1.307   9.705  19.735  0.00  0.00    +0.000 C 
BRANCH  20  23
ATOM     21  O   UNL     1      -0.452   9.809  17.528  0.00  0.00    +0.000 OA
ATOM     22  C   UNL     1      -0.800  10.303  18.593  0.00  0.00    +0.000 C 
ATOM     23  N   UNL     1      -0.035  10.261  19.735  0.00  0.00    +0.000 N 
ATOM     24  H   UNL     1      -0.393  10.610  20.615  0.00  0.00    +0.000 HD
BRANCH  22  25
ATOM     25  C   UNL     1      -2.134  10.945  18.720  0.00  0.00    +0.000 A 
ATOM     26  C   UNL     1      -2.305  11.956  19.676  0.00  0.00    +0.000 A 
ATOM     27  C   UNL     1      -3.540  12.594  19.814  0.00  0.00    +0.000 A 
ATOM     28  C   UNL     1      -4.609  12.213  19.004  0.00  0.00    +0.000 A 
ATOM     29  C   UNL     1      -4.436  11.194  18.073  0.00  0.00    +0.000 A 
ATOM     30  F   UNL     1      -5.470  10.821  17.307  0.00  0.00    +0.000 F 
ATOM     31  C   UNL     1      -3.214  10.552  17.922  0.00  0.00    +0.000 A 
ENDBRANCH  22  25
ENDBRANCH  20  23
ENDBRANCH   1  20
TORSDOF 5
ENDMDL
MODEL 8
REMARK VINA RESULT:      -7.8      2.910      3.747
REMARK  Name = 
REMARK  5 active torsions:
REMARK  status: ('A' for Active; 'I' for Inactive)
REMARK    1  A    between atoms: C_2  and  C_24
REMARK    2  A    between atoms: N_3  and  C_4
REMARK    3  A    between atoms: C_4  and  C_5
REMARK    4  A    between atoms: N_10  and  S_11
REMARK    5  A    between atoms: S_11  and  C_14
REMARK                            x       y       z     vdW  Elec       q    Type
REMARK                         _______ _______ _______ _____ _____    ______ ____
ROOT
ATOM      1  C   UNL     1       1.173   8.065  20.699  0.00  0.00    +0.000 C 
ATOM      2  O   UNL     1       0.505   7.835  21.715  0.00  0.00    +0.000 OA
ATOM      3  N   UNL     1       1.945   7.087  20.091  0.00  0.00    +0.000 N 
ATOM      4  C   UNL     1       2.766   7.310  18.888  0.00  0.00    +0.000 C 
ATOM      5  C   UNL     1       2.695   6.109  17.925  0.00  0.00    +0.000 C 
ATOM      6  N   UNL     1       3.025   4.821  18.618  0.00  0.00    +0.000 NA
ATOM      7  C   UNL     1       2.086   4.627  19.780  0.00  0.00    +0.000 C 
ATOM      8  C   UNL     1       2.161   5.801  20.769  0.00  0.00    +0.000 C 
ENDROOT
BRANCH   6   9
ATOM      9  S   UNL     1       4.685   4.548  18.998  0.00  0.00    +0.000 S 
ATOM     10  O   UNL     1       5.186   5.694  19.722  0.00  0.00    +0.000 OA
ATOM     11  O   UNL     1       4.778   3.237  19.594  0.00  0.00    +0.000 OA
BRANCH   9  12
ATOM     12  C   UNL     1       5.509   4.499  17.445  0.00  0.00    +0.000 A 
ATOM     13  C   UNL     1       4.871   3.987  16.321  0.00  0.00    +0.000 A 
ATOM     14  F   UNL     1       3.682   3.381  16.409  0.00  0.00    +0.000 F 
ATOM     15  C   UNL     1       5.457   4.094  15.060  0.00  0.00    +0.000 A 
ATOM     16  C   UNL     1       6.681   4.740  14.902  0.00  0.00    +0.000 A 
ATOM     17  C   UNL     1       7.317   5.276  16.023  0.00  0.00    +0.000 A 
ATOM     18  C   UNL     1       6.724   5.150  17.287  0.00  0.00    +0.000 A 
ATOM     19  F   UNL     1       7.381   5.696  18.318  0.00  0.00    +0.000 F 
ENDBRANCH   9  12
ENDBRANCH   6   9
BRANCH   1  20
ATOM     20  C   UNL     1       1.047   9.414  19.993  0.00  0.00    +0.000 C 
BRANCH  20  23
ATOM     21  O   UNL     1       1.629  11.990  20.994  0.00  0.00    +0.000 OA
ATOM     22  C   UNL     1       0.541  11.485  21.241  0.00  0.00    +0.000 C 
ATOM     23  N   UNL     1       0.147  10.259  20.760  0.00  0.00    +0.000 N 
ATOM     24  H   UNL     1      -0.791   9.914  20.920  0.00  0.00    +0.000 HD
BRANCH  22  25
ATOM     25  C   UNL     1      -0.460  12.224  22.053  0.00  0.00    +0.000 A 
ATOM     26  C   UNL     1      -0.294  13.605  22.229  0.00  0.00    +0.000 A 
ATOM     27  C   UNL     1      -1.224  14.337  22.972  0.00  0.00    +0.000 A 
ATOM     28  C   UNL     1      -2.313  13.686  23.551  0.00  0.00    +0.000 A 
ATOM     29  C   UNL     1      -2.457  12.313  23.389  0.00  0.00    +0.000 A 
ATOM     30  F   UNL     1      -3.496  11.689  23.960  0.00  0.00    +0.000 F 
ATOM     31  C   UNL     1      -1.544  11.571  22.651  0.00  0.00    +0.000 A 
ENDBRANCH  22  25
ENDBRANCH  20  23
ENDBRANCH   1  20
TORSDOF 5
ENDMDL
MODEL 9
REMARK VINA RESULT:      -7.7      5.223      8.502
REMARK  Name = 
REMARK  5 active torsions:
REMARK  status: ('A' for Active; 'I' for Inactive)
REMARK    1  A    between atoms: C_2  and  C_24
REMARK    2  A    between atoms: N_3  and  C_4
REMARK    3  A    between atoms: C_4  and  C_5
REMARK    4  A    between atoms: N_10  and  S_11
REMARK    5  A    between atoms: S_11  and  C_14
REMARK                            x       y       z     vdW  Elec       q    Type
REMARK                         _______ _______ _______ _____ _____    ______ ____
ROOT
ATOM      1  C   UNL     1       7.662   7.346  17.308  0.00  0.00    +0.000 C 
ATOM      2  O   UNL     1       8.253   7.499  16.232  0.00  0.00    +0.000 OA
ATOM      3  N   UNL     1       6.683   6.379  17.476  0.00  0.00    +0.000 N 
ATOM      4  C   UNL     1       5.942   6.162  18.731  0.00  0.00    +0.000 C 
ATOM      5  C   UNL     1       5.730   4.662  19.009  0.00  0.00    +0.000 C 
ATOM      6  N   UNL     1       5.103   3.963  17.841  0.00  0.00    +0.000 NA
ATOM      7  C   UNL     1       5.966   4.160  16.621  0.00  0.00    +0.000 C 
ATOM      8  C   UNL     1       6.167   5.651  16.307  0.00  0.00    +0.000 C 
ENDROOT
BRANCH   6   9
ATOM      9  S   UNL     1       3.424   4.253  17.572  0.00  0.00    +0.000 S 
ATOM     10  O   UNL     1       3.233   5.668  17.345  0.00  0.00    +0.000 OA
ATOM     11  O   UNL     1       2.979   3.310  16.574  0.00  0.00    +0.000 OA
BRANCH   9  12
ATOM     12  C   UNL     1       2.639   3.847  19.092  0.00  0.00    +0.000 A 
ATOM     13  C   UNL     1       2.717   2.559  19.607  0.00  0.00    +0.000 A 
ATOM     14  F   UNL     1       3.252   1.556  18.901  0.00  0.00    +0.000 F 
ATOM     15  C   UNL     1       2.236   2.272  20.885  0.00  0.00    +0.000 A 
ATOM     16  C   UNL     1       1.694   3.282  21.678  0.00  0.00    +0.000 A 
ATOM     17  C   UNL     1       1.634   4.583  21.177  0.00  0.00    +0.000 A 
ATOM     18  C   UNL     1       2.107   4.854  19.885  0.00  0.00    +0.000 A 
ATOM     19  F   UNL     1       2.030   6.125  19.470  0.00  0.00    +0.000 F 
ENDBRANCH   9  12
ENDBRANCH   6   9
BRANCH   1  20
ATOM     20  C   UNL     1       8.106   8.133  18.540  0.00  0.00    +0.000 C 
BRANCH  20  23
ATOM     21  O   UNL     1       9.167  10.144  20.215  0.00  0.00    +0.000 OA
ATOM     22  C   UNL     1       9.120  10.336  19.006  0.00  0.00    +0.000 C 
ATOM     23  N   UNL     1       8.666   9.402  18.107  0.00  0.00    +0.000 N 
ATOM     24  H   UNL     1       8.720   9.569  17.110  0.00  0.00    +0.000 HD
BRANCH  22  25
ATOM     25  C   UNL     1       9.622  11.611  18.432  0.00  0.00    +0.000 A 
ATOM     26  C   UNL     1      10.857  11.610  17.769  0.00  0.00    +0.000 A 
ATOM     27  C   UNL     1      11.354  12.785  17.202  0.00  0.00    +0.000 A 
ATOM     28  C   UNL     1      10.621  13.967  17.307  0.00  0.00    +0.000 A 
ATOM     29  C   UNL     1       9.407  13.964  17.985  0.00  0.00    +0.000 A 
ATOM     30  F   UNL     1       8.714  15.105  18.097  0.00  0.00    +0.000 F 
ATOM     31  C   UNL     1       8.898  12.803  18.552  0.00  0.00    +0.000 A 
ENDBRANCH  22  25
ENDBRANCH  20  23
ENDBRANCH   1  20
TORSDOF 5
ENDMDL
