MODEL 1
REMARK VINA RESULT:      -8.8      0.000      0.000
REMARK  Name = 
REMARK  7 active torsions:
REMARK  status: ('A' for Active; 'I' for Inactive)
REMARK    1  A    between atoms: C_1  and  C_2
REMARK    2  A    between atoms: C_12  and  C_13
REMARK    3  A    between atoms: N_15  and  C_16
REMARK    4  A    between atoms: C_20  and  S_21
REMARK    5  A    between atoms: S_21  and  N_24
REMARK    6  A    between atoms: N_24  and  C_25
REMARK    7  A    between atoms: N_24  and  C_26
REMARK                            x       y       z     vdW  Elec       q    Type
REMARK                         _______ _______ _______ _____ _____    ______ ____
ROOT
ATOM      1  C   UNL     1       2.068   7.183  19.763  0.00  0.00    +0.000 C 
ATOM      2  O   UNL     1       2.436   6.457  20.678  0.00  0.00    +0.000 OA
ATOM      3  N   UNL     1       2.358   7.008  18.415  0.00  0.00    +0.000 N 
ATOM      4  H   UNL     1       2.172   7.786  17.794  0.00  0.00    +0.000 HD
ENDROOT
BRANCH   1  16
ATOM      5  C   UNL     1       1.828   9.515  17.857  0.00  0.00    +0.000 C 
ATOM      6  C   UNL     1       1.165   9.477  19.202  0.00  0.00    +0.000 A 
ATOM      7  N   UNL     1       0.441  10.594  19.506  0.00  0.00    +0.000 NA
ATOM      8  C   UNL     1      -0.145  10.697  20.707  0.00  0.00    +0.000 A 
ATOM      9  C   UNL     1      -0.861  11.843  21.013  0.00  0.00    +0.000 A 
ATOM     10  C   UNL     1      -1.457  11.995  22.258  0.00  0.00    +0.000 A 
ATOM     11  F   UNL     1      -2.137  13.115  22.535  0.00  0.00    +0.000 F 
ATOM     12  C   UNL     1      -1.357  11.004  23.225  0.00  0.00    +0.000 A 
ATOM     13  C   UNL     1      -0.653   9.839  22.938  0.00  0.00    +0.000 A 
ATOM     14  C   UNL     1      -0.047   9.679  21.677  0.00  0.00    +0.000 A 
ATOM     15  C   UNL     1       0.673   8.522  21.348  0.00  0.00    +0.000 A 
ATOM     16  C   UNL     1       1.282   8.405  20.093  0.00  0.00    +0.000 A 
ENDBRANCH   1  16
BRANCH   3  17
ATOM     17  C   UNL     1       3.130   5.955  17.870  0.00  0.00    +0.000 A 
ATOM     18  C   UNL     1       2.624   4.672  17.642  0.00  0.00    +0.000 A 
ATOM     19  C   UNL     1       3.450   3.643  17.179  0.00  0.00    +0.000 A 
ATOM     20  C   UNL     1       4.802   3.881  16.958  0.00  0.00    +0.000 A 
ATOM     21  C   UNL     1       5.314   5.161  17.184  0.00  0.00    +0.000 A 
ATOM     22  C   UNL     1       4.476   6.212  17.583  0.00  0.00    +0.000 A 
BRANCH  21  23
ATOM     23  S   UNL     1       7.053   5.461  16.977  0.00  0.00    +0.000 S 
ATOM     24  O   UNL     1       7.773   4.257  17.338  0.00  0.00    +0.000 OA
ATOM     25  O   UNL     1       7.230   6.076  15.678  0.00  0.00    +0.000 OA
BRANCH  23  26
ATOM     26  N   UNL     1       7.387   6.644  18.174  0.00  0.00    +0.000 NA
ATOM     27  C   UNL     1       8.217   6.184  19.314  0.00  0.00    +0.000 C 
ATOM     28  C   UNL     1       7.941   7.896  17.601  0.00  0.00    +0.000 C 
ENDBRANCH  23  26
ENDBRANCH  21  23
ENDBRANCH   3  17
TORSDOF 4
ENDMDL
MODEL 2
REMARK VINA RESULT:      -8.6      1.259      1.361
REMARK  Name = 
REMARK  7 active torsions:
REMARK  status: ('A' for Active; 'I' for Inactive)
REMARK    1  A    between atoms: C_1  and  C_2
REMARK    2  A    between atoms: C_12  and  C_13
REMARK    3  A    between atoms: N_15  and  C_16
REMARK    4  A    between atoms: C_20  and  S_21
REMARK    5  A    between atoms: S_21  and  N_24
REMARK    6  A    between atoms: N_24  and  C_25
REMARK    7  A    between atoms: N_24  and  C_26
REMARK                            x       y       z     vdW  Elec       q    Type
REMARK                         _______ _______ _______ _____ _____    ______ ____
ROOT
ATOM      1  C   UNL     1       2.031   8.816  18.373  0.00  0.00    +0.000 C 
ATOM      2  O   UNL     1       2.327   9.147  17.232  0.00  0.00    +0.000 OA
ATOM      3  N   UNL     1       2.215   7.556  18.930  0.00  0.00    +0.000 N 
ATOM      4  H   UNL     1       1.740   7.360  19.803  0.00  0.00    +0.000 HD
ENDROOT
BRANCH   1  16
ATOM      5  C   UNL     1       2.203  11.792  17.876  0.00  0.00    +0.000 C 
ATOM      6  C   UNL     1       1.434  11.188  19.014  0.00  0.00    +0.000 A 
ATOM      7  N   UNL     1       0.814  12.097  19.823  0.00  0.00    +0.000 NA
ATOM      8  C   UNL     1       0.148  11.675  20.906  0.00  0.00    +0.000 A 
ATOM      9  C   UNL     1      -0.460  12.607  21.730  0.00  0.00    +0.000 A 
ATOM     10  C   UNL     1      -1.134  12.206  22.877  0.00  0.00    +0.000 A 
ATOM     11  F   UNL     1      -1.707  13.127  23.664  0.00  0.00    +0.000 F 
ATOM     12  C   UNL     1      -1.222  10.866  23.224  0.00  0.00    +0.000 A 
ATOM     13  C   UNL     1      -0.628   9.909  22.406  0.00  0.00    +0.000 A 
ATOM     14  C   UNL     1       0.056  10.309  21.241  0.00  0.00    +0.000 A 
ATOM     15  C   UNL     1       0.669   9.378  20.392  0.00  0.00    +0.000 A 
ATOM     16  C   UNL     1       1.361   9.812  19.255  0.00  0.00    +0.000 A 
ENDBRANCH   1  16
BRANCH   3  17
ATOM     17  C   UNL     1       2.780   6.439  18.270  0.00  0.00    +0.000 A 
ATOM     18  C   UNL     1       2.091   5.238  18.070  0.00  0.00    +0.000 A 
ATOM     19  C   UNL     1       2.722   4.135  17.485  0.00  0.00    +0.000 A 
ATOM     20  C   UNL     1       4.059   4.215  17.112  0.00  0.00    +0.000 A 
ATOM     21  C   UNL     1       4.752   5.411  17.310  0.00  0.00    +0.000 A 
ATOM     22  C   UNL     1       4.106   6.540  17.833  0.00  0.00    +0.000 A 
BRANCH  21  23
ATOM     23  S   UNL     1       6.479   5.503  16.905  0.00  0.00    +0.000 S 
ATOM     24  O   UNL     1       7.059   4.185  17.063  0.00  0.00    +0.000 OA
ATOM     25  O   UNL     1       6.589   6.221  15.653  0.00  0.00    +0.000 OA
BRANCH  23  26
ATOM     26  N   UNL     1       7.115   6.502  18.147  0.00  0.00    +0.000 NA
ATOM     27  C   UNL     1       8.030   5.831  19.102  0.00  0.00    +0.000 C 
ATOM     28  C   UNL     1       7.734   7.744  17.620  0.00  0.00    +0.000 C 
ENDBRANCH  23  26
ENDBRANCH  21  23
ENDBRANCH   3  17
TORSDOF 4
ENDMDL
MODEL 3
REMARK VINA RESULT:      -8.5      2.815      3.665
REMARK  Name = 
REMARK  7 active torsions:
REMARK  status: ('A' for Active; 'I' for Inactive)
REMARK    1  A    between atoms: C_1  and  C_2
REMARK    2  A    between atoms: C_12  and  C_13
REMARK    3  A    between atoms: N_15  and  C_16
REMARK    4  A    between atoms: C_20  and  S_21
REMARK    5  A    between atoms: S_21  and  N_24
REMARK    6  A    between atoms: N_24  and  C_25
REMARK    7  A    between atoms: N_24  and  C_26
REMARK                            x       y       z     vdW  Elec       q    Type
REMARK                         _______ _______ _______ _____ _____    ______ ____
ROOT
ATOM      1  C   UNL     1       1.741   8.906  18.447  0.00  0.00    +0.000 C 
ATOM      2  O   UNL     1       1.554   8.987  17.240  0.00  0.00    +0.000 OA
ATOM      3  N   UNL     1       2.402   7.873  19.103  0.00  0.00    +0.000 N 
ATOM      4  H   UNL     1       2.304   7.824  20.110  0.00  0.00    +0.000 HD
ENDROOT
BRANCH   1  16
ATOM      5  C   UNL     1       2.326  11.841  18.036  0.00  0.00    +0.000 C 
ATOM      6  C   UNL     1       1.440  11.321  19.130  0.00  0.00    +0.000 A 
ATOM      7  N   UNL     1       0.915  12.288  19.939  0.00  0.00    +0.000 NA
ATOM      8  C   UNL     1       0.157  11.935  20.987  0.00  0.00    +0.000 A 
ATOM      9  C   UNL     1      -0.354  12.922  21.813  0.00  0.00    +0.000 A 
ATOM     10  C   UNL     1      -1.119  12.591  22.923  0.00  0.00    +0.000 A 
ATOM     11  F   UNL     1      -1.595  13.563  23.713  0.00  0.00    +0.000 F 
ATOM     12  C   UNL     1      -1.398  11.267  23.231  0.00  0.00    +0.000 A 
ATOM     13  C   UNL     1      -0.905  10.257  22.410  0.00  0.00    +0.000 A 
ATOM     14  C   UNL     1      -0.129  10.587  21.282  0.00  0.00    +0.000 A 
ATOM     15  C   UNL     1       0.388   9.601  20.430  0.00  0.00    +0.000 A 
ATOM     16  C   UNL     1       1.175   9.963  19.331  0.00  0.00    +0.000 A 
ENDBRANCH   1  16
BRANCH   3  17
ATOM     17  C   UNL     1       2.974   6.738  18.482  0.00  0.00    +0.000 A 
ATOM     18  C   UNL     1       4.049   6.812  17.590  0.00  0.00    +0.000 A 
ATOM     19  C   UNL     1       4.525   5.669  16.939  0.00  0.00    +0.000 A 
ATOM     20  C   UNL     1       3.916   4.438  17.158  0.00  0.00    +0.000 A 
ATOM     21  C   UNL     1       2.843   4.358  18.047  0.00  0.00    +0.000 A 
ATOM     22  C   UNL     1       2.405   5.488  18.753  0.00  0.00    +0.000 A 
BRANCH  21  23
ATOM     23  S   UNL     1       2.009   2.806  18.280  0.00  0.00    +0.000 S 
ATOM     24  O   UNL     1       0.582   3.049  18.292  0.00  0.00    +0.000 OA
ATOM     25  O   UNL     1       2.597   1.860  17.356  0.00  0.00    +0.000 OA
BRANCH  23  26
ATOM     26  N   UNL     1       2.471   2.353  19.870  0.00  0.00    +0.000 NA
ATOM     27  C   UNL     1       3.895   2.585  20.212  0.00  0.00    +0.000 C 
ATOM     28  C   UNL     1       1.586   2.935  20.910  0.00  0.00    +0.000 C 
ENDBRANCH  23  26
ENDBRANCH  21  23
ENDBRANCH   3  17
TORSDOF 4
ENDMDL
MODEL 4
REMARK VINA RESULT:      -8.5      1.948      2.506
REMARK  Name = 
REMARK  7 active torsions:
REMARK  status: ('A' for Active; 'I' for Inactive)
REMARK    1  A    between atoms: C_1  and  C_2
REMARK    2  A    between atoms: C_12  and  C_13
REMARK    3  A    between atoms: N_15  and  C_16
REMARK    4  A    between atoms: C_20  and  S_21
REMARK    5  A    between atoms: S_21  and  N_24
REMARK    6  A    between atoms: N_24  and  C_25
REMARK    7  A    between atoms: N_24  and  C_26
REMARK                            x       y       z     vdW  Elec       q    Type
REMARK                         _______ _______ _______ _____ _____    ______ ____
ROOT
ATOM      1  C   UNL     1       1.204   9.355  18.752  0.00  0.00    +0.000 C 
ATOM      2  O   UNL     1       0.754   9.283  17.616  0.00  0.00    +0.000 OA
ATOM      3  N   UNL     1       2.039   8.424  19.359  0.00  0.00    +0.000 N 
ATOM      4  H   UNL     1       2.166   8.498  20.362  0.00  0.00    +0.000 HD
ENDROOT
BRANCH   1  16
ATOM      5  C   UNL     1       2.299  12.143  18.356  0.00  0.00    +0.000 C 
ATOM      6  C   UNL     1       1.297  11.793  19.417  0.00  0.00    +0.000 A 
ATOM      7  N   UNL     1       0.917  12.842  20.204  0.00  0.00    +0.000 NA
ATOM      8  C   UNL     1       0.072  12.634  21.223  0.00  0.00    +0.000 A 
ATOM      9  C   UNL     1      -0.291  13.702  22.027  0.00  0.00    +0.000 A 
ATOM     10  C   UNL     1      -1.142  13.517  23.109  0.00  0.00    +0.000 A 
ATOM     11  F   UNL     1      -1.472  14.563  23.878  0.00  0.00    +0.000 F 
ATOM     12  C   UNL     1      -1.655  12.263  23.409  0.00  0.00    +0.000 A 
ATOM     13  C   UNL     1      -1.314  11.177  22.609  0.00  0.00    +0.000 A 
ATOM     14  C   UNL     1      -0.451  11.358  21.510  0.00  0.00    +0.000 A 
ATOM     15  C   UNL     1      -0.081  10.290  20.681  0.00  0.00    +0.000 A 
ATOM     16  C   UNL     1       0.796  10.502  19.611  0.00  0.00    +0.000 A 
ENDBRANCH   1  16
BRANCH   3  17
ATOM     17  C   UNL     1       2.514   7.233  18.763  0.00  0.00    +0.000 A 
ATOM     18  C   UNL     1       2.000   5.967  19.063  0.00  0.00    +0.000 A 
ATOM     19  C   UNL     1       2.560   4.812  18.507  0.00  0.00    +0.000 A 
ATOM     20  C   UNL     1       3.657   4.908  17.658  0.00  0.00    +0.000 A 
ATOM     21  C   UNL     1       4.174   6.169  17.355  0.00  0.00    +0.000 A 
ATOM     22  C   UNL     1       3.575   7.334  17.855  0.00  0.00    +0.000 A 
BRANCH  21  23
ATOM     23  S   UNL     1       5.620   6.302  16.330  0.00  0.00    +0.000 S 
ATOM     24  O   UNL     1       5.199   6.615  14.980  0.00  0.00    +0.000 OA
ATOM     25  O   UNL     1       6.566   7.145  17.031  0.00  0.00    +0.000 OA
BRANCH  23  26
ATOM     26  N   UNL     1       6.238   4.701  16.323  0.00  0.00    +0.000 NA
ATOM     27  C   UNL     1       6.408   4.087  14.984  0.00  0.00    +0.000 C 
ATOM     28  C   UNL     1       7.485   4.568  17.118  0.00  0.00    +0.000 C 
ENDBRANCH  23  26
ENDBRANCH  21  23
ENDBRANCH   3  17
TORSDOF 4
ENDMDL
MODEL 5
REMARK VINA RESULT:      -8.4      3.076      4.464
REMARK  Name = 
REMARK  7 active torsions:
REMARK  status: ('A' for Active; 'I' for Inactive)
REMARK    1  A    between atoms: C_1  and  C_2
REMARK    2  A    between atoms: C_12  and  C_13
REMARK    3  A    between atoms: N_15  and  C_16
REMARK    4  A    between atoms: C_20  and  S_21
REMARK    5  A    between atoms: S_21  and  N_24
REMARK    6  A    between atoms: N_24  and  C_25
REMARK    7  A    between atoms: N_24  and  C_26
REMARK                            x       y       z     vdW  Elec       q    Type
REMARK                         _______ _______ _______ _____ _____    ______ ____
ROOT
ATOM      1  C   UNL     1       1.368   9.549  18.130  0.00  0.00    +0.000 C 
ATOM      2  O   UNL     1       2.183  10.125  17.421  0.00  0.00    +0.000 OA
ATOM      3  N   UNL     1       1.494   8.261  18.638  0.00  0.00    +0.000 N 
ATOM      4  H   UNL     1       0.664   7.832  19.030  0.00  0.00    +0.000 HD
ENDROOT
BRANCH   1  16
ATOM      5  C   UNL     1       1.074  11.394  20.505  0.00  0.00    +0.000 C 
ATOM      6  C   UNL     1      -0.041  11.100  19.545  0.00  0.00    +0.000 A 
ATOM      7  N   UNL     1      -1.216  11.733  19.833  0.00  0.00    +0.000 NA
ATOM      8  C   UNL     1      -2.298  11.498  19.078  0.00  0.00    +0.000 A 
ATOM      9  C   UNL     1      -3.490  12.131  19.392  0.00  0.00    +0.000 A 
ATOM     10  C   UNL     1      -4.638  11.888  18.648  0.00  0.00    +0.000 A 
ATOM     11  F   UNL     1      -5.781  12.504  18.976  0.00  0.00    +0.000 F 
ATOM     12  C   UNL     1      -4.621  11.012  17.571  0.00  0.00    +0.000 A 
ATOM     13  C   UNL     1      -3.433  10.374  17.230  0.00  0.00    +0.000 A 
ATOM     14  C   UNL     1      -2.265  10.616  17.980  0.00  0.00    +0.000 A 
ATOM     15  C   UNL     1      -1.049   9.992  17.671  0.00  0.00    +0.000 A 
ATOM     16  C   UNL     1       0.087  10.238  18.451  0.00  0.00    +0.000 A 
ENDBRANCH   1  16
BRANCH   3  17
ATOM     17  C   UNL     1       2.593   7.396  18.423  0.00  0.00    +0.000 A 
ATOM     18  C   UNL     1       3.605   7.659  17.494  0.00  0.00    +0.000 A 
ATOM     19  C   UNL     1       4.626   6.733  17.261  0.00  0.00    +0.000 A 
ATOM     20  C   UNL     1       4.635   5.519  17.940  0.00  0.00    +0.000 A 
ATOM     21  C   UNL     1       3.627   5.251  18.868  0.00  0.00    +0.000 A 
ATOM     22  C   UNL     1       2.640   6.204  19.156  0.00  0.00    +0.000 A 
BRANCH  21  23
ATOM     23  S   UNL     1       3.585   3.676  19.689  0.00  0.00    +0.000 S 
ATOM     24  O   UNL     1       4.942   3.188  19.816  0.00  0.00    +0.000 OA
ATOM     25  O   UNL     1       2.732   3.820  20.850  0.00  0.00    +0.000 OA
BRANCH  23  26
ATOM     26  N   UNL     1       2.776   2.671  18.557  0.00  0.00    +0.000 NA
ATOM     27  C   UNL     1       3.487   1.425  18.186  0.00  0.00    +0.000 C 
ATOM     28  C   UNL     1       1.378   2.372  18.957  0.00  0.00    +0.000 C 
ENDBRANCH  23  26
ENDBRANCH  21  23
ENDBRANCH   3  17
TORSDOF 4
ENDMDL
MODEL 6
REMARK VINA RESULT:      -8.4      4.670      9.292
REMARK  Name = 
REMARK  7 active torsions:
REMARK  status: ('A' for Active; 'I' for Inactive)
REMARK    1  A    between atoms: C_1  and  C_2
REMARK    2  A    between atoms: C_12  and  C_13
REMARK    3  A    between atoms: N_15  and  C_16
REMARK    4  A    between atoms: C_20  and  S_21
REMARK    5  A    between atoms: S_21  and  N_24
REMARK    6  A    between atoms: N_24  and  C_25
REMARK    7  A    between atoms: N_24  and  C_26
REMARK                            x       y       z     vdW  Elec       q    Type
REMARK                         _______ _______ _______ _____ _____    ______ ____
ROOT
ATOM      1  C   UNL     1       4.651   5.886  18.015  0.00  0.00    +0.000 C 
ATOM      2  O   UNL     1       4.903   5.271  19.043  0.00  0.00    +0.000 OA
ATOM      3  N   UNL     1       3.657   6.847  17.863  0.00  0.00    +0.000 N 
ATOM      4  H   UNL     1       3.418   7.123  16.918  0.00  0.00    +0.000 HD
ENDROOT
BRANCH   1  16
ATOM      5  C   UNL     1       7.402   7.015  17.483  0.00  0.00    +0.000 C 
ATOM      6  C   UNL     1       6.698   6.080  16.544  0.00  0.00    +0.000 A 
ATOM      7  N   UNL     1       7.402   5.778  15.413  0.00  0.00    +0.000 NA
ATOM      8  C   UNL     1       6.846   5.000  14.475  0.00  0.00    +0.000 A 
ATOM      9  C   UNL     1       7.561   4.716  13.323  0.00  0.00    +0.000 A 
ATOM     10  C   UNL     1       7.004   3.937  12.317  0.00  0.00    +0.000 A 
ATOM     11  F   UNL     1       7.711   3.683  11.208  0.00  0.00    +0.000 F 
ATOM     12  C   UNL     1       5.723   3.417  12.441  0.00  0.00    +0.000 A 
ATOM     13  C   UNL     1       4.989   3.678  13.594  0.00  0.00    +0.000 A 
ATOM     14  C   UNL     1       5.548   4.468  14.618  0.00  0.00    +0.000 A 
ATOM     15  C   UNL     1       4.843   4.757  15.794  0.00  0.00    +0.000 A 
ATOM     16  C   UNL     1       5.420   5.563  16.781  0.00  0.00    +0.000 A 
ENDBRANCH   1  16
BRANCH   3  17
ATOM     17  C   UNL     1       2.768   7.278  18.875  0.00  0.00    +0.000 A 
ATOM     18  C   UNL     1       2.289   6.436  19.885  0.00  0.00    +0.000 A 
ATOM     19  C   UNL     1       1.348   6.889  20.814  0.00  0.00    +0.000 A 
ATOM     20  C   UNL     1       0.856   8.187  20.731  0.00  0.00    +0.000 A 
ATOM     21  C   UNL     1       1.330   9.032  19.726  0.00  0.00    +0.000 A 
ATOM     22  C   UNL     1       2.323   8.604  18.834  0.00  0.00    +0.000 A 
BRANCH  21  23
ATOM     23  S   UNL     1       0.657  10.668  19.564  0.00  0.00    +0.000 S 
ATOM     24  O   UNL     1       0.584  11.267  20.880  0.00  0.00    +0.000 OA
ATOM     25  O   UNL     1       1.370  11.320  18.485  0.00  0.00    +0.000 OA
BRANCH  23  26
ATOM     26  N   UNL     1      -0.950  10.376  19.038  0.00  0.00    +0.000 NA
ATOM     27  C   UNL     1      -1.911  11.481  19.273  0.00  0.00    +0.000 C 
ATOM     28  C   UNL     1      -1.015   9.923  17.625  0.00  0.00    +0.000 C 
ENDBRANCH  23  26
ENDBRANCH  21  23
ENDBRANCH   3  17
TORSDOF 4
ENDMDL
MODEL 7
REMARK VINA RESULT:      -8.3      2.637      3.668
REMARK  Name = 
REMARK  7 active torsions:
REMARK  status: ('A' for Active; 'I' for Inactive)
REMARK    1  A    between atoms: C_1  and  C_2
REMARK    2  A    between atoms: C_12  and  C_13
REMARK    3  A    between atoms: N_15  and  C_16
REMARK    4  A    between atoms: C_20  and  S_21
REMARK    5  A    between atoms: S_21  and  N_24
REMARK    6  A    between atoms: N_24  and  C_25
REMARK    7  A    between atoms: N_24  and  C_26
REMARK                            x       y       z     vdW  Elec       q    Type
REMARK                         _______ _______ _______ _____ _____    ______ ____
ROOT
ATOM      1  C   UNL     1       1.960   8.796  18.398  0.00  0.00    +0.000 C 
ATOM      2  O   UNL     1       1.762   8.858  17.192  0.00  0.00    +0.000 OA
ATOM      3  N   UNL     1       2.702   7.820  19.054  0.00  0.00    +0.000 N 
ATOM      4  H   UNL     1       2.613   7.767  20.062  0.00  0.00    +0.000 HD
ENDROOT
BRANCH   1  16
ATOM      5  C   UNL     1       2.274  11.767  17.948  0.00  0.00    +0.000 C 
ATOM      6  C   UNL     1       1.456  11.183  19.062  0.00  0.00    +0.000 A 
ATOM      7  N   UNL     1       0.862  12.109  19.872  0.00  0.00    +0.000 NA
ATOM      8  C   UNL     1       0.156  11.702  20.936  0.00  0.00    +0.000 A 
ATOM      9  C   UNL     1      -0.427  12.650  21.761  0.00  0.00    +0.000 A 
ATOM     10  C   UNL     1      -1.141  12.264  22.889  0.00  0.00    +0.000 A 
ATOM     11  F   UNL     1      -1.688  13.199  23.678  0.00  0.00    +0.000 F 
ATOM     12  C   UNL     1      -1.295  10.924  23.215  0.00  0.00    +0.000 A 
ATOM     13  C   UNL     1      -0.729   9.953  22.394  0.00  0.00    +0.000 A 
ATOM     14  C   UNL     1      -0.004  10.337  21.249  0.00  0.00    +0.000 A 
ATOM     15  C   UNL     1       0.584   9.392  20.398  0.00  0.00    +0.000 A 
ATOM     16  C   UNL     1       1.317   9.809  19.281  0.00  0.00    +0.000 A 
ENDBRANCH   1  16
BRANCH   3  17
ATOM     17  C   UNL     1       3.358   6.731  18.434  0.00  0.00    +0.000 A 
ATOM     18  C   UNL     1       4.149   6.865  17.289  0.00  0.00    +0.000 A 
ATOM     19  C   UNL     1       4.710   5.744  16.666  0.00  0.00    +0.000 A 
ATOM     20  C   UNL     1       4.466   4.472  17.171  0.00  0.00    +0.000 A 
ATOM     21  C   UNL     1       3.677   4.333  18.315  0.00  0.00    +0.000 A 
ATOM     22  C   UNL     1       3.170   5.457  18.981  0.00  0.00    +0.000 A 
BRANCH  21  23
ATOM     23  S   UNL     1       3.298   2.709  18.928  0.00  0.00    +0.000 S 
ATOM     24  O   UNL     1       3.163   1.812  17.800  0.00  0.00    +0.000 OA
ATOM     25  O   UNL     1       4.231   2.427  19.999  0.00  0.00    +0.000 OA
BRANCH  23  26
ATOM     26  N   UNL     1       1.741   2.910  19.621  0.00  0.00    +0.000 NA
ATOM     27  C   UNL     1       0.626   2.271  18.882  0.00  0.00    +0.000 C 
ATOM     28  C   UNL     1       1.700   2.529  21.055  0.00  0.00    +0.000 C 
ENDBRANCH  23  26
ENDBRANCH  21  23
ENDBRANCH   3  17
TORSDOF 4
ENDMDL
MODEL 8
REMARK VINA RESULT:      -8.3      4.688      9.270
REMARK  Name = 
REMARK  7 active torsions:
REMARK  status: ('A' for Active; 'I' for Inactive)
REMARK    1  A    between atoms: C_1  and  C_2
REMARK    2  A    between atoms: C_12  and  C_13
REMARK    3  A    between atoms: N_15  and  C_16
REMARK    4  A    between atoms: C_20  and  S_21
REMARK    5  A    between atoms: S_21  and  N_24
REMARK    6  A    between atoms: N_24  and  C_25
REMARK    7  A    between atoms: N_24  and  C_26
REMARK                            x       y       z     vdW  Elec       q    Type
REMARK                         _______ _______ _______ _____ _____    ______ ____
ROOT
ATOM      1  C   UNL     1       4.629   5.629  17.933  0.00  0.00    +0.000 C 
ATOM      2  O   UNL     1       4.803   4.901  18.902  0.00  0.00    +0.000 OA
ATOM      3  N   UNL     1       3.713   6.672  17.848  0.00  0.00    +0.000 N 
ATOM      4  H   UNL     1       3.527   7.053  16.929  0.00  0.00    +0.000 HD
ENDROOT
BRANCH   1  16
ATOM      5  C   UNL     1       7.341   6.868  17.442  0.00  0.00    +0.000 C 
ATOM      6  C   UNL     1       6.673   5.934  16.476  0.00  0.00    +0.000 A 
ATOM      7  N   UNL     1       7.391   5.689  15.340  0.00  0.00    +0.000 NA
ATOM      8  C   UNL     1       6.865   4.916  14.379  0.00  0.00    +0.000 A 
ATOM      9  C   UNL     1       7.593   4.690  13.222  0.00  0.00    +0.000 A 
ATOM     10  C   UNL     1       7.067   3.918  12.194  0.00  0.00    +0.000 A 
ATOM     11  F   UNL     1       7.787   3.720  11.081  0.00  0.00    +0.000 F 
ATOM     12  C   UNL     1       5.805   3.351  12.298  0.00  0.00    +0.000 A 
ATOM     13  C   UNL     1       5.060   3.555  13.455  0.00  0.00    +0.000 A 
ATOM     14  C   UNL     1       5.587   4.336  14.502  0.00  0.00    +0.000 A 
ATOM     15  C   UNL     1       4.868   4.567  15.682  0.00  0.00    +0.000 A 
ATOM     16  C   UNL     1       5.413   5.367  16.693  0.00  0.00    +0.000 A 
ENDBRANCH   1  16
BRANCH   3  17
ATOM     17  C   UNL     1       2.825   7.071  18.874  0.00  0.00    +0.000 A 
ATOM     18  C   UNL     1       2.446   6.234  19.929  0.00  0.00    +0.000 A 
ATOM     19  C   UNL     1       1.501   6.648  20.873  0.00  0.00    +0.000 A 
ATOM     20  C   UNL     1       0.907   7.900  20.761  0.00  0.00    +0.000 A 
ATOM     21  C   UNL     1       1.281   8.740  19.710  0.00  0.00    +0.000 A 
ATOM     22  C   UNL     1       2.277   8.357  18.801  0.00  0.00    +0.000 A 
BRANCH  21  23
ATOM     23  S   UNL     1       0.477  10.312  19.513  0.00  0.00    +0.000 S 
ATOM     24  O   UNL     1       1.141  11.037  18.451  0.00  0.00    +0.000 OA
ATOM     25  O   UNL     1      -0.949  10.061  19.467  0.00  0.00    +0.000 OA
BRANCH  23  26
ATOM     26  N   UNL     1       0.827  11.114  20.989  0.00  0.00    +0.000 NA
ATOM     27  C   UNL     1       1.382  12.483  20.856  0.00  0.00    +0.000 C 
ATOM     28  C   UNL     1      -0.321  11.108  21.929  0.00  0.00    +0.000 C 
ENDBRANCH  23  26
ENDBRANCH  21  23
ENDBRANCH   3  17
TORSDOF 4
ENDMDL
MODEL 9
REMARK VINA RESULT:      -8.3      3.236      4.522
REMARK  Name = 
REMARK  7 active torsions:
REMARK  status: ('A' for Active; 'I' for Inactive)
REMARK    1  A    between atoms: C_1  and  C_2
REMARK    2  A    between atoms: C_12  and  C_13
REMARK    3  A    between atoms: N_15  and  C_16
REMARK    4  A    between atoms: C_20  and  S_21
REMARK    5  A    between atoms: S_21  and  N_24
REMARK    6  A    between atoms: N_24  and  C_25
REMARK    7  A    between atoms: N_24  and  C_26
REMARK                            x       y       z     vdW  Elec       q    Type
REMARK                         _______ _______ _______ _____ _____    ______ ____
ROOT
ATOM      1  C   UNL     1       1.355   9.529  18.048  0.00  0.00    +0.000 C 
ATOM      2  O   UNL     1       2.230  10.161  17.470  0.00  0.00    +0.000 OA
ATOM      3  N   UNL     1       1.409   8.181  18.385  0.00  0.00    +0.000 N 
ATOM      4  H   UNL     1       0.544   7.738  18.669  0.00  0.00    +0.000 HD
ENDROOT
BRANCH   1  16
ATOM      5  C   UNL     1       1.091  11.356  20.440  0.00  0.00    +0.000 C 
ATOM      6  C   UNL     1      -0.035  11.074  19.489  0.00  0.00    +0.000 A 
ATOM      7  N   UNL     1      -1.205  11.708  19.794  0.00  0.00    +0.000 NA
ATOM      8  C   UNL     1      -2.295  11.483  19.047  0.00  0.00    +0.000 A 
ATOM      9  C   UNL     1      -3.482  12.116  19.377  0.00  0.00    +0.000 A 
ATOM     10  C   UNL     1      -4.637  11.883  18.643  0.00  0.00    +0.000 A 
ATOM     11  F   UNL     1      -5.776  12.500  18.986  0.00  0.00    +0.000 F 
ATOM     12  C   UNL     1      -4.634  11.016  17.559  0.00  0.00    +0.000 A 
ATOM     13  C   UNL     1      -3.452  10.376  17.202  0.00  0.00    +0.000 A 
ATOM     14  C   UNL     1      -2.276  10.609  17.942  0.00  0.00    +0.000 A 
ATOM     15  C   UNL     1      -1.065   9.983  17.616  0.00  0.00    +0.000 A 
ATOM     16  C   UNL     1       0.079  10.220  18.387  0.00  0.00    +0.000 A 
ENDBRANCH   1  16
BRANCH   3  17
ATOM     17  C   UNL     1       2.491   7.310  18.118  0.00  0.00    +0.000 A 
ATOM     18  C   UNL     1       3.694   7.735  17.544  0.00  0.00    +0.000 A 
ATOM     19  C   UNL     1       4.702   6.819  17.224  0.00  0.00    +0.000 A 
ATOM     20  C   UNL     1       4.509   5.462  17.455  0.00  0.00    +0.000 A 
ATOM     21  C   UNL     1       3.310   5.032  18.027  0.00  0.00    +0.000 A 
ATOM     22  C   UNL     1       2.325   5.951  18.412  0.00  0.00    +0.000 A 
BRANCH  21  23
ATOM     23  S   UNL     1       3.022   3.294  18.260  0.00  0.00    +0.000 S 
ATOM     24  O   UNL     1       2.331   2.783  17.095  0.00  0.00    +0.000 OA
ATOM     25  O   UNL     1       4.269   2.708  18.705  0.00  0.00    +0.000 OA
BRANCH  23  26
ATOM     26  N   UNL     1       1.919   3.257  19.574  0.00  0.00    +0.000 NA
ATOM     27  C   UNL     1       0.653   2.526  19.327  0.00  0.00    +0.000 C 
ATOM     28  C   UNL     1       2.549   2.793  20.835  0.00  0.00    +0.000 C 
ENDBRANCH  23  26
ENDBRANCH  21  23
ENDBRANCH   3  17
TORSDOF 4
ENDMDL
