MODEL 1
REMARK VINA RESULT:      -9.0      0.000      0.000
REMARK  Name = 
REMARK  4 active torsions:
REMARK  status: ('A' for Active; 'I' for Inactive)
REMARK    1  A    between atoms: C_1  and  C_2
REMARK    2  A    between atoms: C_5  and  N_6
REMARK    3  A    between atoms: C_7  and  C_9
REMARK    4  A    between atoms: C_20  and  C_21
REMARK                            x       y       z     vdW  Elec       q    Type
REMARK                         _______ _______ _______ _____ _____    ______ ____
ROOT
ATOM      1  C   UNL     1       4.103   2.171  19.276  0.00  0.00    +0.000 C 
ATOM      2  C   UNL     1       3.499   3.496  19.613  0.00  0.00    +0.000 A 
ATOM      3  C   UNL     1       2.197   3.380  20.098  0.00  0.00    +0.000 A 
ATOM      4  C   UNL     1       1.499   4.476  20.535  0.00  0.00    +0.000 A 
ATOM      5  C   UNL     1       2.068   5.737  20.520  0.00  0.00    +0.000 A 
ATOM      6  C   UNL     1       3.356   5.882  19.975  0.00  0.00    +0.000 A 
ATOM      7  C   UNL     1       4.096   4.771  19.483  0.00  0.00    +0.000 A 
ENDROOT
BRANCH   7   8
ATOM      8  C   UNL     1       5.518   4.949  18.951  0.00  0.00    +0.000 C 
ATOM      9  O   UNL     1       6.463   4.961  19.749  0.00  0.00    +0.000 OA
ATOM     10  N   UNL     1       5.736   5.106  17.568  0.00  0.00    +0.000 N 
ATOM     11  C   UNL     1       4.731   5.124  16.501  0.00  0.00    +0.000 C 
ATOM     12  C   UNL     1       5.204   4.424  15.215  0.00  0.00    +0.000 C 
ATOM     13  O   UNL     1       6.502   4.876  14.810  0.00  0.00    +0.000 OA
ATOM     14  C   UNL     1       7.466   4.747  15.874  0.00  0.00    +0.000 C 
ATOM     15  C   UNL     1       7.033   5.585  17.082  0.00  0.00    +0.000 C 
ENDBRANCH   7   8
BRANCH   5  16
ATOM     16  N   UNL     1       1.365   6.833  21.076  0.00  0.00    +0.000 N 
ATOM     17  C   UNL     1       1.309   8.106  20.449  0.00  0.00    +0.000 C 
ATOM     18  O   UNL     1       1.793   8.420  19.389  0.00  0.00    +0.000 OA
ATOM     19  H   UNL     1       0.794   6.684  21.900  0.00  0.00    +0.000 HD
BRANCH  17  20
ATOM     20  C   UNL     1       0.509   9.145  21.146  0.00  0.00    +0.000 A 
ATOM     21  C   UNL     1       0.623   9.297  22.524  0.00  0.00    +0.000 A 
ATOM     22  N   UNL     1      -0.004  10.306  23.181  0.00  0.00    +0.000 NA
ATOM     23  C   UNL     1      -0.706  11.166  22.420  0.00  0.00    +0.000 A 
ATOM     24  C   UNL     1      -1.354  12.244  23.012  0.00  0.00    +0.000 A 
ATOM     25  C   UNL     1      -2.071  13.168  22.251  0.00  0.00    +0.000 A 
ATOM     26  C   UNL     1      -2.139  13.026  20.871  0.00  0.00    +0.000 A 
ATOM     27  C   UNL     1      -1.498  11.948  20.264  0.00  0.00    +0.000 A 
ATOM     28  C   UNL     1      -0.800  11.013  21.009  0.00  0.00    +0.000 A 
ATOM     29  N   UNL     1      -0.213   9.987  20.370  0.00  0.00    +0.000 NA
ENDBRANCH  17  20
ENDBRANCH   5  16
TORSDOF 3
ENDMDL
MODEL 2
REMARK VINA RESULT:      -8.6      1.199      1.576
REMARK  Name = 
REMARK  4 active torsions:
REMARK  status: ('A' for Active; 'I' for Inactive)
REMARK    1  A    between atoms: C_1  and  C_2
REMARK    2  A    between atoms: C_5  and  N_6
REMARK    3  A    between atoms: C_7  and  C_9
REMARK    4  A    between atoms: C_20  and  C_21
REMARK                            x       y       z     vdW  Elec       q    Type
REMARK                         _______ _______ _______ _____ _____    ______ ____
ROOT
ATOM      1  C   UNL     1       4.283   1.661  19.661  0.00  0.00    +0.000 C 
ATOM      2  C   UNL     1       3.483   2.909  19.852  0.00  0.00    +0.000 A 
ATOM      3  C   UNL     1       2.927   2.994  21.127  0.00  0.00    +0.000 A 
ATOM      4  C   UNL     1       2.221   4.101  21.524  0.00  0.00    +0.000 A 
ATOM      5  C   UNL     1       2.047   5.179  20.675  0.00  0.00    +0.000 A 
ATOM      6  C   UNL     1       2.546   5.083  19.364  0.00  0.00    +0.000 A 
ATOM      7  C   UNL     1       3.254   3.936  18.908  0.00  0.00    +0.000 A 
ENDROOT
BRANCH   7   8
ATOM      8  C   UNL     1       3.838   3.884  17.496  0.00  0.00    +0.000 C 
ATOM      9  O   UNL     1       3.164   3.391  16.584  0.00  0.00    +0.000 OA
ATOM     10  N   UNL     1       5.131   4.386  17.251  0.00  0.00    +0.000 N 
ATOM     11  C   UNL     1       6.054   4.988  18.218  0.00  0.00    +0.000 C 
ATOM     12  C   UNL     1       6.858   6.163  17.634  0.00  0.00    +0.000 C 
ATOM     13  O   UNL     1       7.458   5.824  16.378  0.00  0.00    +0.000 OA
ATOM     14  C   UNL     1       6.483   5.325  15.440  0.00  0.00    +0.000 C 
ATOM     15  C   UNL     1       5.815   4.063  15.997  0.00  0.00    +0.000 C 
ENDBRANCH   7   8
BRANCH   5  16
ATOM     16  N   UNL     1       1.408   6.350  21.146  0.00  0.00    +0.000 N 
ATOM     17  C   UNL     1       1.554   7.613  20.512  0.00  0.00    +0.000 C 
ATOM     18  O   UNL     1       2.180   7.858  19.510  0.00  0.00    +0.000 OA
ATOM     19  H   UNL     1       0.739   6.275  21.904  0.00  0.00    +0.000 HD
BRANCH  17  20
ATOM     20  C   UNL     1       0.797   8.741  21.113  0.00  0.00    +0.000 A 
ATOM     21  C   UNL     1       0.916   9.004  22.474  0.00  0.00    +0.000 A 
ATOM     22  N   UNL     1       0.332  10.092  23.040  0.00  0.00    +0.000 NA
ATOM     23  C   UNL     1      -0.333  10.912  22.204  0.00  0.00    +0.000 A 
ATOM     24  C   UNL     1      -0.936  12.063  22.700  0.00  0.00    +0.000 A 
ATOM     25  C   UNL     1      -1.612  12.947  21.859  0.00  0.00    +0.000 A 
ATOM     26  C   UNL     1      -1.684  12.691  20.495  0.00  0.00    +0.000 A 
ATOM     27  C   UNL     1      -1.088  11.539  19.986  0.00  0.00    +0.000 A 
ATOM     28  C   UNL     1      -0.432  10.643  20.811  0.00  0.00    +0.000 A 
ATOM     29  N   UNL     1       0.113   9.542  20.265  0.00  0.00    +0.000 NA
ENDBRANCH  17  20
ENDBRANCH   5  16
TORSDOF 3
ENDMDL
MODEL 3
REMARK VINA RESULT:      -8.5      0.830      1.464
REMARK  Name = 
REMARK  4 active torsions:
REMARK  status: ('A' for Active; 'I' for Inactive)
REMARK    1  A    between atoms: C_1  and  C_2
REMARK    2  A    between atoms: C_5  and  N_6
REMARK    3  A    between atoms: C_7  and  C_9
REMARK    4  A    between atoms: C_20  and  C_21
REMARK                            x       y       z     vdW  Elec       q    Type
REMARK                         _______ _______ _______ _____ _____    ______ ____
ROOT
ATOM      1  C   UNL     1       4.076   2.447  19.817  0.00  0.00    +0.000 C 
ATOM      2  C   UNL     1       3.525   3.835  19.863  0.00  0.00    +0.000 A 
ATOM      3  C   UNL     1       2.221   3.875  20.352  0.00  0.00    +0.000 A 
ATOM      4  C   UNL     1       1.568   5.065  20.543  0.00  0.00    +0.000 A 
ATOM      5  C   UNL     1       2.186   6.271  20.268  0.00  0.00    +0.000 A 
ATOM      6  C   UNL     1       3.478   6.248  19.715  0.00  0.00    +0.000 A 
ATOM      7  C   UNL     1       4.174   5.030  19.472  0.00  0.00    +0.000 A 
ENDROOT
BRANCH   7   8
ATOM      8  C   UNL     1       5.600   5.036  18.925  0.00  0.00    +0.000 C 
ATOM      9  O   UNL     1       6.549   4.956  19.715  0.00  0.00    +0.000 OA
ATOM     10  N   UNL     1       5.821   5.142  17.538  0.00  0.00    +0.000 N 
ATOM     11  C   UNL     1       4.814   5.254  16.479  0.00  0.00    +0.000 C 
ATOM     12  C   UNL     1       5.191   4.481  15.203  0.00  0.00    +0.000 C 
ATOM     13  O   UNL     1       6.528   4.776  14.779  0.00  0.00    +0.000 OA
ATOM     14  C   UNL     1       7.482   4.558  15.838  0.00  0.00    +0.000 C 
ATOM     15  C   UNL     1       7.158   5.462  17.033  0.00  0.00    +0.000 C 
ENDBRANCH   7   8
BRANCH   5  16
ATOM     16  N   UNL     1       1.528   7.486  20.576  0.00  0.00    +0.000 N 
ATOM     17  C   UNL     1       1.458   8.573  19.665  0.00  0.00    +0.000 C 
ATOM     18  O   UNL     1       1.892   8.611  18.539  0.00  0.00    +0.000 OA
ATOM     19  H   UNL     1       0.998   7.554  21.437  0.00  0.00    +0.000 HD
BRANCH  17  20
ATOM     20  C   UNL     1       0.709   9.770  20.127  0.00  0.00    +0.000 A 
ATOM     21  C   UNL     1       0.420  10.792  19.230  0.00  0.00    +0.000 A 
ATOM     22  N   UNL     1      -0.358  11.848  19.583  0.00  0.00    +0.000 NA
ATOM     23  C   UNL     1      -0.859  11.825  20.833  0.00  0.00    +0.000 A 
ATOM     24  C   UNL     1      -1.688  12.854  21.265  0.00  0.00    +0.000 A 
ATOM     25  C   UNL     1      -2.243  12.851  22.544  0.00  0.00    +0.000 A 
ATOM     26  C   UNL     1      -1.979  11.799  23.413  0.00  0.00    +0.000 A 
ATOM     27  C   UNL     1      -1.146  10.763  22.996  0.00  0.00    +0.000 A 
ATOM     28  C   UNL     1      -0.573  10.764  21.736  0.00  0.00    +0.000 A 
ATOM     29  N   UNL     1       0.234   9.744  21.394  0.00  0.00    +0.000 NA
ENDBRANCH  17  20
ENDBRANCH   5  16
TORSDOF 3
ENDMDL
MODEL 4
REMARK VINA RESULT:      -8.4      1.369      2.072
REMARK  Name = 
REMARK  4 active torsions:
REMARK  status: ('A' for Active; 'I' for Inactive)
REMARK    1  A    between atoms: C_1  and  C_2
REMARK    2  A    between atoms: C_5  and  N_6
REMARK    3  A    between atoms: C_7  and  C_9
REMARK    4  A    between atoms: C_20  and  C_21
REMARK                            x       y       z     vdW  Elec       q    Type
REMARK                         _______ _______ _______ _____ _____    ______ ____
ROOT
ATOM      1  C   UNL     1       4.098   1.909  19.594  0.00  0.00    +0.000 C 
ATOM      2  C   UNL     1       3.416   3.239  19.627  0.00  0.00    +0.000 A 
ATOM      3  C   UNL     1       2.824   3.503  20.860  0.00  0.00    +0.000 A 
ATOM      4  C   UNL     1       2.216   4.706  21.115  0.00  0.00    +0.000 A 
ATOM      5  C   UNL     1       2.179   5.703  20.158  0.00  0.00    +0.000 A 
ATOM      6  C   UNL     1       2.714   5.431  18.887  0.00  0.00    +0.000 A 
ATOM      7  C   UNL     1       3.324   4.182  18.578  0.00  0.00    +0.000 A 
ENDROOT
BRANCH   7   8
ATOM      8  C   UNL     1       3.951   3.934  17.206  0.00  0.00    +0.000 C 
ATOM      9  O   UNL     1       3.313   3.299  16.358  0.00  0.00    +0.000 OA
ATOM     10  N   UNL     1       5.243   4.420  16.926  0.00  0.00    +0.000 N 
ATOM     11  C   UNL     1       6.127   5.176  17.819  0.00  0.00    +0.000 C 
ATOM     12  C   UNL     1       6.930   6.268  17.091  0.00  0.00    +0.000 C 
ATOM     13  O   UNL     1       7.574   5.759  15.916  0.00  0.00    +0.000 OA
ATOM     14  C   UNL     1       6.636   5.108  15.035  0.00  0.00    +0.000 C 
ATOM     15  C   UNL     1       5.971   3.929  15.753  0.00  0.00    +0.000 C 
ENDBRANCH   7   8
BRANCH   5  16
ATOM     16  N   UNL     1       1.639   6.971  20.484  0.00  0.00    +0.000 N 
ATOM     17  C   UNL     1       1.764   8.100  19.632  0.00  0.00    +0.000 C 
ATOM     18  O   UNL     1       2.286   8.140  18.545  0.00  0.00    +0.000 OA
ATOM     19  H   UNL     1       1.054   7.060  21.307  0.00  0.00    +0.000 HD
BRANCH  17  20
ATOM     20  C   UNL     1       1.120   9.353  20.104  0.00  0.00    +0.000 A 
ATOM     21  C   UNL     1       1.018  10.443  19.246  0.00  0.00    +0.000 A 
ATOM     22  N   UNL     1       0.339  11.564  19.601  0.00  0.00    +0.000 NA
ATOM     23  C   UNL     1      -0.258  11.541  20.808  0.00  0.00    +0.000 A 
ATOM     24  C   UNL     1      -0.997  12.639  21.234  0.00  0.00    +0.000 A 
ATOM     25  C   UNL     1      -1.648  12.640  22.468  0.00  0.00    +0.000 A 
ATOM     26  C   UNL     1      -1.573  11.525  23.294  0.00  0.00    +0.000 A 
ATOM     27  C   UNL     1      -0.831  10.420  22.881  0.00  0.00    +0.000 A 
ATOM     28  C   UNL     1      -0.164  10.413  21.669  0.00  0.00    +0.000 A 
ATOM     29  N   UNL     1       0.547   9.324  21.330  0.00  0.00    +0.000 NA
ENDBRANCH  17  20
ENDBRANCH   5  16
TORSDOF 3
ENDMDL
MODEL 5
REMARK VINA RESULT:      -8.4      4.918      8.337
REMARK  Name = 
REMARK  4 active torsions:
REMARK  status: ('A' for Active; 'I' for Inactive)
REMARK    1  A    between atoms: C_1  and  C_2
REMARK    2  A    between atoms: C_5  and  N_6
REMARK    3  A    between atoms: C_7  and  C_9
REMARK    4  A    between atoms: C_20  and  C_21
REMARK                            x       y       z     vdW  Elec       q    Type
REMARK                         _______ _______ _______ _____ _____    ______ ____
ROOT
ATOM      1  C   UNL     1       4.942   3.530  16.019  0.00  0.00    +0.000 C 
ATOM      2  C   UNL     1       5.794   4.484  16.792  0.00  0.00    +0.000 A 
ATOM      3  C   UNL     1       6.670   5.197  15.975  0.00  0.00    +0.000 A 
ATOM      4  C   UNL     1       7.482   6.176  16.486  0.00  0.00    +0.000 A 
ATOM      5  C   UNL     1       7.452   6.499  17.830  0.00  0.00    +0.000 A 
ATOM      6  C   UNL     1       6.621   5.748  18.679  0.00  0.00    +0.000 A 
ATOM      7  C   UNL     1       5.789   4.702  18.189  0.00  0.00    +0.000 A 
ENDROOT
BRANCH   7   8
ATOM      8  C   UNL     1       4.851   3.941  19.125  0.00  0.00    +0.000 C 
ATOM      9  O   UNL     1       5.216   2.854  19.590  0.00  0.00    +0.000 OA
ATOM     10  N   UNL     1       3.587   4.475  19.441  0.00  0.00    +0.000 N 
ATOM     11  C   UNL     1       3.006   5.736  18.968  0.00  0.00    +0.000 C 
ATOM     12  C   UNL     1       2.180   6.460  20.045  0.00  0.00    +0.000 C 
ATOM     13  O   UNL     1       1.242   5.579  20.677  0.00  0.00    +0.000 OA
ATOM     14  C   UNL     1       1.889   4.402  21.202  0.00  0.00    +0.000 C 
ATOM     15  C   UNL     1       2.571   3.627  20.069  0.00  0.00    +0.000 C 
ENDBRANCH   7   8
BRANCH   5  16
ATOM     16  N   UNL     1       8.222   7.586  18.311  0.00  0.00    +0.000 N 
ATOM     17  C   UNL     1       7.998   8.926  17.899  0.00  0.00    +0.000 C 
ATOM     18  O   UNL     1       7.143   9.327  17.148  0.00  0.00    +0.000 OA
ATOM     19  H   UNL     1       8.893   7.423  19.053  0.00  0.00    +0.000 HD
BRANCH  17  20
ATOM     20  C   UNL     1       8.874   9.956  18.514  0.00  0.00    +0.000 A 
ATOM     21  C   UNL     1       9.073   9.961  19.891  0.00  0.00    +0.000 A 
ATOM     22  N   UNL     1       9.953  10.812  20.479  0.00  0.00    +0.000 NA
ATOM     23  C   UNL     1      10.642  11.620  19.650  0.00  0.00    +0.000 A 
ATOM     24  C   UNL     1      11.583  12.501  20.169  0.00  0.00    +0.000 A 
ATOM     25  C   UNL     1      12.333  13.335  19.339  0.00  0.00    +0.000 A 
ATOM     26  C   UNL     1      12.153  13.287  17.962  0.00  0.00    +0.000 A 
ATOM     27  C   UNL     1      11.210  12.411  17.428  0.00  0.00    +0.000 A 
ATOM     28  C   UNL     1      10.446  11.593  18.242  0.00  0.00    +0.000 A 
ATOM     29  N   UNL     1       9.541  10.778  17.671  0.00  0.00    +0.000 NA
ENDBRANCH  17  20
ENDBRANCH   5  16
TORSDOF 3
ENDMDL
MODEL 6
REMARK VINA RESULT:      -8.2      2.485      3.004
REMARK  Name = 
REMARK  4 active torsions:
REMARK  status: ('A' for Active; 'I' for Inactive)
REMARK    1  A    between atoms: C_1  and  C_2
REMARK    2  A    between atoms: C_5  and  N_6
REMARK    3  A    between atoms: C_7  and  C_9
REMARK    4  A    between atoms: C_20  and  C_21
REMARK                            x       y       z     vdW  Elec       q    Type
REMARK                         _______ _______ _______ _____ _____    ______ ____
ROOT
ATOM      1  C   UNL     1       3.641   2.724  19.900  0.00  0.00    +0.000 C 
ATOM      2  C   UNL     1       3.122   4.095  19.607  0.00  0.00    +0.000 A 
ATOM      3  C   UNL     1       2.470   4.662  20.700  0.00  0.00    +0.000 A 
ATOM      4  C   UNL     1       1.991   5.946  20.656  0.00  0.00    +0.000 A 
ATOM      5  C   UNL     1       2.148   6.728  19.526  0.00  0.00    +0.000 A 
ATOM      6  C   UNL     1       2.746   6.151  18.392  0.00  0.00    +0.000 A 
ATOM      7  C   UNL     1       3.226   4.811  18.392  0.00  0.00    +0.000 A 
ENDROOT
BRANCH   7   8
ATOM      8  C   UNL     1       3.925   4.229  17.165  0.00  0.00    +0.000 C 
ATOM      9  O   UNL     1       3.316   3.425  16.449  0.00  0.00    +0.000 OA
ATOM     10  N   UNL     1       5.250   4.603  16.867  0.00  0.00    +0.000 N 
ATOM     11  C   UNL     1       6.107   5.528  17.615  0.00  0.00    +0.000 C 
ATOM     12  C   UNL     1       6.995   6.396  16.706  0.00  0.00    +0.000 C 
ATOM     13  O   UNL     1       7.689   5.607  15.731  0.00  0.00    +0.000 OA
ATOM     14  C   UNL     1       6.782   4.787  14.967  0.00  0.00    +0.000 C 
ATOM     15  C   UNL     1       6.028   3.829  15.896  0.00  0.00    +0.000 C 
ENDBRANCH   7   8
BRANCH   5  16
ATOM     16  N   UNL     1       1.739   8.084  19.546  0.00  0.00    +0.000 N 
ATOM     17  C   UNL     1       1.852   8.935  18.415  0.00  0.00    +0.000 C 
ATOM     18  O   UNL     1       2.255   8.641  17.316  0.00  0.00    +0.000 OA
ATOM     19  H   UNL     1       1.255   8.440  20.362  0.00  0.00    +0.000 HD
BRANCH  17  20
ATOM     20  C   UNL     1       1.354  10.324  18.588  0.00  0.00    +0.000 A 
ATOM     21  C   UNL     1       0.130  10.547  19.210  0.00  0.00    +0.000 A 
ATOM     22  N   UNL     1      -0.307  11.802  19.489  0.00  0.00    +0.000 NA
ATOM     23  C   UNL     1       0.527  12.808  19.162  0.00  0.00    +0.000 A 
ATOM     24  C   UNL     1       0.167  14.122  19.440  0.00  0.00    +0.000 A 
ATOM     25  C   UNL     1       1.017  15.186  19.138  0.00  0.00    +0.000 A 
ATOM     26  C   UNL     1       2.254  14.943  18.556  0.00  0.00    +0.000 A 
ATOM     27  C   UNL     1       2.627  13.631  18.268  0.00  0.00    +0.000 A 
ATOM     28  C   UNL     1       1.785  12.568  18.545  0.00  0.00    +0.000 A 
ATOM     29  N   UNL     1       2.192  11.325  18.233  0.00  0.00    +0.000 NA
ENDBRANCH  17  20
ENDBRANCH   5  16
TORSDOF 3
ENDMDL
MODEL 7
REMARK VINA RESULT:      -8.1      2.582      9.215
REMARK  Name = 
REMARK  4 active torsions:
REMARK  status: ('A' for Active; 'I' for Inactive)
REMARK    1  A    between atoms: C_1  and  C_2
REMARK    2  A    between atoms: C_5  and  N_6
REMARK    3  A    between atoms: C_7  and  C_9
REMARK    4  A    between atoms: C_20  and  C_21
REMARK                            x       y       z     vdW  Elec       q    Type
REMARK                         _______ _______ _______ _____ _____    ______ ____
ROOT
ATOM      1  C   UNL     1      -1.498  11.578  23.078  0.00  0.00    +0.000 C 
ATOM      2  C   UNL     1      -0.571  10.761  22.236  0.00  0.00    +0.000 A 
ATOM      3  C   UNL     1      -0.048   9.669  22.927  0.00  0.00    +0.000 A 
ATOM      4  C   UNL     1       0.763   8.755  22.305  0.00  0.00    +0.000 A 
ATOM      5  C   UNL     1       1.082   8.879  20.965  0.00  0.00    +0.000 A 
ATOM      6  C   UNL     1       0.615  10.008  20.269  0.00  0.00    +0.000 A 
ATOM      7  C   UNL     1      -0.201  10.993  20.891  0.00  0.00    +0.000 A 
ENDROOT
BRANCH   7   8
ATOM      8  C   UNL     1      -0.744  12.180  20.095  0.00  0.00    +0.000 C 
ATOM      9  O   UNL     1      -1.887  12.119  19.629  0.00  0.00    +0.000 OA
ATOM     10  N   UNL     1       0.061  13.318  19.894  0.00  0.00    +0.000 N 
ATOM     11  C   UNL     1       1.430  13.540  20.370  0.00  0.00    +0.000 C 
ATOM     12  C   UNL     1       1.688  14.992  20.810  0.00  0.00    +0.000 C 
ATOM     13  O   UNL     1       1.246  15.933  19.823  0.00  0.00    +0.000 OA
ATOM     14  C   UNL     1      -0.134  15.720  19.466  0.00  0.00    +0.000 C 
ATOM     15  C   UNL     1      -0.318  14.313  18.887  0.00  0.00    +0.000 C 
ENDBRANCH   7   8
BRANCH   5  16
ATOM     16  N   UNL     1       1.832   7.864  20.324  0.00  0.00    +0.000 N 
ATOM     17  C   UNL     1       2.130   7.892  18.935  0.00  0.00    +0.000 C 
ATOM     18  O   UNL     1       1.838   8.754  18.143  0.00  0.00    +0.000 OA
ATOM     19  H   UNL     1       2.263   7.140  20.887  0.00  0.00    +0.000 HD
BRANCH  17  20
ATOM     20  C   UNL     1       2.951   6.767  18.418  0.00  0.00    +0.000 A 
ATOM     21  C   UNL     1       2.689   5.469  18.845  0.00  0.00    +0.000 A 
ATOM     22  N   UNL     1       3.339   4.402  18.312  0.00  0.00    +0.000 NA
ATOM     23  C   UNL     1       4.218   4.672  17.328  0.00  0.00    +0.000 A 
ATOM     24  C   UNL     1       4.904   3.633  16.709  0.00  0.00    +0.000 A 
ATOM     25  C   UNL     1       5.803   3.874  15.671  0.00  0.00    +0.000 A 
ATOM     26  C   UNL     1       6.020   5.173  15.227  0.00  0.00    +0.000 A 
ATOM     27  C   UNL     1       5.342   6.224  15.841  0.00  0.00    +0.000 A 
ATOM     28  C   UNL     1       4.462   6.001  16.885  0.00  0.00    +0.000 A 
ATOM     29  N   UNL     1       3.847   7.056  17.447  0.00  0.00    +0.000 NA
ENDBRANCH  17  20
ENDBRANCH   5  16
TORSDOF 3
ENDMDL
MODEL 8
REMARK VINA RESULT:      -8.0      1.540      1.879
REMARK  Name = 
REMARK  4 active torsions:
REMARK  status: ('A' for Active; 'I' for Inactive)
REMARK    1  A    between atoms: C_1  and  C_2
REMARK    2  A    between atoms: C_5  and  N_6
REMARK    3  A    between atoms: C_7  and  C_9
REMARK    4  A    between atoms: C_20  and  C_21
REMARK                            x       y       z     vdW  Elec       q    Type
REMARK                         _______ _______ _______ _____ _____    ______ ____
ROOT
ATOM      1  C   UNL     1       3.975   2.080  19.765  0.00  0.00    +0.000 C 
ATOM      2  C   UNL     1       3.315   3.421  19.791  0.00  0.00    +0.000 A 
ATOM      3  C   UNL     1       2.736   3.706  21.026  0.00  0.00    +0.000 A 
ATOM      4  C   UNL     1       2.148   4.920  21.274  0.00  0.00    +0.000 A 
ATOM      5  C   UNL     1       2.121   5.910  20.309  0.00  0.00    +0.000 A 
ATOM      6  C   UNL     1       2.643   5.617  19.037  0.00  0.00    +0.000 A 
ATOM      7  C   UNL     1       3.231   4.357  18.734  0.00  0.00    +0.000 A 
ENDROOT
BRANCH   7   8
ATOM      8  C   UNL     1       3.845   4.087  17.361  0.00  0.00    +0.000 C 
ATOM      9  O   UNL     1       3.184   3.472  16.516  0.00  0.00    +0.000 OA
ATOM     10  N   UNL     1       5.152   4.530  17.076  0.00  0.00    +0.000 N 
ATOM     11  C   UNL     1       6.062   5.257  17.965  0.00  0.00    +0.000 C 
ATOM     12  C   UNL     1       6.898   6.322  17.233  0.00  0.00    +0.000 C 
ATOM     13  O   UNL     1       7.521   5.791  16.056  0.00  0.00    +0.000 OA
ATOM     14  C   UNL     1       6.560   5.170  15.179  0.00  0.00    +0.000 C 
ATOM     15  C   UNL     1       5.859   4.014  15.901  0.00  0.00    +0.000 C 
ENDBRANCH   7   8
BRANCH   5  16
ATOM     16  N   UNL     1       1.604   7.188  20.627  0.00  0.00    +0.000 N 
ATOM     17  C   UNL     1       1.646   8.280  19.720  0.00  0.00    +0.000 C 
ATOM     18  O   UNL     1       2.071   8.276  18.591  0.00  0.00    +0.000 OA
ATOM     19  H   UNL     1       1.093   7.311  21.494  0.00  0.00    +0.000 HD
BRANCH  17  20
ATOM     20  C   UNL     1       1.038   9.550  20.194  0.00  0.00    +0.000 A 
ATOM     21  C   UNL     1       0.902   9.784  21.559  0.00  0.00    +0.000 A 
ATOM     22  N   UNL     1       0.457  10.975  22.034  0.00  0.00    +0.000 NA
ATOM     23  C   UNL     1       0.193  11.922  21.113  0.00  0.00    +0.000 A 
ATOM     24  C   UNL     1      -0.240  13.179  21.518  0.00  0.00    +0.000 A 
ATOM     25  C   UNL     1      -0.499  14.191  20.593  0.00  0.00    +0.000 A 
ATOM     26  C   UNL     1      -0.316  13.954  19.237  0.00  0.00    +0.000 A 
ATOM     27  C   UNL     1       0.113  12.697  18.816  0.00  0.00    +0.000 A 
ATOM     28  C   UNL     1       0.355  11.679  19.721  0.00  0.00    +0.000 A 
ATOM     29  N   UNL     1       0.754  10.483  19.255  0.00  0.00    +0.000 NA
ENDBRANCH  17  20
ENDBRANCH   5  16
TORSDOF 3
ENDMDL
MODEL 9
REMARK VINA RESULT:      -8.0      5.028      8.279
REMARK  Name = 
REMARK  4 active torsions:
REMARK  status: ('A' for Active; 'I' for Inactive)
REMARK    1  A    between atoms: C_1  and  C_2
REMARK    2  A    between atoms: C_5  and  N_6
REMARK    3  A    between atoms: C_7  and  C_9
REMARK    4  A    between atoms: C_20  and  C_21
REMARK                            x       y       z     vdW  Elec       q    Type
REMARK                         _______ _______ _______ _____ _____    ______ ____
ROOT
ATOM      1  C   UNL     1       4.581   3.457  16.422  0.00  0.00    +0.000 C 
ATOM      2  C   UNL     1       5.146   4.781  16.823  0.00  0.00    +0.000 A 
ATOM      3  C   UNL     1       6.424   4.994  16.309  0.00  0.00    +0.000 A 
ATOM      4  C   UNL     1       7.080   6.182  16.502  0.00  0.00    +0.000 A 
ATOM      5  C   UNL     1       6.491   7.217  17.204  0.00  0.00    +0.000 A 
ATOM      6  C   UNL     1       5.230   6.998  17.783  0.00  0.00    +0.000 A 
ATOM      7  C   UNL     1       4.533   5.766  17.632  0.00  0.00    +0.000 A 
ENDROOT
BRANCH   7   8
ATOM      8  C   UNL     1       3.137   5.576  18.223  0.00  0.00    +0.000 C 
ATOM      9  O   UNL     1       2.188   6.207  17.741  0.00  0.00    +0.000 OA
ATOM     10  N   UNL     1       2.945   4.699  19.308  0.00  0.00    +0.000 N 
ATOM     11  C   UNL     1       3.959   3.892  19.994  0.00  0.00    +0.000 C 
ATOM     12  C   UNL     1       3.444   2.504  20.414  0.00  0.00    +0.000 C 
ATOM     13  O   UNL     1       2.191   2.590  21.105  0.00  0.00    +0.000 OA
ATOM     14  C   UNL     1       1.209   3.316  20.338  0.00  0.00    +0.000 C 
ATOM     15  C   UNL     1       1.698   4.744  20.074  0.00  0.00    +0.000 C 
ENDBRANCH   7   8
BRANCH   5  16
ATOM     16  N   UNL     1       7.147   8.468  17.295  0.00  0.00    +0.000 N 
ATOM     17  C   UNL     1       8.201   8.717  18.214  0.00  0.00    +0.000 C 
ATOM     18  O   UNL     1       8.696   7.933  18.987  0.00  0.00    +0.000 OA
ATOM     19  H   UNL     1       6.931   9.188  16.615  0.00  0.00    +0.000 HD
BRANCH  17  20
ATOM     20  C   UNL     1       8.805  10.074  18.169  0.00  0.00    +0.000 A 
ATOM     21  C   UNL     1       8.110  11.118  17.568  0.00  0.00    +0.000 A 
ATOM     22  N   UNL     1       8.575  12.394  17.605  0.00  0.00    +0.000 NA
ATOM     23  C   UNL     1       9.720  12.590  18.286  0.00  0.00    +0.000 A 
ATOM     24  C   UNL     1      10.248  13.871  18.397  0.00  0.00    +0.000 A 
ATOM     25  C   UNL     1      11.419  14.114  19.115  0.00  0.00    +0.000 A 
ATOM     26  C   UNL     1      12.077  13.065  19.746  0.00  0.00    +0.000 A 
ATOM     27  C   UNL     1      11.561  11.775  19.640  0.00  0.00    +0.000 A 
ATOM     28  C   UNL     1      10.411  11.517  18.915  0.00  0.00    +0.000 A 
ATOM     29  N   UNL     1       9.968  10.250  18.836  0.00  0.00    +0.000 NA
ENDBRANCH  17  20
ENDBRANCH   5  16
TORSDOF 3
ENDMDL
