MODEL 1
REMARK VINA RESULT:      -8.0      0.000      0.000
REMARK  Name = 
REMARK  6 active torsions:
REMARK  status: ('A' for Active; 'I' for Inactive)
REMARK    1  A    between atoms: C_1  and  C_2
REMARK    2  A    between atoms: C_5  and  N_6
REMARK    3  A    between atoms: C_12  and  N_13
REMARK    4  A    between atoms: C_20  and  C_21
REMARK    5  A    between atoms: C_20  and  C_23
REMARK    6  A    between atoms: C_21  and  O_22
REMARK                            x       y       z     vdW  Elec       q    Type
REMARK                         _______ _______ _______ _____ _____    ______ ____
ROOT
ATOM      1  N   UNL     1       1.535   8.543  19.719  0.00  0.00    +0.000 N 
ATOM      2  C   UNL     1       1.105   9.057  20.931  0.00  0.00    +0.000 C 
ATOM      3  O   UNL     1       1.375   8.582  22.027  0.00  0.00    +0.000 OA
ATOM      4  N   UNL     1       0.314  10.225  20.804  0.00  0.00    +0.000 N 
ATOM      5  C   UNL     1      -0.135  10.842  22.058  0.00  0.00    +0.000 C 
ATOM      6  C   UNL     1      -0.671  12.266  21.890  0.00  0.00    +0.000 C 
ATOM      7  C   UNL     1      -1.690  12.361  20.749  0.00  0.00    +0.000 C 
ATOM      8  C   UNL     1      -1.067  11.871  19.414  0.00  0.00    +0.000 C 
ATOM      9  C   UNL     1      -0.596  10.403  19.662  0.00  0.00    +0.000 C 
ATOM     10  H   UNL     1       1.549   9.202  18.961  0.00  0.00    +0.000 HD
ENDROOT
BRANCH   1  17
ATOM     11  C   UNL     1       3.302   8.303  17.389  0.00  0.00    +0.000 C 
ATOM     12  C   UNL     1       2.934   7.147  18.284  0.00  0.00    +0.000 A 
ATOM     13  C   UNL     1       3.429   5.882  17.927  0.00  0.00    +0.000 A 
ATOM     14  C   UNL     1       3.201   4.771  18.732  0.00  0.00    +0.000 A 
ATOM     15  C   UNL     1       2.471   4.908  19.916  0.00  0.00    +0.000 A 
ATOM     16  C   UNL     1       1.912   6.154  20.251  0.00  0.00    +0.000 A 
ATOM     17  C   UNL     1       2.129   7.283  19.442  0.00  0.00    +0.000 A 
BRANCH  15  18
ATOM     18  N   UNL     1       2.334   3.779  20.762  0.00  0.00    +0.000 N 
ATOM     19  C   UNL     1       1.216   3.229  21.325  0.00  0.00    +0.000 A 
ATOM     20  N   UNL     1       1.562   2.213  22.085  0.00  0.00    +0.000 NA
ATOM     21  N   UNL     1       2.925   2.126  21.989  0.00  0.00    +0.000 NA
ATOM     22  N   UNL     1       3.404   3.062  21.183  0.00  0.00    +0.000 NA
ENDBRANCH  15  18
ENDBRANCH   1  17
BRANCH   8  23
ATOM     23  C   UNL     1       0.063  12.851  19.004  0.00  0.00    +0.000 A 
ATOM     24  C   UNL     1       1.354  12.418  18.652  0.00  0.00    +0.000 A 
ATOM     25  C   UNL     1       2.407  13.328  18.488  0.00  0.00    +0.000 A 
ATOM     26  C   UNL     1       2.189  14.691  18.645  0.00  0.00    +0.000 A 
ATOM     27  C   UNL     1       0.911  15.152  18.933  0.00  0.00    +0.000 A 
ATOM     28  C   UNL     1      -0.138  14.245  19.102  0.00  0.00    +0.000 A 
ENDBRANCH   8  23
BRANCH   8  29
ATOM     29  C   UNL     1      -2.141  11.759  18.288  0.00  0.00    +0.000 C 
BRANCH  29  30
ATOM     30  O   UNL     1      -1.718  12.202  17.008  0.00  0.00    +0.000 OA
ATOM     31  H   UNL     1      -2.393  11.943  16.361  0.00  0.00    +0.000 HD
ENDBRANCH  29  30
ENDBRANCH   8  29
TORSDOF 5
ENDMDL
MODEL 2
REMARK VINA RESULT:      -7.9      3.074      4.700
REMARK  Name = 
REMARK  6 active torsions:
REMARK  status: ('A' for Active; 'I' for Inactive)
REMARK    1  A    between atoms: C_1  and  C_2
REMARK    2  A    between atoms: C_5  and  N_6
REMARK    3  A    between atoms: C_12  and  N_13
REMARK    4  A    between atoms: C_20  and  C_21
REMARK    5  A    between atoms: C_20  and  C_23
REMARK    6  A    between atoms: C_21  and  O_22
REMARK                            x       y       z     vdW  Elec       q    Type
REMARK                         _______ _______ _______ _____ _____    ______ ____
ROOT
ATOM      1  N   UNL     1       1.858   8.653  18.606  0.00  0.00    +0.000 N 
ATOM      2  C   UNL     1       2.133   9.948  18.196  0.00  0.00    +0.000 C 
ATOM      3  O   UNL     1       3.090  10.273  17.504  0.00  0.00    +0.000 OA
ATOM      4  N   UNL     1       1.183  10.899  18.641  0.00  0.00    +0.000 N 
ATOM      5  C   UNL     1       1.398  12.282  18.199  0.00  0.00    +0.000 C 
ATOM      6  C   UNL     1       0.182  13.191  18.398  0.00  0.00    +0.000 C 
ATOM      7  C   UNL     1      -0.395  13.070  19.813  0.00  0.00    +0.000 C 
ATOM      8  C   UNL     1      -0.780  11.599  20.126  0.00  0.00    +0.000 C 
ATOM      9  C   UNL     1       0.524  10.758  19.948  0.00  0.00    +0.000 C 
ATOM     10  H   UNL     1       0.897   8.481  18.845  0.00  0.00    +0.000 HD
ENDROOT
BRANCH   1  17
ATOM     11  C   UNL     1       1.448   6.538  20.597  0.00  0.00    +0.000 C 
ATOM     12  C   UNL     1       2.536   6.508  19.554  0.00  0.00    +0.000 A 
ATOM     13  C   UNL     1       3.429   5.424  19.596  0.00  0.00    +0.000 A 
ATOM     14  C   UNL     1       4.420   5.276  18.632  0.00  0.00    +0.000 A 
ATOM     15  C   UNL     1       4.534   6.212  17.601  0.00  0.00    +0.000 A 
ATOM     16  C   UNL     1       3.690   7.337  17.585  0.00  0.00    +0.000 A 
ATOM     17  C   UNL     1       2.690   7.503  18.558  0.00  0.00    +0.000 A 
BRANCH  15  18
ATOM     18  N   UNL     1       5.491   5.985  16.581  0.00  0.00    +0.000 N 
ATOM     19  C   UNL     1       5.347   5.406  15.350  0.00  0.00    +0.000 A 
ATOM     20  N   UNL     1       6.517   5.356  14.750  0.00  0.00    +0.000 NA
ATOM     21  N   UNL     1       7.406   5.920  15.625  0.00  0.00    +0.000 NA
ATOM     22  N   UNL     1       6.796   6.315  16.733  0.00  0.00    +0.000 NA
ENDBRANCH  15  18
ENDBRANCH   1  17
BRANCH   8  23
ATOM     23  C   UNL     1      -1.949  11.183  19.195  0.00  0.00    +0.000 A 
ATOM     24  C   UNL     1      -1.841  10.138  18.260  0.00  0.00    +0.000 A 
ATOM     25  C   UNL     1      -2.834   9.920  17.297  0.00  0.00    +0.000 A 
ATOM     26  C   UNL     1      -3.968  10.722  17.262  0.00  0.00    +0.000 A 
ATOM     27  C   UNL     1      -4.130  11.722  18.212  0.00  0.00    +0.000 A 
ATOM     28  C   UNL     1      -3.138  11.944  19.169  0.00  0.00    +0.000 A 
ENDBRANCH   8  23
BRANCH   8  29
ATOM     29  C   UNL     1      -1.169  11.415  21.625  0.00  0.00    +0.000 C 
BRANCH  29  30
ATOM     30  O   UNL     1      -0.089  11.107  22.493  0.00  0.00    +0.000 OA
ATOM     31  H   UNL     1      -0.457  10.758  23.320  0.00  0.00    +0.000 HD
ENDBRANCH  29  30
ENDBRANCH   8  29
TORSDOF 5
ENDMDL
MODEL 3
REMARK VINA RESULT:      -7.8      2.969      4.707
REMARK  Name = 
REMARK  6 active torsions:
REMARK  status: ('A' for Active; 'I' for Inactive)
REMARK    1  A    between atoms: C_1  and  C_2
REMARK    2  A    between atoms: C_5  and  N_6
REMARK    3  A    between atoms: C_12  and  N_13
REMARK    4  A    between atoms: C_20  and  C_21
REMARK    5  A    between atoms: C_20  and  C_23
REMARK    6  A    between atoms: C_21  and  O_22
REMARK                            x       y       z     vdW  Elec       q    Type
REMARK                         _______ _______ _______ _____ _____    ______ ____
ROOT
ATOM      1  N   UNL     1       1.776   8.577  18.658  0.00  0.00    +0.000 N 
ATOM      2  C   UNL     1       2.146   9.858  18.282  0.00  0.00    +0.000 C 
ATOM      3  O   UNL     1       3.144  10.133  17.626  0.00  0.00    +0.000 OA
ATOM      4  N   UNL     1       1.245  10.860  18.716  0.00  0.00    +0.000 N 
ATOM      5  C   UNL     1       1.561  12.235  18.309  0.00  0.00    +0.000 C 
ATOM      6  C   UNL     1       0.401  13.217  18.489  0.00  0.00    +0.000 C 
ATOM      7  C   UNL     1      -0.227  13.108  19.883  0.00  0.00    +0.000 C 
ATOM      8  C   UNL     1      -0.716  11.659  20.154  0.00  0.00    +0.000 C 
ATOM      9  C   UNL     1       0.537  10.739  19.999  0.00  0.00    +0.000 C 
ATOM     10  H   UNL     1       0.799   8.463  18.864  0.00  0.00    +0.000 HD
ENDROOT
BRANCH   1  17
ATOM     11  C   UNL     1       1.481   6.646  20.846  0.00  0.00    +0.000 C 
ATOM     12  C   UNL     1       2.441   6.470  19.697  0.00  0.00    +0.000 A 
ATOM     13  C   UNL     1       3.273   5.339  19.729  0.00  0.00    +0.000 A 
ATOM     14  C   UNL     1       4.138   5.057  18.678  0.00  0.00    +0.000 A 
ATOM     15  C   UNL     1       4.184   5.905  17.568  0.00  0.00    +0.000 A 
ATOM     16  C   UNL     1       3.406   7.076  17.552  0.00  0.00    +0.000 A 
ATOM     17  C   UNL     1       2.534   7.377  18.613  0.00  0.00    +0.000 A 
BRANCH  15  18
ATOM     18  N   UNL     1       5.005   5.543  16.471  0.00  0.00    +0.000 N 
ATOM     19  C   UNL     1       5.370   4.307  16.012  0.00  0.00    +0.000 A 
ATOM     20  N   UNL     1       6.189   4.442  14.993  0.00  0.00    +0.000 NA
ATOM     21  N   UNL     1       6.334   5.791  14.810  0.00  0.00    +0.000 NA
ATOM     22  N   UNL     1       5.614   6.469  15.692  0.00  0.00    +0.000 NA
ENDBRANCH  15  18
ENDBRANCH   1  17
BRANCH   8  23
ATOM     23  C   UNL     1      -1.878  11.336  19.180  0.00  0.00    +0.000 A 
ATOM     24  C   UNL     1      -3.085  12.060  19.170  0.00  0.00    +0.000 A 
ATOM     25  C   UNL     1      -4.189  11.621  18.428  0.00  0.00    +0.000 A 
ATOM     26  C   UNL     1      -4.106  10.467  17.659  0.00  0.00    +0.000 A 
ATOM     27  C   UNL     1      -2.908   9.766  17.602  0.00  0.00    +0.000 A 
ATOM     28  C   UNL     1      -1.809  10.200  18.346  0.00  0.00    +0.000 A 
ENDBRANCH   8  23
BRANCH   8  29
ATOM     29  C   UNL     1      -1.164  11.474  21.637  0.00  0.00    +0.000 C 
BRANCH  29  30
ATOM     30  O   UNL     1      -0.107  11.434  22.583  0.00  0.00    +0.000 OA
ATOM     31  H   UNL     1       0.013  10.512  22.861  0.00  0.00    +0.000 HD
ENDBRANCH  29  30
ENDBRANCH   8  29
TORSDOF 5
ENDMDL
MODEL 4
REMARK VINA RESULT:      -7.8      0.611      1.160
REMARK  Name = 
REMARK  6 active torsions:
REMARK  status: ('A' for Active; 'I' for Inactive)
REMARK    1  A    between atoms: C_1  and  C_2
REMARK    2  A    between atoms: C_5  and  N_6
REMARK    3  A    between atoms: C_12  and  N_13
REMARK    4  A    between atoms: C_20  and  C_21
REMARK    5  A    between atoms: C_20  and  C_23
REMARK    6  A    between atoms: C_21  and  O_22
REMARK                            x       y       z     vdW  Elec       q    Type
REMARK                         _______ _______ _______ _____ _____    ______ ____
ROOT
ATOM      1  N   UNL     1       1.494   8.699  19.807  0.00  0.00    +0.000 N 
ATOM      2  C   UNL     1       0.984   9.075  21.039  0.00  0.00    +0.000 C 
ATOM      3  O   UNL     1       1.211   8.498  22.095  0.00  0.00    +0.000 OA
ATOM      4  N   UNL     1       0.162  10.227  20.986  0.00  0.00    +0.000 N 
ATOM      5  C   UNL     1      -0.372  10.701  22.268  0.00  0.00    +0.000 C 
ATOM      6  C   UNL     1      -0.946  12.119  22.215  0.00  0.00    +0.000 C 
ATOM      7  C   UNL     1      -1.907  12.301  21.034  0.00  0.00    +0.000 C 
ATOM      8  C   UNL     1      -1.199  11.967  19.693  0.00  0.00    +0.000 C 
ATOM      9  C   UNL     1      -0.693  10.495  19.819  0.00  0.00    +0.000 C 
ATOM     10  H   UNL     1       1.525   9.432  19.121  0.00  0.00    +0.000 HD
ENDROOT
BRANCH   1  17
ATOM     11  C   UNL     1       3.047   8.640  17.319  0.00  0.00    +0.000 C 
ATOM     12  C   UNL     1       2.843   7.440  18.209  0.00  0.00    +0.000 A 
ATOM     13  C   UNL     1       3.387   6.222  17.769  0.00  0.00    +0.000 A 
ATOM     14  C   UNL     1       3.310   5.078  18.557  0.00  0.00    +0.000 A 
ATOM     15  C   UNL     1       2.687   5.134  19.806  0.00  0.00    +0.000 A 
ATOM     16  C   UNL     1       2.079   6.330  20.229  0.00  0.00    +0.000 A 
ATOM     17  C   UNL     1       2.142   7.490  19.439  0.00  0.00    +0.000 A 
BRANCH  15  18
ATOM     18  N   UNL     1       2.706   3.979  20.626  0.00  0.00    +0.000 N 
ATOM     19  C   UNL     1       3.522   2.882  20.586  0.00  0.00    +0.000 A 
ATOM     20  N   UNL     1       3.148   2.023  21.509  0.00  0.00    +0.000 NA
ATOM     21  N   UNL     1       2.079   2.600  22.141  0.00  0.00    +0.000 NA
ATOM     22  N   UNL     1       1.808   3.789  21.623  0.00  0.00    +0.000 NA
ENDBRANCH  15  18
ENDBRANCH   1  17
BRANCH   8  23
ATOM     23  C   UNL     1      -0.081  13.015  19.448  0.00  0.00    +0.000 A 
ATOM     24  C   UNL     1      -0.315  14.401  19.497  0.00  0.00    +0.000 A 
ATOM     25  C   UNL     1       0.655  15.317  19.072  0.00  0.00    +0.000 A 
ATOM     26  C   UNL     1       1.890  14.872  18.613  0.00  0.00    +0.000 A 
ATOM     27  C   UNL     1       2.170  13.512  18.612  0.00  0.00    +0.000 A 
ATOM     28  C   UNL     1       1.201  12.598  19.030  0.00  0.00    +0.000 A 
ENDBRANCH   8  23
BRANCH   8  29
ATOM     29  C   UNL     1      -2.208  11.941  18.504  0.00  0.00    +0.000 C 
BRANCH  29  30
ATOM     30  O   UNL     1      -1.648  12.239  17.235  0.00  0.00    +0.000 OA
ATOM     31  H   UNL     1      -0.773  11.823  17.186  0.00  0.00    +0.000 HD
ENDBRANCH  29  30
ENDBRANCH   8  29
TORSDOF 5
ENDMDL
MODEL 5
REMARK VINA RESULT:      -7.5      3.072      4.658
REMARK  Name = 
REMARK  6 active torsions:
REMARK  status: ('A' for Active; 'I' for Inactive)
REMARK    1  A    between atoms: C_1  and  C_2
REMARK    2  A    between atoms: C_5  and  N_6
REMARK    3  A    between atoms: C_12  and  N_13
REMARK    4  A    between atoms: C_20  and  C_21
REMARK    5  A    between atoms: C_20  and  C_23
REMARK    6  A    between atoms: C_21  and  O_22
REMARK                            x       y       z     vdW  Elec       q    Type
REMARK                         _______ _______ _______ _____ _____    ______ ____
ROOT
ATOM      1  N   UNL     1       1.944   8.491  19.017  0.00  0.00    +0.000 N 
ATOM      2  C   UNL     1       0.949   9.009  18.204  0.00  0.00    +0.000 C 
ATOM      3  O   UNL     1       0.435   8.414  17.264  0.00  0.00    +0.000 OA
ATOM      4  N   UNL     1       0.547  10.318  18.562  0.00  0.00    +0.000 N 
ATOM      5  C   UNL     1      -0.537  10.903  17.763  0.00  0.00    +0.000 C 
ATOM      6  C   UNL     1      -1.170  12.145  18.395  0.00  0.00    +0.000 C 
ATOM      7  C   UNL     1      -0.112  13.158  18.846  0.00  0.00    +0.000 C 
ATOM      8  C   UNL     1       0.881  12.507  19.847  0.00  0.00    +0.000 C 
ATOM      9  C   UNL     1       1.512  11.286  19.104  0.00  0.00    +0.000 C 
ATOM     10  H   UNL     1       2.012   8.917  19.924  0.00  0.00    +0.000 HD
ENDROOT
BRANCH   1  17
ATOM     11  C   UNL     1       1.470   6.149  20.720  0.00  0.00    +0.000 C 
ATOM     12  C   UNL     1       2.562   6.225  19.684  0.00  0.00    +0.000 A 
ATOM     13  C   UNL     1       3.426   5.121  19.588  0.00  0.00    +0.000 A 
ATOM     14  C   UNL     1       4.417   5.071  18.614  0.00  0.00    +0.000 A 
ATOM     15  C   UNL     1       4.561   6.129  17.712  0.00  0.00    +0.000 A 
ATOM     16  C   UNL     1       3.747   7.269  17.838  0.00  0.00    +0.000 A 
ATOM     17  C   UNL     1       2.747   7.335  18.824  0.00  0.00    +0.000 A 
BRANCH  15  18
ATOM     18  N   UNL     1       5.517   6.009  16.673  0.00  0.00    +0.000 N 
ATOM     19  C   UNL     1       5.359   5.626  15.369  0.00  0.00    +0.000 A 
ATOM     20  N   UNL     1       6.531   5.608  14.773  0.00  0.00    +0.000 NA
ATOM     21  N   UNL     1       7.437   5.994  15.724  0.00  0.00    +0.000 NA
ATOM     22  N   UNL     1       6.834   6.249  16.876  0.00  0.00    +0.000 NA
ENDBRANCH  15  18
ENDBRANCH   1  17
BRANCH   8  23
ATOM     23  C   UNL     1       0.112  12.145  21.145  0.00  0.00    +0.000 A 
ATOM     24  C   UNL     1       0.101  10.847  21.685  0.00  0.00    +0.000 A 
ATOM     25  C   UNL     1      -0.761  10.504  22.735  0.00  0.00    +0.000 A 
ATOM     26  C   UNL     1      -1.611  11.455  23.285  0.00  0.00    +0.000 A 
ATOM     27  C   UNL     1      -1.578  12.760  22.813  0.00  0.00    +0.000 A 
ATOM     28  C   UNL     1      -0.723  13.101  21.763  0.00  0.00    +0.000 A 
ENDBRANCH   8  23
BRANCH   8  29
ATOM     29  C   UNL     1       2.084  13.450  20.156  0.00  0.00    +0.000 C 
BRANCH  29  30
ATOM     30  O   UNL     1       2.740  13.201  21.389  0.00  0.00    +0.000 OA
ATOM     31  H   UNL     1       2.897  12.246  21.460  0.00  0.00    +0.000 HD
ENDBRANCH  29  30
ENDBRANCH   8  29
TORSDOF 5
ENDMDL
MODEL 6
REMARK VINA RESULT:      -7.3      2.658      3.459
REMARK  Name = 
REMARK  6 active torsions:
REMARK  status: ('A' for Active; 'I' for Inactive)
REMARK    1  A    between atoms: C_1  and  C_2
REMARK    2  A    between atoms: C_5  and  N_6
REMARK    3  A    between atoms: C_12  and  N_13
REMARK    4  A    between atoms: C_20  and  C_21
REMARK    5  A    between atoms: C_20  and  C_23
REMARK    6  A    between atoms: C_21  and  O_22
REMARK                            x       y       z     vdW  Elec       q    Type
REMARK                         _______ _______ _______ _____ _____    ______ ____
ROOT
ATOM      1  N   UNL     1       2.092   7.815  19.275  0.00  0.00    +0.000 N 
ATOM      2  C   UNL     1       1.724   8.243  20.541  0.00  0.00    +0.000 C 
ATOM      3  O   UNL     1       2.120   7.747  21.588  0.00  0.00    +0.000 OA
ATOM      4  N   UNL     1       0.835   9.345  20.532  0.00  0.00    +0.000 N 
ATOM      5  C   UNL     1       0.444   9.872  21.845  0.00  0.00    +0.000 C 
ATOM      6  C   UNL     1      -0.215  11.252  21.788  0.00  0.00    +0.000 C 
ATOM      7  C   UNL     1      -1.330  11.309  20.737  0.00  0.00    +0.000 C 
ATOM      8  C   UNL     1      -0.782  10.927  19.335  0.00  0.00    +0.000 C 
ATOM      9  C   UNL     1      -0.178   9.494  19.476  0.00  0.00    +0.000 C 
ATOM     10  H   UNL     1       1.990   8.504  18.551  0.00  0.00    +0.000 HD
ENDROOT
BRANCH   1  17
ATOM     11  C   UNL     1       0.933   5.242  20.075  0.00  0.00    +0.000 C 
ATOM     12  C   UNL     1       2.236   5.379  19.329  0.00  0.00    +0.000 A 
ATOM     13  C   UNL     1       2.946   4.196  19.066  0.00  0.00    +0.000 A 
ATOM     14  C   UNL     1       4.120   4.217  18.322  0.00  0.00    +0.000 A 
ATOM     15  C   UNL     1       4.606   5.429  17.822  0.00  0.00    +0.000 A 
ATOM     16  C   UNL     1       3.942   6.628  18.135  0.00  0.00    +0.000 A 
ATOM     17  C   UNL     1       2.758   6.621  18.893  0.00  0.00    +0.000 A 
BRANCH  15  18
ATOM     18  N   UNL     1       5.752   5.408  16.989  0.00  0.00    +0.000 N 
ATOM     19  C   UNL     1       6.402   4.354  16.408  0.00  0.00    +0.000 A 
ATOM     20  N   UNL     1       7.455   4.794  15.756  0.00  0.00    +0.000 NA
ATOM     21  N   UNL     1       7.458   6.152  15.930  0.00  0.00    +0.000 NA
ATOM     22  N   UNL     1       6.426   6.538  16.666  0.00  0.00    +0.000 NA
ENDBRANCH  15  18
ENDBRANCH   1  17
BRANCH   8  23
ATOM     23  C   UNL     1       0.229  12.013  18.884  0.00  0.00    +0.000 A 
ATOM     24  C   UNL     1       1.557  11.714  18.530  0.00  0.00    +0.000 A 
ATOM     25  C   UNL     1       2.501  12.729  18.327  0.00  0.00    +0.000 A 
ATOM     26  C   UNL     1       2.135  14.064  18.447  0.00  0.00    +0.000 A 
ATOM     27  C   UNL     1       0.816  14.390  18.736  0.00  0.00    +0.000 A 
ATOM     28  C   UNL     1      -0.124  13.378  18.944  0.00  0.00    +0.000 A 
ENDBRANCH   8  23
BRANCH   8  29
ATOM     29  C   UNL     1      -1.934  10.772  18.294  0.00  0.00    +0.000 C 
BRANCH  29  30
ATOM     30  O   UNL     1      -1.510  10.610  16.949  0.00  0.00    +0.000 OA
ATOM     31  H   UNL     1      -1.764  11.406  16.454  0.00  0.00    +0.000 HD
ENDBRANCH  29  30
ENDBRANCH   8  29
TORSDOF 5
ENDMDL
MODEL 7
REMARK VINA RESULT:      -7.3      3.220      4.228
REMARK  Name = 
REMARK  6 active torsions:
REMARK  status: ('A' for Active; 'I' for Inactive)
REMARK    1  A    between atoms: C_1  and  C_2
REMARK    2  A    between atoms: C_5  and  N_6
REMARK    3  A    between atoms: C_12  and  N_13
REMARK    4  A    between atoms: C_20  and  C_21
REMARK    5  A    between atoms: C_20  and  C_23
REMARK    6  A    between atoms: C_21  and  O_22
REMARK                            x       y       z     vdW  Elec       q    Type
REMARK                         _______ _______ _______ _____ _____    ______ ____
ROOT
ATOM      1  N   UNL     1       2.538   7.197  18.616  0.00  0.00    +0.000 N 
ATOM      2  C   UNL     1       2.198   7.313  19.955  0.00  0.00    +0.000 C 
ATOM      3  O   UNL     1       2.535   6.528  20.832  0.00  0.00    +0.000 OA
ATOM      4  N   UNL     1       1.415   8.457  20.245  0.00  0.00    +0.000 N 
ATOM      5  C   UNL     1       1.062   8.658  21.655  0.00  0.00    +0.000 C 
ATOM      6  C   UNL     1       0.535  10.061  21.968  0.00  0.00    +0.000 C 
ATOM      7  C   UNL     1      -0.559  10.492  20.984  0.00  0.00    +0.000 C 
ATOM      8  C   UNL     1      -0.034  10.439  19.523  0.00  0.00    +0.000 C 
ATOM      9  C   UNL     1       0.432   8.969  19.278  0.00  0.00    +0.000 C 
ATOM     10  H   UNL     1       2.509   8.057  18.097  0.00  0.00    +0.000 HD
ENDROOT
BRANCH   1  17
ATOM     11  C   UNL     1       1.236   4.582  18.884  0.00  0.00    +0.000 C 
ATOM     12  C   UNL     1       2.505   4.811  18.103  0.00  0.00    +0.000 A 
ATOM     13  C   UNL     1       3.112   3.681  17.529  0.00  0.00    +0.000 A 
ATOM     14  C   UNL     1       4.245   3.805  16.732  0.00  0.00    +0.000 A 
ATOM     15  C   UNL     1       4.792   5.068  16.492  0.00  0.00    +0.000 A 
ATOM     16  C   UNL     1       4.235   6.200  17.113  0.00  0.00    +0.000 A 
ATOM     17  C   UNL     1       3.094   6.087  17.928  0.00  0.00    +0.000 A 
BRANCH  15  18
ATOM     18  N   UNL     1       5.889   5.174  15.601  0.00  0.00    +0.000 N 
ATOM     19  C   UNL     1       6.024   4.736  14.311  0.00  0.00    +0.000 A 
ATOM     20  N   UNL     1       7.237   5.005  13.882  0.00  0.00    +0.000 NA
ATOM     21  N   UNL     1       7.870   5.628  14.925  0.00  0.00    +0.000 NA
ATOM     22  N   UNL     1       7.061   5.746  15.967  0.00  0.00    +0.000 NA
ENDBRANCH  15  18
ENDBRANCH   1  17
BRANCH   8  23
ATOM     23  C   UNL     1       1.079  11.506  19.356  0.00  0.00    +0.000 A 
ATOM     24  C   UNL     1       1.179  12.636  20.187  0.00  0.00    +0.000 A 
ATOM     25  C   UNL     1       2.062  13.682  19.888  0.00  0.00    +0.000 A 
ATOM     26  C   UNL     1       2.883  13.611  18.769  0.00  0.00    +0.000 A 
ATOM     27  C   UNL     1       2.849  12.480  17.965  0.00  0.00    +0.000 A 
ATOM     28  C   UNL     1       1.965  11.440  18.259  0.00  0.00    +0.000 A 
ENDBRANCH   8  23
BRANCH   8  29
ATOM     29  C   UNL     1      -1.184  10.668  18.494  0.00  0.00    +0.000 C 
BRANCH  29  30
ATOM     30  O   UNL     1      -1.058   9.940  17.282  0.00  0.00    +0.000 OA
ATOM     31  H   UNL     1      -1.314   9.020  17.455  0.00  0.00    +0.000 HD
ENDBRANCH  29  30
ENDBRANCH   8  29
TORSDOF 5
ENDMDL
MODEL 8
REMARK VINA RESULT:      -7.3      1.462      1.771
REMARK  Name = 
REMARK  6 active torsions:
REMARK  status: ('A' for Active; 'I' for Inactive)
REMARK    1  A    between atoms: C_1  and  C_2
REMARK    2  A    between atoms: C_5  and  N_6
REMARK    3  A    between atoms: C_12  and  N_13
REMARK    4  A    between atoms: C_20  and  C_21
REMARK    5  A    between atoms: C_20  and  C_23
REMARK    6  A    between atoms: C_21  and  O_22
REMARK                            x       y       z     vdW  Elec       q    Type
REMARK                         _______ _______ _______ _____ _____    ______ ____
ROOT
ATOM      1  N   UNL     1       1.342   8.917  20.309  0.00  0.00    +0.000 N 
ATOM      2  C   UNL     1       0.503   9.039  21.405  0.00  0.00    +0.000 C 
ATOM      3  O   UNL     1       0.276   8.148  22.214  0.00  0.00    +0.000 OA
ATOM      4  N   UNL     1      -0.080  10.323  21.534  0.00  0.00    +0.000 N 
ATOM      5  C   UNL     1      -0.944  10.527  22.703  0.00  0.00    +0.000 C 
ATOM      6  C   UNL     1      -1.259  11.997  22.992  0.00  0.00    +0.000 C 
ATOM      7  C   UNL     1      -1.727  12.737  21.734  0.00  0.00    +0.000 C 
ATOM      8  C   UNL     1      -0.661  12.638  20.609  0.00  0.00    +0.000 C 
ATOM      9  C   UNL     1      -0.442  11.113  20.348  0.00  0.00    +0.000 C 
ATOM     10  H   UNL     1       1.707   9.785  19.958  0.00  0.00    +0.000 HD
ENDROOT
BRANCH   1  17
ATOM     11  C   UNL     1       2.344   9.039  17.555  0.00  0.00    +0.000 C 
ATOM     12  C   UNL     1       2.328   7.781  18.386  0.00  0.00    +0.000 A 
ATOM     13  C   UNL     1       2.769   6.601  17.764  0.00  0.00    +0.000 A 
ATOM     14  C   UNL     1       2.856   5.409  18.474  0.00  0.00    +0.000 A 
ATOM     15  C   UNL     1       2.506   5.376  19.826  0.00  0.00    +0.000 A 
ATOM     16  C   UNL     1       2.000   6.533  20.444  0.00  0.00    +0.000 A 
ATOM     17  C   UNL     1       1.899   7.744  19.736  0.00  0.00    +0.000 A 
BRANCH  15  18
ATOM     18  N   UNL     1       2.695   4.170  20.547  0.00  0.00    +0.000 N 
ATOM     19  C   UNL     1       2.014   3.670  21.623  0.00  0.00    +0.000 A 
ATOM     20  N   UNL     1       2.566   2.538  22.002  0.00  0.00    +0.000 NA
ATOM     21  N   UNL     1       3.608   2.326  21.140  0.00  0.00    +0.000 NA
ATOM     22  N   UNL     1       3.691   3.302  20.248  0.00  0.00    +0.000 NA
ENDBRANCH  15  18
ENDBRANCH   1  17
BRANCH   8  23
ATOM     23  C   UNL     1       0.609  13.405  21.059  0.00  0.00    +0.000 A 
ATOM     24  C   UNL     1       0.553  14.611  21.780  0.00  0.00    +0.000 A 
ATOM     25  C   UNL     1       1.701  15.384  21.994  0.00  0.00    +0.000 A 
ATOM     26  C   UNL     1       2.935  14.958  21.516  0.00  0.00    +0.000 A 
ATOM     27  C   UNL     1       3.030  13.741  20.854  0.00  0.00    +0.000 A 
ATOM     28  C   UNL     1       1.884  12.973  20.635  0.00  0.00    +0.000 A 
ENDBRANCH   8  23
BRANCH   8  29
ATOM     29  C   UNL     1      -1.202  13.199  19.258  0.00  0.00    +0.000 C 
BRANCH  29  30
ATOM     30  O   UNL     1      -0.436  12.851  18.114  0.00  0.00    +0.000 OA
ATOM     31  H   UNL     1      -1.047  12.722  17.371  0.00  0.00    +0.000 HD
ENDBRANCH  29  30
ENDBRANCH   8  29
TORSDOF 5
ENDMDL
MODEL 9
REMARK VINA RESULT:      -7.1      2.638      3.547
REMARK  Name = 
REMARK  6 active torsions:
REMARK  status: ('A' for Active; 'I' for Inactive)
REMARK    1  A    between atoms: C_1  and  C_2
REMARK    2  A    between atoms: C_5  and  N_6
REMARK    3  A    between atoms: C_12  and  N_13
REMARK    4  A    between atoms: C_20  and  C_21
REMARK    5  A    between atoms: C_20  and  C_23
REMARK    6  A    between atoms: C_21  and  O_22
REMARK                            x       y       z     vdW  Elec       q    Type
REMARK                         _______ _______ _______ _____ _____    ______ ____
ROOT
ATOM      1  N   UNL     1       2.102   7.888  19.303  0.00  0.00    +0.000 N 
ATOM      2  C   UNL     1       1.564   8.231  20.532  0.00  0.00    +0.000 C 
ATOM      3  O   UNL     1       1.762   7.623  21.576  0.00  0.00    +0.000 OA
ATOM      4  N   UNL     1       0.749   9.389  20.492  0.00  0.00    +0.000 N 
ATOM      5  C   UNL     1       0.186   9.829  21.774  0.00  0.00    +0.000 C 
ATOM      6  C   UNL     1      -0.379  11.251  21.747  0.00  0.00    +0.000 C 
ATOM      7  C   UNL     1      -1.309  11.473  20.549  0.00  0.00    +0.000 C 
ATOM      8  C   UNL     1      -0.569  11.174  19.217  0.00  0.00    +0.000 C 
ATOM      9  C   UNL     1      -0.074   9.696  19.313  0.00  0.00    +0.000 C 
ATOM     10  H   UNL     1       2.154   8.640  18.639  0.00  0.00    +0.000 HD
ENDROOT
BRANCH   1  17
ATOM     11  C   UNL     1       0.902   5.325  20.076  0.00  0.00    +0.000 C 
ATOM     12  C   UNL     1       2.211   5.449  19.339  0.00  0.00    +0.000 A 
ATOM     13  C   UNL     1       2.905   4.258  19.071  0.00  0.00    +0.000 A 
ATOM     14  C   UNL     1       4.085   4.268  18.335  0.00  0.00    +0.000 A 
ATOM     15  C   UNL     1       4.591   5.476  17.848  0.00  0.00    +0.000 A 
ATOM     16  C   UNL     1       3.943   6.682  18.165  0.00  0.00    +0.000 A 
ATOM     17  C   UNL     1       2.754   6.687  18.916  0.00  0.00    +0.000 A 
BRANCH  15  18
ATOM     18  N   UNL     1       5.742   5.445  17.022  0.00  0.00    +0.000 N 
ATOM     19  C   UNL     1       6.410   4.382  16.479  0.00  0.00    +0.000 A 
ATOM     20  N   UNL     1       7.461   4.815  15.818  0.00  0.00    +0.000 NA
ATOM     21  N   UNL     1       7.444   6.179  15.948  0.00  0.00    +0.000 NA
ATOM     22  N   UNL     1       6.403   6.573  16.666  0.00  0.00    +0.000 NA
ENDBRANCH  15  18
ENDBRANCH   1  17
BRANCH   8  23
ATOM     23  C   UNL     1       0.559  12.222  19.029  0.00  0.00    +0.000 A 
ATOM     24  C   UNL     1       0.354  13.601  19.215  0.00  0.00    +0.000 A 
ATOM     25  C   UNL     1       1.328  14.537  18.842  0.00  0.00    +0.000 A 
ATOM     26  C   UNL     1       2.536  14.116  18.301  0.00  0.00    +0.000 A 
ATOM     27  C   UNL     1       2.790  12.758  18.163  0.00  0.00    +0.000 A 
ATOM     28  C   UNL     1       1.818  11.825  18.530  0.00  0.00    +0.000 A 
ENDBRANCH   8  23
BRANCH   8  29
ATOM     29  C   UNL     1      -1.549  11.188  18.003  0.00  0.00    +0.000 C 
BRANCH  29  30
ATOM     30  O   UNL     1      -2.482  12.257  17.997  0.00  0.00    +0.000 OA
ATOM     31  H   UNL     1      -3.166  12.056  17.338  0.00  0.00    +0.000 HD
ENDBRANCH  29  30
ENDBRANCH   8  29
TORSDOF 5
ENDMDL
