MODEL 1
REMARK VINA RESULT:      -8.6      0.000      0.000
REMARK  Name = 
REMARK  5 active torsions:
REMARK  status: ('A' for Active; 'I' for Inactive)
REMARK    1  A    between atoms: C_2  and  C_20
REMARK    2  A    between atoms: N_3  and  C_4
REMARK    3  A    between atoms: C_9  and  S_10
REMARK    4  A    between atoms: S_10  and  N_13
REMARK    5  A    between atoms: C_20  and  C_21
REMARK                            x       y       z     vdW  Elec       q    Type
REMARK                         _______ _______ _______ _____ _____    ______ ____
ROOT
ATOM      1  C   UNL     1       2.026   7.121  19.547  0.00  0.00    +0.000 A 
ATOM      2  C   UNL     1       1.455   6.378  20.591  0.00  0.00    +0.000 A 
ATOM      3  C   UNL     1       1.941   5.121  20.914  0.00  0.00    +0.000 A 
ATOM      4  C   UNL     1       2.981   4.558  20.186  0.00  0.00    +0.000 A 
ATOM      5  F   UNL     1       3.425   3.350  20.557  0.00  0.00    +0.000 F 
ATOM      6  C   UNL     1       3.520   5.233  19.103  0.00  0.00    +0.000 A 
ATOM      7  C   UNL     1       3.033   6.521  18.767  0.00  0.00    +0.000 A 
ENDROOT
BRANCH   1  10
ATOM      8  O   UNL     1       1.108   9.225  21.437  0.00  0.00    +0.000 OA
ATOM      9  C   UNL     1       1.123   9.354  20.218  0.00  0.00    +0.000 C 
ATOM     10  N   UNL     1       1.584   8.437  19.272  0.00  0.00    +0.000 N 
ATOM     11  H   UNL     1       1.680   8.780  18.328  0.00  0.00    +0.000 HD
BRANCH   9  12
ATOM     12  C   UNL     1       0.605  10.631  19.622  0.00  0.00    +0.000 C 
ATOM     13  C   UNL     1       1.597  11.555  18.893  0.00  0.00    +0.000 C 
ATOM     14  C   UNL     1       1.105  11.932  20.249  0.00  0.00    +0.000 C 
BRANCH  12  15
ATOM     15  C   UNL     1      -0.756  10.596  18.945  0.00  0.00    +0.000 A 
ATOM     16  C   UNL     1      -1.780  11.463  19.348  0.00  0.00    +0.000 A 
ATOM     17  C   UNL     1      -2.871  11.708  18.521  0.00  0.00    +0.000 A 
ATOM     18  C   UNL     1      -2.981  11.043  17.301  0.00  0.00    +0.000 A 
ATOM     19  C   UNL     1      -2.048  10.074  16.947  0.00  0.00    +0.000 A 
ATOM     20  C   UNL     1      -0.953   9.837  17.776  0.00  0.00    +0.000 A 
ENDBRANCH  12  15
ENDBRANCH   9  12
ENDBRANCH   1  10
BRANCH   6  21
ATOM     21  S   UNL     1       4.707   4.338  18.120  0.00  0.00    +0.000 S 
ATOM     22  O   UNL     1       5.878   4.167  18.938  0.00  0.00    +0.000 OA
ATOM     23  O   UNL     1       4.014   3.188  17.570  0.00  0.00    +0.000 OA
BRANCH  21  24
ATOM     24  N   UNL     1       5.066   5.382  16.831  0.00  0.00    +0.000 NA
ATOM     25  C   UNL     1       5.431   4.798  15.517  0.00  0.00    +0.000 C 
ATOM     26  C   UNL     1       6.942   4.555  15.456  0.00  0.00    +0.000 C 
ATOM     27  O   UNL     1       7.660   5.789  15.594  0.00  0.00    +0.000 OA
ATOM     28  C   UNL     1       7.350   6.478  16.814  0.00  0.00    +0.000 C 
ATOM     29  C   UNL     1       5.843   6.631  17.085  0.00  0.00    +0.000 C 
ENDBRANCH  21  24
ENDBRANCH   6  21
TORSDOF 5
ENDMDL
MODEL 2
REMARK VINA RESULT:      -8.4      1.406      2.352
REMARK  Name = 
REMARK  5 active torsions:
REMARK  status: ('A' for Active; 'I' for Inactive)
REMARK    1  A    between atoms: C_2  and  C_20
REMARK    2  A    between atoms: N_3  and  C_4
REMARK    3  A    between atoms: C_9  and  S_10
REMARK    4  A    between atoms: S_10  and  N_13
REMARK    5  A    between atoms: C_20  and  C_21
REMARK                            x       y       z     vdW  Elec       q    Type
REMARK                         _______ _______ _______ _____ _____    ______ ____
ROOT
ATOM      1  C   UNL     1       2.042   6.748  19.860  0.00  0.00    +0.000 A 
ATOM      2  C   UNL     1       1.501   5.874  20.816  0.00  0.00    +0.000 A 
ATOM      3  C   UNL     1       2.041   4.613  21.009  0.00  0.00    +0.000 A 
ATOM      4  C   UNL     1       3.109   4.177  20.235  0.00  0.00    +0.000 A 
ATOM      5  F   UNL     1       3.605   2.957  20.482  0.00  0.00    +0.000 F 
ATOM      6  C   UNL     1       3.621   4.985  19.234  0.00  0.00    +0.000 A 
ATOM      7  C   UNL     1       3.078   6.278  19.031  0.00  0.00    +0.000 A 
ENDROOT
BRANCH   1  10
ATOM      8  O   UNL     1       1.440   8.758  21.966  0.00  0.00    +0.000 OA
ATOM      9  C   UNL     1       1.241   8.934  20.770  0.00  0.00    +0.000 C 
ATOM     10  N   UNL     1       1.543   8.065  19.721  0.00  0.00    +0.000 N 
ATOM     11  H   UNL     1       1.470   8.446  18.790  0.00  0.00    +0.000 HD
BRANCH   9  12
ATOM     12  C   UNL     1       0.612  10.224  20.327  0.00  0.00    +0.000 C 
ATOM     13  C   UNL     1      -0.336  10.199  19.114  0.00  0.00    +0.000 C 
ATOM     14  C   UNL     1       1.037  10.760  18.960  0.00  0.00    +0.000 C 
BRANCH  12  15
ATOM     15  C   UNL     1       0.146  11.191  21.404  0.00  0.00    +0.000 A 
ATOM     16  C   UNL     1       0.453  12.556  21.323  0.00  0.00    +0.000 A 
ATOM     17  C   UNL     1      -0.261  13.490  22.066  0.00  0.00    +0.000 A 
ATOM     18  C   UNL     1      -1.256  13.065  22.945  0.00  0.00    +0.000 A 
ATOM     19  C   UNL     1      -1.478  11.706  23.144  0.00  0.00    +0.000 A 
ATOM     20  C   UNL     1      -0.765  10.774  22.392  0.00  0.00    +0.000 A 
ENDBRANCH  12  15
ENDBRANCH   9  12
ENDBRANCH   1  10
BRANCH   6  21
ATOM     21  S   UNL     1       4.851   4.251  18.172  0.00  0.00    +0.000 S 
ATOM     22  O   UNL     1       6.040   4.089  18.967  0.00  0.00    +0.000 OA
ATOM     23  O   UNL     1       4.225   3.109  17.534  0.00  0.00    +0.000 OA
BRANCH  21  24
ATOM     24  N   UNL     1       5.128   5.419  16.973  0.00  0.00    +0.000 NA
ATOM     25  C   UNL     1       5.453   4.968  15.597  0.00  0.00    +0.000 C 
ATOM     26  C   UNL     1       6.966   4.776  15.454  0.00  0.00    +0.000 C 
ATOM     27  O   UNL     1       7.657   6.014  15.677  0.00  0.00    +0.000 OA
ATOM     28  C   UNL     1       7.381   6.578  16.967  0.00  0.00    +0.000 C 
ATOM     29  C   UNL     1       5.883   6.662  17.310  0.00  0.00    +0.000 C 
ENDBRANCH  21  24
ENDBRANCH   6  21
TORSDOF 5
ENDMDL
MODEL 3
REMARK VINA RESULT:      -8.2      0.918      2.569
REMARK  Name = 
REMARK  5 active torsions:
REMARK  status: ('A' for Active; 'I' for Inactive)
REMARK    1  A    between atoms: C_2  and  C_20
REMARK    2  A    between atoms: N_3  and  C_4
REMARK    3  A    between atoms: C_9  and  S_10
REMARK    4  A    between atoms: S_10  and  N_13
REMARK    5  A    between atoms: C_20  and  C_21
REMARK                            x       y       z     vdW  Elec       q    Type
REMARK                         _______ _______ _______ _____ _____    ______ ____
ROOT
ATOM      1  C   UNL     1       2.013   7.037  19.540  0.00  0.00    +0.000 A 
ATOM      2  C   UNL     1       1.451   6.292  20.588  0.00  0.00    +0.000 A 
ATOM      3  C   UNL     1       1.957   5.046  20.920  0.00  0.00    +0.000 A 
ATOM      4  C   UNL     1       3.008   4.495  20.198  0.00  0.00    +0.000 A 
ATOM      5  F   UNL     1       3.471   3.297  20.579  0.00  0.00    +0.000 F 
ATOM      6  C   UNL     1       3.539   5.172  19.113  0.00  0.00    +0.000 A 
ATOM      7  C   UNL     1       3.031   6.449  18.767  0.00  0.00    +0.000 A 
ENDROOT
BRANCH   1  10
ATOM      8  O   UNL     1       1.201   9.192  21.421  0.00  0.00    +0.000 OA
ATOM      9  C   UNL     1       1.142   9.286  20.201  0.00  0.00    +0.000 C 
ATOM     10  N   UNL     1       1.550   8.345  19.255  0.00  0.00    +0.000 N 
ATOM     11  H   UNL     1       1.588   8.661  18.298  0.00  0.00    +0.000 HD
BRANCH   9  12
ATOM     12  C   UNL     1       0.585  10.545  19.602  0.00  0.00    +0.000 C 
ATOM     13  C   UNL     1      -0.887  10.900  19.879  0.00  0.00    +0.000 C 
ATOM     14  C   UNL     1      -0.500  10.376  18.538  0.00  0.00    +0.000 C 
BRANCH  12  15
ATOM     15  C   UNL     1       1.480  11.774  19.576  0.00  0.00    +0.000 A 
ATOM     16  C   UNL     1       2.100  12.185  18.388  0.00  0.00    +0.000 A 
ATOM     17  C   UNL     1       2.597  13.477  18.256  0.00  0.00    +0.000 A 
ATOM     18  C   UNL     1       2.531  14.360  19.333  0.00  0.00    +0.000 A 
ATOM     19  C   UNL     1       2.049  13.926  20.564  0.00  0.00    +0.000 A 
ATOM     20  C   UNL     1       1.546  12.633  20.689  0.00  0.00    +0.000 A 
ENDBRANCH  12  15
ENDBRANCH   9  12
ENDBRANCH   1  10
BRANCH   6  21
ATOM     21  S   UNL     1       4.743   4.290  18.138  0.00  0.00    +0.000 S 
ATOM     22  O   UNL     1       5.920   4.155  18.956  0.00  0.00    +0.000 OA
ATOM     23  O   UNL     1       4.074   3.118  17.606  0.00  0.00    +0.000 OA
BRANCH  21  24
ATOM     24  N   UNL     1       5.076   5.325  16.835  0.00  0.00    +0.000 NA
ATOM     25  C   UNL     1       5.445   4.731  15.526  0.00  0.00    +0.000 C 
ATOM     26  C   UNL     1       6.960   4.515  15.460  0.00  0.00    +0.000 C 
ATOM     27  O   UNL     1       7.656   5.764  15.579  0.00  0.00    +0.000 OA
ATOM     28  C   UNL     1       7.339   6.461  16.792  0.00  0.00    +0.000 C 
ATOM     29  C   UNL     1       5.831   6.590  17.069  0.00  0.00    +0.000 C 
ENDBRANCH  21  24
ENDBRANCH   6  21
TORSDOF 5
ENDMDL
MODEL 4
REMARK VINA RESULT:      -8.1      3.875      8.291
REMARK  Name = 
REMARK  5 active torsions:
REMARK  status: ('A' for Active; 'I' for Inactive)
REMARK    1  A    between atoms: C_2  and  C_20
REMARK    2  A    between atoms: N_3  and  C_4
REMARK    3  A    between atoms: C_9  and  S_10
REMARK    4  A    between atoms: S_10  and  N_13
REMARK    5  A    between atoms: C_20  and  C_21
REMARK                            x       y       z     vdW  Elec       q    Type
REMARK                         _______ _______ _______ _____ _____    ______ ____
ROOT
ATOM      1  C   UNL     1       0.871   8.974  20.528  0.00  0.00    +0.000 A 
ATOM      2  C   UNL     1       0.987   9.482  21.830  0.00  0.00    +0.000 A 
ATOM      3  C   UNL     1       0.204  10.547  22.247  0.00  0.00    +0.000 A 
ATOM      4  C   UNL     1      -0.687  11.153  21.370  0.00  0.00    +0.000 A 
ATOM      5  F   UNL     1      -1.434  12.164  21.835  0.00  0.00    +0.000 F 
ATOM      6  C   UNL     1      -0.775  10.724  20.057  0.00  0.00    +0.000 A 
ATOM      7  C   UNL     1       0.019   9.633  19.622  0.00  0.00    +0.000 A 
ENDROOT
BRANCH   1  10
ATOM      8  O   UNL     1       2.408   8.515  18.024  0.00  0.00    +0.000 OA
ATOM      9  C   UNL     1       2.269   7.679  18.909  0.00  0.00    +0.000 C 
ATOM     10  N   UNL     1       1.610   7.834  20.129  0.00  0.00    +0.000 N 
ATOM     11  H   UNL     1       1.745   7.099  20.806  0.00  0.00    +0.000 HD
BRANCH   9  12
ATOM     12  C   UNL     1       2.868   6.316  18.713  0.00  0.00    +0.000 C 
ATOM     13  C   UNL     1       4.340   6.098  19.109  0.00  0.00    +0.000 C 
ATOM     14  C   UNL     1       3.976   6.198  17.666  0.00  0.00    +0.000 C 
BRANCH  12  15
ATOM     15  C   UNL     1       2.000   5.109  19.030  0.00  0.00    +0.000 A 
ATOM     16  C   UNL     1       1.698   4.163  18.041  0.00  0.00    +0.000 A 
ATOM     17  C   UNL     1       1.241   2.895  18.386  0.00  0.00    +0.000 A 
ATOM     18  C   UNL     1       1.027   2.574  19.725  0.00  0.00    +0.000 A 
ATOM     19  C   UNL     1       1.186   3.544  20.710  0.00  0.00    +0.000 A 
ATOM     20  C   UNL     1       1.650   4.811  20.361  0.00  0.00    +0.000 A 
ENDBRANCH  12  15
ENDBRANCH   9  12
ENDBRANCH   1  10
BRANCH   6  21
ATOM     21  S   UNL     1      -1.798  11.698  18.970  0.00  0.00    +0.000 S 
ATOM     22  O   UNL     1      -2.656  12.492  19.809  0.00  0.00    +0.000 OA
ATOM     23  O   UNL     1      -0.909  12.329  18.012  0.00  0.00    +0.000 OA
BRANCH  21  24
ATOM     24  N   UNL     1      -2.730  10.557  18.127  0.00  0.00    +0.000 NA
ATOM     25  C   UNL     1      -2.225  10.037  16.832  0.00  0.00    +0.000 C 
ATOM     26  C   UNL     1      -2.691  10.942  15.688  0.00  0.00    +0.000 C 
ATOM     27  O   UNL     1      -4.123  10.967  15.613  0.00  0.00    +0.000 OA
ATOM     28  C   UNL     1      -4.735  11.410  16.834  0.00  0.00    +0.000 C 
ATOM     29  C   UNL     1      -4.215  10.694  18.093  0.00  0.00    +0.000 C 
ENDBRANCH  21  24
ENDBRANCH   6  21
TORSDOF 5
ENDMDL
MODEL 5
REMARK VINA RESULT:      -8.1      1.288      2.000
REMARK  Name = 
REMARK  5 active torsions:
REMARK  status: ('A' for Active; 'I' for Inactive)
REMARK    1  A    between atoms: C_2  and  C_20
REMARK    2  A    between atoms: N_3  and  C_4
REMARK    3  A    between atoms: C_9  and  S_10
REMARK    4  A    between atoms: S_10  and  N_13
REMARK    5  A    between atoms: C_20  and  C_21
REMARK                            x       y       z     vdW  Elec       q    Type
REMARK                         _______ _______ _______ _____ _____    ______ ____
ROOT
ATOM      1  C   UNL     1       1.724   5.555  20.337  0.00  0.00    +0.000 A 
ATOM      2  C   UNL     1       1.147   4.366  20.809  0.00  0.00    +0.000 A 
ATOM      3  C   UNL     1       1.760   3.144  20.582  0.00  0.00    +0.000 A 
ATOM      4  C   UNL     1       2.940   3.071  19.852  0.00  0.00    +0.000 A 
ATOM      5  F   UNL     1       3.499   1.865  19.684  0.00  0.00    +0.000 F 
ATOM      6  C   UNL     1       3.498   4.216  19.311  0.00  0.00    +0.000 A 
ATOM      7  C   UNL     1       2.881   5.472  19.540  0.00  0.00    +0.000 A 
ENDROOT
BRANCH   1  10
ATOM      8  O   UNL     1       2.130   8.185  19.010  0.00  0.00    +0.000 OA
ATOM      9  C   UNL     1       1.422   8.014  19.995  0.00  0.00    +0.000 C 
ATOM     10  N   UNL     1       1.141   6.809  20.641  0.00  0.00    +0.000 N 
ATOM     11  H   UNL     1       0.402   6.833  21.328  0.00  0.00    +0.000 HD
BRANCH   9  12
ATOM     12  C   UNL     1       0.746   9.204  20.611  0.00  0.00    +0.000 C 
ATOM     13  C   UNL     1       1.254   9.714  21.972  0.00  0.00    +0.000 C 
ATOM     14  C   UNL     1      -0.031   8.959  21.905  0.00  0.00    +0.000 C 
BRANCH  12  15
ATOM     15  C   UNL     1       0.331  10.339  19.688  0.00  0.00    +0.000 A 
ATOM     16  C   UNL     1      -0.973  10.410  19.179  0.00  0.00    +0.000 A 
ATOM     17  C   UNL     1      -1.469  11.601  18.660  0.00  0.00    +0.000 A 
ATOM     18  C   UNL     1      -0.649  12.725  18.593  0.00  0.00    +0.000 A 
ATOM     19  C   UNL     1       0.690  12.636  18.962  0.00  0.00    +0.000 A 
ATOM     20  C   UNL     1       1.182  11.443  19.487  0.00  0.00    +0.000 A 
ENDBRANCH  12  15
ENDBRANCH   9  12
ENDBRANCH   1  10
BRANCH   6  21
ATOM     21  S   UNL     1       4.894   3.985  18.228  0.00  0.00    +0.000 S 
ATOM     22  O   UNL     1       6.028   3.701  19.068  0.00  0.00    +0.000 OA
ATOM     23  O   UNL     1       4.478   3.045  17.203  0.00  0.00    +0.000 OA
BRANCH  21  24
ATOM     24  N   UNL     1       5.108   5.494  17.481  0.00  0.00    +0.000 NA
ATOM     25  C   UNL     1       5.212   5.551  16.002  0.00  0.00    +0.000 C 
ATOM     26  C   UNL     1       6.673   5.376  15.574  0.00  0.00    +0.000 C 
ATOM     27  O   UNL     1       7.486   6.431  16.105  0.00  0.00    +0.000 OA
ATOM     28  C   UNL     1       7.429   6.509  17.537  0.00  0.00    +0.000 C 
ATOM     29  C   UNL     1       6.000   6.511  18.110  0.00  0.00    +0.000 C 
ENDBRANCH  21  24
ENDBRANCH   6  21
TORSDOF 5
ENDMDL
MODEL 6
REMARK VINA RESULT:      -8.0      1.501      2.403
REMARK  Name = 
REMARK  5 active torsions:
REMARK  status: ('A' for Active; 'I' for Inactive)
REMARK    1  A    between atoms: C_2  and  C_20
REMARK    2  A    between atoms: N_3  and  C_4
REMARK    3  A    between atoms: C_9  and  S_10
REMARK    4  A    between atoms: S_10  and  N_13
REMARK    5  A    between atoms: C_20  and  C_21
REMARK                            x       y       z     vdW  Elec       q    Type
REMARK                         _______ _______ _______ _____ _____    ______ ____
ROOT
ATOM      1  C   UNL     1       1.936   6.173  20.034  0.00  0.00    +0.000 A 
ATOM      2  C   UNL     1       1.493   5.202  20.945  0.00  0.00    +0.000 A 
ATOM      3  C   UNL     1       2.151   3.988  21.060  0.00  0.00    +0.000 A 
ATOM      4  C   UNL     1       3.241   3.696  20.250  0.00  0.00    +0.000 A 
ATOM      5  F   UNL     1       3.852   2.515  20.421  0.00  0.00    +0.000 F 
ATOM      6  C   UNL     1       3.660   4.602  19.291  0.00  0.00    +0.000 A 
ATOM      7  C   UNL     1       2.997   5.849  19.167  0.00  0.00    +0.000 A 
ENDROOT
BRANCH   1  10
ATOM      8  O   UNL     1       2.623   8.522  18.345  0.00  0.00    +0.000 OA
ATOM      9  C   UNL     1       1.730   8.516  19.185  0.00  0.00    +0.000 C 
ATOM     10  N   UNL     1       1.315   7.444  19.976  0.00  0.00    +0.000 N 
ATOM     11  H   UNL     1       0.454   7.572  20.486  0.00  0.00    +0.000 HD
BRANCH   9  12
ATOM     12  C   UNL     1       0.954   9.780  19.421  0.00  0.00    +0.000 C 
ATOM     13  C   UNL     1      -0.092  10.204  18.375  0.00  0.00    +0.000 C 
ATOM     14  C   UNL     1       1.207  10.932  18.448  0.00  0.00    +0.000 C 
BRANCH  12  15
ATOM     15  C   UNL     1       0.504  10.079  20.842  0.00  0.00    +0.000 A 
ATOM     16  C   UNL     1       0.181  11.386  21.232  0.00  0.00    +0.000 A 
ATOM     17  C   UNL     1      -0.573  11.621  22.376  0.00  0.00    +0.000 A 
ATOM     18  C   UNL     1      -0.969  10.552  23.178  0.00  0.00    +0.000 A 
ATOM     19  C   UNL     1      -0.539   9.262  22.886  0.00  0.00    +0.000 A 
ATOM     20  C   UNL     1       0.212   9.031  21.734  0.00  0.00    +0.000 A 
ENDBRANCH  12  15
ENDBRANCH   9  12
ENDBRANCH   1  10
BRANCH   6  21
ATOM     21  S   UNL     1       4.935   4.046  18.175  0.00  0.00    +0.000 S 
ATOM     22  O   UNL     1       6.133   3.897  18.957  0.00  0.00    +0.000 OA
ATOM     23  O   UNL     1       4.386   2.923  17.439  0.00  0.00    +0.000 OA
BRANCH  21  24
ATOM     24  N   UNL     1       5.130   5.328  17.080  0.00  0.00    +0.000 NA
ATOM     25  C   UNL     1       5.380   5.016  15.651  0.00  0.00    +0.000 C 
ATOM     26  C   UNL     1       6.885   4.864  15.406  0.00  0.00    +0.000 C 
ATOM     27  O   UNL     1       7.574   6.085  15.708  0.00  0.00    +0.000 OA
ATOM     28  C   UNL     1       7.366   6.519  17.060  0.00  0.00    +0.000 C 
ATOM     29  C   UNL     1       5.889   6.545  17.492  0.00  0.00    +0.000 C 
ENDBRANCH  21  24
ENDBRANCH   6  21
TORSDOF 5
ENDMDL
MODEL 7
REMARK VINA RESULT:      -8.0      4.097      8.256
REMARK  Name = 
REMARK  5 active torsions:
REMARK  status: ('A' for Active; 'I' for Inactive)
REMARK    1  A    between atoms: C_2  and  C_20
REMARK    2  A    between atoms: N_3  and  C_4
REMARK    3  A    between atoms: C_9  and  S_10
REMARK    4  A    between atoms: S_10  and  N_13
REMARK    5  A    between atoms: C_20  and  C_21
REMARK                            x       y       z     vdW  Elec       q    Type
REMARK                         _______ _______ _______ _____ _____    ______ ____
ROOT
ATOM      1  C   UNL     1       1.022   8.742  21.080  0.00  0.00    +0.000 A 
ATOM      2  C   UNL     1       0.814   8.904  22.458  0.00  0.00    +0.000 A 
ATOM      3  C   UNL     1       0.052   9.955  22.941  0.00  0.00    +0.000 A 
ATOM      4  C   UNL     1      -0.493  10.890  22.070  0.00  0.00    +0.000 A 
ATOM      5  F   UNL     1      -1.240  11.873  22.592  0.00  0.00    +0.000 F 
ATOM      6  C   UNL     1      -0.248  10.803  20.710  0.00  0.00    +0.000 A 
ATOM      7  C   UNL     1       0.527   9.729  20.205  0.00  0.00    +0.000 A 
ENDROOT
BRANCH   1  10
ATOM      8  O   UNL     1       2.262   8.340  18.407  0.00  0.00    +0.000 OA
ATOM      9  C   UNL     1       2.244   7.493  19.292  0.00  0.00    +0.000 C 
ATOM     10  N   UNL     1       1.730   7.622  20.583  0.00  0.00    +0.000 N 
ATOM     11  H   UNL     1       1.957   6.882  21.230  0.00  0.00    +0.000 HD
BRANCH   9  12
ATOM     12  C   UNL     1       2.841   6.144  19.009  0.00  0.00    +0.000 C 
ATOM     13  C   UNL     1       4.322   5.910  19.360  0.00  0.00    +0.000 C 
ATOM     14  C   UNL     1       3.925   6.086  17.933  0.00  0.00    +0.000 C 
BRANCH  12  15
ATOM     15  C   UNL     1       1.982   4.919  19.281  0.00  0.00    +0.000 A 
ATOM     16  C   UNL     1       1.571   4.085  18.232  0.00  0.00    +0.000 A 
ATOM     17  C   UNL     1       1.123   2.793  18.485  0.00  0.00    +0.000 A 
ATOM     18  C   UNL     1       1.028   2.335  19.799  0.00  0.00    +0.000 A 
ATOM     19  C   UNL     1       1.296   3.195  20.859  0.00  0.00    +0.000 A 
ATOM     20  C   UNL     1       1.751   4.487  20.600  0.00  0.00    +0.000 A 
ENDBRANCH  12  15
ENDBRANCH   9  12
ENDBRANCH   1  10
BRANCH   6  21
ATOM     21  S   UNL     1      -0.823  12.162  19.710  0.00  0.00    +0.000 S 
ATOM     22  O   UNL     1      -0.363  11.914  18.370  0.00  0.00    +0.000 OA
ATOM     23  O   UNL     1      -2.238  12.318  19.991  0.00  0.00    +0.000 OA
BRANCH  21  24
ATOM     24  N   UNL     1      -0.024  13.520  20.340  0.00  0.00    +0.000 NA
ATOM     25  C   UNL     1      -0.637  14.859  20.156  0.00  0.00    +0.000 C 
ATOM     26  C   UNL     1      -0.170  15.469  18.830  0.00  0.00    +0.000 C 
ATOM     27  O   UNL     1       1.254  15.641  18.825  0.00  0.00    +0.000 OA
ATOM     28  C   UNL     1       1.962  14.413  19.045  0.00  0.00    +0.000 C 
ATOM     29  C   UNL     1       1.463  13.608  20.258  0.00  0.00    +0.000 C 
ENDBRANCH  21  24
ENDBRANCH   6  21
TORSDOF 5
ENDMDL
MODEL 8
REMARK VINA RESULT:      -7.9      4.355      7.975
REMARK  Name = 
REMARK  5 active torsions:
REMARK  status: ('A' for Active; 'I' for Inactive)
REMARK    1  A    between atoms: C_2  and  C_20
REMARK    2  A    between atoms: N_3  and  C_4
REMARK    3  A    between atoms: C_9  and  S_10
REMARK    4  A    between atoms: S_10  and  N_13
REMARK    5  A    between atoms: C_20  and  C_21
REMARK                            x       y       z     vdW  Elec       q    Type
REMARK                         _______ _______ _______ _____ _____    ______ ____
ROOT
ATOM      1  C   UNL     1       1.048   8.915  21.255  0.00  0.00    +0.000 A 
ATOM      2  C   UNL     1       0.166   8.698  22.324  0.00  0.00    +0.000 A 
ATOM      3  C   UNL     1      -0.587   9.740  22.842  0.00  0.00    +0.000 A 
ATOM      4  C   UNL     1      -0.456  11.026  22.334  0.00  0.00    +0.000 A 
ATOM      5  F   UNL     1      -1.226  11.989  22.859  0.00  0.00    +0.000 F 
ATOM      6  C   UNL     1       0.458  11.289  21.328  0.00  0.00    +0.000 A 
ATOM      7  C   UNL     1       1.231  10.230  20.788  0.00  0.00    +0.000 A 
ENDROOT
BRANCH   1  10
ATOM      8  O   UNL     1       1.834   8.498  18.417  0.00  0.00    +0.000 OA
ATOM      9  C   UNL     1       2.045   7.691  19.315  0.00  0.00    +0.000 C 
ATOM     10  N   UNL     1       1.755   7.835  20.672  0.00  0.00    +0.000 N 
ATOM     11  H   UNL     1       2.155   7.145  21.290  0.00  0.00    +0.000 HD
BRANCH   9  12
ATOM     12  C   UNL     1       2.699   6.384  18.970  0.00  0.00    +0.000 C 
ATOM     13  C   UNL     1       4.195   6.206  19.288  0.00  0.00    +0.000 C 
ATOM     14  C   UNL     1       3.766   6.419  17.876  0.00  0.00    +0.000 C 
BRANCH  12  15
ATOM     15  C   UNL     1       1.904   5.110  19.206  0.00  0.00    +0.000 A 
ATOM     16  C   UNL     1       1.609   4.242  18.146  0.00  0.00    +0.000 A 
ATOM     17  C   UNL     1       1.228   2.926  18.389  0.00  0.00    +0.000 A 
ATOM     18  C   UNL     1       1.082   2.477  19.700  0.00  0.00    +0.000 A 
ATOM     19  C   UNL     1       1.232   3.362  20.763  0.00  0.00    +0.000 A 
ATOM     20  C   UNL     1       1.620   4.677  20.515  0.00  0.00    +0.000 A 
ENDBRANCH  12  15
ENDBRANCH   9  12
ENDBRANCH   1  10
BRANCH   6  21
ATOM     21  S   UNL     1       0.689  13.002  20.892  0.00  0.00    +0.000 S 
ATOM     22  O   UNL     1      -0.266  13.299  19.857  0.00  0.00    +0.000 OA
ATOM     23  O   UNL     1       0.693  13.753  22.133  0.00  0.00    +0.000 OA
BRANCH  21  24
ATOM     24  N   UNL     1       2.258  13.070  20.249  0.00  0.00    +0.000 NA
ATOM     25  C   UNL     1       3.268  13.928  20.916  0.00  0.00    +0.000 C 
ATOM     26  C   UNL     1       3.206  15.348  20.344  0.00  0.00    +0.000 C 
ATOM     27  O   UNL     1       3.504  15.342  18.941  0.00  0.00    +0.000 OA
ATOM     28  C   UNL     1       2.618  14.500  18.189  0.00  0.00    +0.000 C 
ATOM     29  C   UNL     1       2.451  13.085  18.769  0.00  0.00    +0.000 C 
ENDBRANCH  21  24
ENDBRANCH   6  21
TORSDOF 5
ENDMDL
MODEL 9
REMARK VINA RESULT:      -7.9      3.899      8.374
REMARK  Name = 
REMARK  5 active torsions:
REMARK  status: ('A' for Active; 'I' for Inactive)
REMARK    1  A    between atoms: C_2  and  C_20
REMARK    2  A    between atoms: N_3  and  C_4
REMARK    3  A    between atoms: C_9  and  S_10
REMARK    4  A    between atoms: S_10  and  N_13
REMARK    5  A    between atoms: C_20  and  C_21
REMARK                            x       y       z     vdW  Elec       q    Type
REMARK                         _______ _______ _______ _____ _____    ______ ____
ROOT
ATOM      1  C   UNL     1       1.231   8.526  20.937  0.00  0.00    +0.000 A 
ATOM      2  C   UNL     1       1.120   8.678  22.328  0.00  0.00    +0.000 A 
ATOM      3  C   UNL     1       0.383   9.718  22.870  0.00  0.00    +0.000 A 
ATOM      4  C   UNL     1      -0.232  10.652  22.046  0.00  0.00    +0.000 A 
ATOM      5  F   UNL     1      -0.951  11.623  22.626  0.00  0.00    +0.000 F 
ATOM      6  C   UNL     1      -0.084  10.574  20.671  0.00  0.00    +0.000 A 
ATOM      7  C   UNL     1       0.665   9.511  20.106  0.00  0.00    +0.000 A 
ENDROOT
BRANCH   1  10
ATOM      8  O   UNL     1       2.386   8.198  18.217  0.00  0.00    +0.000 OA
ATOM      9  C   UNL     1       2.387   7.323  19.075  0.00  0.00    +0.000 C 
ATOM     10  N   UNL     1       1.914   7.417  20.385  0.00  0.00    +0.000 N 
ATOM     11  H   UNL     1       2.154   6.655  21.001  0.00  0.00    +0.000 HD
BRANCH   9  12
ATOM     12  C   UNL     1       2.964   5.980  18.733  0.00  0.00    +0.000 C 
ATOM     13  C   UNL     1       2.104   4.999  17.915  0.00  0.00    +0.000 C 
ATOM     14  C   UNL     1       2.297   4.763  19.375  0.00  0.00    +0.000 C 
BRANCH  12  15
ATOM     15  C   UNL     1       4.434   5.917  18.349  0.00  0.00    +0.000 A 
ATOM     16  C   UNL     1       4.923   6.652  17.260  0.00  0.00    +0.000 A 
ATOM     17  C   UNL     1       6.284   6.904  17.127  0.00  0.00    +0.000 A 
ATOM     18  C   UNL     1       7.182   6.377  18.053  0.00  0.00    +0.000 A 
ATOM     19  C   UNL     1       6.731   5.529  19.059  0.00  0.00    +0.000 A 
ATOM     20  C   UNL     1       5.366   5.284  19.193  0.00  0.00    +0.000 A 
ENDBRANCH  12  15
ENDBRANCH   9  12
ENDBRANCH   1  10
BRANCH   6  21
ATOM     21  S   UNL     1      -0.743  11.932  19.723  0.00  0.00    +0.000 S 
ATOM     22  O   UNL     1      -0.368  11.701  18.353  0.00  0.00    +0.000 OA
ATOM     23  O   UNL     1      -2.139  12.065  20.097  0.00  0.00    +0.000 OA
BRANCH  21  24
ATOM     24  N   UNL     1       0.075  13.298  20.311  0.00  0.00    +0.000 NA
ATOM     25  C   UNL     1      -0.564  14.630  20.172  0.00  0.00    +0.000 C 
ATOM     26  C   UNL     1      -0.187  15.252  18.824  0.00  0.00    +0.000 C 
ATOM     27  O   UNL     1       1.232  15.443  18.734  0.00  0.00    +0.000 OA
ATOM     28  C   UNL     1       1.968  14.223  18.903  0.00  0.00    +0.000 C 
ATOM     29  C   UNL     1       1.554  13.405  20.139  0.00  0.00    +0.000 C 
ENDBRANCH  21  24
ENDBRANCH   6  21
TORSDOF 5
ENDMDL
