MODEL 1
REMARK VINA RESULT:      -8.0      0.000      0.000
REMARK  Name = 
REMARK  3 active torsions:
REMARK  status: ('A' for Active; 'I' for Inactive)
REMARK    1  A    between atoms: C_2  and  C_3
REMARK    2  A    between atoms: C_9  and  C_10
REMARK    3  A    between atoms: C_19  and  C_20
REMARK                            x       y       z     vdW  Elec       q    Type
REMARK                         _______ _______ _______ _____ _____    ______ ____
ROOT
ATOM      1  O   UNL     1       5.126   3.490  19.403  0.00  0.00    +0.000 OA
ATOM      2  C   UNL     1       4.743   4.291  18.550  0.00  0.00    +0.000 C 
ATOM      3  N   UNL     1       3.585   5.059  18.750  0.00  0.00    +0.000 N 
ATOM      4  C   UNL     1       2.995   6.015  17.828  0.00  0.00    +0.000 C 
ATOM      5  C   UNL     1       2.629   7.208  18.677  0.00  0.00    +0.000 C 
ATOM      6  C   UNL     1       2.218   6.582  19.990  0.00  0.00    +0.000 C 
ATOM      7  C   UNL     1       3.059   5.292  20.114  0.00  0.00    +0.000 C 
ENDROOT
BRANCH   2   8
ATOM      8  C   UNL     1       5.551   4.449  17.300  0.00  0.00    +0.000 A 
ATOM      9  C   UNL     1       5.511   3.509  16.252  0.00  0.00    +0.000 A 
ATOM     10  C   UNL     1       6.119   3.758  15.018  0.00  0.00    +0.000 A 
ATOM     11  C   UNL     1       6.893   4.898  14.814  0.00  0.00    +0.000 A 
ATOM     12  C   UNL     1       7.048   5.751  15.906  0.00  0.00    +0.000 A 
ATOM     13  N   UNL     1       7.801   6.887  16.063  0.00  0.00    +0.000 N 
ATOM     14  C   UNL     1       7.613   7.359  17.334  0.00  0.00    +0.000 A 
ATOM     15  N   UNL     1       6.737   6.612  17.981  0.00  0.00    +0.000 NA
ATOM     16  C   UNL     1       6.402   5.572  17.132  0.00  0.00    +0.000 A 
ATOM     17  H   UNL     1       8.420   7.294  15.373  0.00  0.00    +0.000 HD
BRANCH  14  18
ATOM     18  C   UNL     1       8.354   8.556  17.814  0.00  0.00    +0.000 C 
ATOM     19  F   UNL     1       7.517   9.626  17.924  0.00  0.00    +0.000 F 
ATOM     20  F   UNL     1       8.835   8.346  19.072  0.00  0.00    +0.000 F 
ENDBRANCH  14  18
ENDBRANCH   2   8
BRANCH   7  21
ATOM     21  C   UNL     1       2.205   4.169  20.626  0.00  0.00    +0.000 A 
ATOM     22  C   UNL     1       2.258   3.455  21.814  0.00  0.00    +0.000 A 
ATOM     23  C   UNL     1       1.238   2.480  21.797  0.00  0.00    +0.000 A 
ATOM     24  C   UNL     1       0.607   2.584  20.581  0.00  0.00    +0.000 A 
ATOM     25  N   UNL     1       1.228   3.576  19.862  0.00  0.00    +0.000 N 
ATOM     26  H   UNL     1       1.030   3.835  18.900  0.00  0.00    +0.000 HD
ENDBRANCH   7  21
TORSDOF 3
ENDMDL
MODEL 2
REMARK VINA RESULT:      -7.9      2.700      6.475
REMARK  Name = 
REMARK  3 active torsions:
REMARK  status: ('A' for Active; 'I' for Inactive)
REMARK    1  A    between atoms: C_2  and  C_3
REMARK    2  A    between atoms: C_9  and  C_10
REMARK    3  A    between atoms: C_19  and  C_20
REMARK                            x       y       z     vdW  Elec       q    Type
REMARK                         _______ _______ _______ _____ _____    ______ ____
ROOT
ATOM      1  O   UNL     1       5.974   4.860  19.854  0.00  0.00    +0.000 OA
ATOM      2  C   UNL     1       5.153   4.768  18.941  0.00  0.00    +0.000 C 
ATOM      3  N   UNL     1       5.466   5.200  17.643  0.00  0.00    +0.000 N 
ATOM      4  C   UNL     1       4.597   5.185  16.478  0.00  0.00    +0.000 C 
ATOM      5  C   UNL     1       5.455   4.665  15.351  0.00  0.00    +0.000 C 
ATOM      6  C   UNL     1       6.820   5.232  15.670  0.00  0.00    +0.000 C 
ATOM      7  C   UNL     1       6.876   5.332  17.210  0.00  0.00    +0.000 C 
ENDROOT
BRANCH   2   8
ATOM      8  C   UNL     1       3.815   4.165  19.237  0.00  0.00    +0.000 A 
ATOM      9  C   UNL     1       3.520   2.815  18.968  0.00  0.00    +0.000 A 
ATOM     10  C   UNL     1       2.339   2.218  19.419  0.00  0.00    +0.000 A 
ATOM     11  C   UNL     1       1.349   2.966  20.051  0.00  0.00    +0.000 A 
ATOM     12  C   UNL     1       1.588   4.334  20.180  0.00  0.00    +0.000 A 
ATOM     13  N   UNL     1       0.797   5.345  20.664  0.00  0.00    +0.000 N 
ATOM     14  C   UNL     1       1.493   6.520  20.574  0.00  0.00    +0.000 A 
ATOM     15  N   UNL     1       2.709   6.304  20.106  0.00  0.00    +0.000 NA
ATOM     16  C   UNL     1       2.782   4.955  19.806  0.00  0.00    +0.000 A 
ATOM     17  H   UNL     1      -0.153   5.252  21.000  0.00  0.00    +0.000 HD
BRANCH  14  18
ATOM     18  C   UNL     1       0.861   7.807  20.972  0.00  0.00    +0.000 C 
ATOM     19  F   UNL     1      -0.392   7.593  21.463  0.00  0.00    +0.000 F 
ATOM     20  F   UNL     1       1.555   8.381  21.995  0.00  0.00    +0.000 F 
ENDBRANCH  14  18
ENDBRANCH   2   8
BRANCH   7  21
ATOM     21  C   UNL     1       7.507   6.632  17.617  0.00  0.00    +0.000 A 
ATOM     22  C   UNL     1       8.265   6.965  18.731  0.00  0.00    +0.000 A 
ATOM     23  C   UNL     1       8.599   8.333  18.652  0.00  0.00    +0.000 A 
ATOM     24  C   UNL     1       8.003   8.825  17.515  0.00  0.00    +0.000 A 
ATOM     25  N   UNL     1       7.307   7.801  16.922  0.00  0.00    +0.000 N 
ATOM     26  H   UNL     1       6.708   7.875  16.105  0.00  0.00    +0.000 HD
ENDBRANCH   7  21
TORSDOF 3
ENDMDL
MODEL 3
REMARK VINA RESULT:      -7.9      3.447      5.427
REMARK  Name = 
REMARK  3 active torsions:
REMARK  status: ('A' for Active; 'I' for Inactive)
REMARK    1  A    between atoms: C_2  and  C_3
REMARK    2  A    between atoms: C_9  and  C_10
REMARK    3  A    between atoms: C_19  and  C_20
REMARK                            x       y       z     vdW  Elec       q    Type
REMARK                         _______ _______ _______ _____ _____    ______ ____
ROOT
ATOM      1  O   UNL     1       2.064   8.854  17.091  0.00  0.00    +0.000 OA
ATOM      2  C   UNL     1       2.100   8.172  18.115  0.00  0.00    +0.000 C 
ATOM      3  N   UNL     1       1.643   8.684  19.340  0.00  0.00    +0.000 N 
ATOM      4  C   UNL     1       1.651   8.014  20.630  0.00  0.00    +0.000 C 
ATOM      5  C   UNL     1       0.300   8.307  21.235  0.00  0.00    +0.000 C 
ATOM      6  C   UNL     1       0.002   9.707  20.749  0.00  0.00    +0.000 C 
ATOM      7  C   UNL     1       0.701   9.826  19.377  0.00  0.00    +0.000 C 
ENDROOT
BRANCH   2   8
ATOM      8  C   UNL     1       2.623   6.772  18.027  0.00  0.00    +0.000 A 
ATOM      9  C   UNL     1       1.790   5.645  18.173  0.00  0.00    +0.000 A 
ATOM     10  C   UNL     1       2.250   4.353  17.903  0.00  0.00    +0.000 A 
ATOM     11  C   UNL     1       3.586   4.113  17.593  0.00  0.00    +0.000 A 
ATOM     12  C   UNL     1       4.435   5.220  17.596  0.00  0.00    +0.000 A 
ATOM     13  N   UNL     1       5.793   5.314  17.422  0.00  0.00    +0.000 N 
ATOM     14  C   UNL     1       6.150   6.633  17.519  0.00  0.00    +0.000 A 
ATOM     15  N   UNL     1       5.083   7.391  17.692  0.00  0.00    +0.000 NA
ATOM     16  C   UNL     1       4.002   6.534  17.792  0.00  0.00    +0.000 A 
ATOM     17  H   UNL     1       6.432   4.543  17.281  0.00  0.00    +0.000 HD
BRANCH  14  18
ATOM     18  C   UNL     1       7.579   7.037  17.431  0.00  0.00    +0.000 C 
ATOM     19  F   UNL     1       7.687   8.389  17.287  0.00  0.00    +0.000 F 
ATOM     20  F   UNL     1       8.228   6.748  18.594  0.00  0.00    +0.000 F 
ENDBRANCH  14  18
ENDBRANCH   2   8
BRANCH   7  21
ATOM     21  C   UNL     1       1.376  11.161  19.258  0.00  0.00    +0.000 A 
ATOM     22  C   UNL     1       1.485  12.208  20.162  0.00  0.00    +0.000 A 
ATOM     23  C   UNL     1       2.203  13.256  19.548  0.00  0.00    +0.000 A 
ATOM     24  C   UNL     1       2.484  12.851  18.265  0.00  0.00    +0.000 A 
ATOM     25  N   UNL     1       1.939  11.603  18.084  0.00  0.00    +0.000 N 
ATOM     26  H   UNL     1       1.921  11.076  17.216  0.00  0.00    +0.000 HD
ENDBRANCH   7  21
TORSDOF 3
ENDMDL
MODEL 4
REMARK VINA RESULT:      -7.6      3.389      5.773
REMARK  Name = 
REMARK  3 active torsions:
REMARK  status: ('A' for Active; 'I' for Inactive)
REMARK    1  A    between atoms: C_2  and  C_3
REMARK    2  A    between atoms: C_9  and  C_10
REMARK    3  A    between atoms: C_19  and  C_20
REMARK                            x       y       z     vdW  Elec       q    Type
REMARK                         _______ _______ _______ _____ _____    ______ ____
ROOT
ATOM      1  O   UNL     1       2.318   8.032  17.886  0.00  0.00    +0.000 OA
ATOM      2  C   UNL     1       2.141   7.681  19.052  0.00  0.00    +0.000 C 
ATOM      3  N   UNL     1       1.499   8.527  19.970  0.00  0.00    +0.000 N 
ATOM      4  C   UNL     1       1.248   8.268  21.379  0.00  0.00    +0.000 C 
ATOM      5  C   UNL     1      -0.174   8.716  21.615  0.00  0.00    +0.000 C 
ATOM      6  C   UNL     1      -0.315   9.909  20.697  0.00  0.00    +0.000 C 
ATOM      7  C   UNL     1       0.620   9.623  19.501  0.00  0.00    +0.000 C 
ENDROOT
BRANCH   2   8
ATOM      8  C   UNL     1       2.604   6.321  19.472  0.00  0.00    +0.000 A 
ATOM      9  C   UNL     1       1.859   5.506  20.346  0.00  0.00    +0.000 A 
ATOM     10  C   UNL     1       2.204   4.172  20.580  0.00  0.00    +0.000 A 
ATOM     11  C   UNL     1       3.372   3.627  20.051  0.00  0.00    +0.000 A 
ATOM     12  C   UNL     1       4.179   4.486  19.307  0.00  0.00    +0.000 A 
ATOM     13  N   UNL     1       5.411   4.293  18.733  0.00  0.00    +0.000 N 
ATOM     14  C   UNL     1       5.784   5.454  18.110  0.00  0.00    +0.000 A 
ATOM     15  N   UNL     1       4.830   6.361  18.210  0.00  0.00    +0.000 NA
ATOM     16  C   UNL     1       3.835   5.803  18.993  0.00  0.00    +0.000 A 
ATOM     17  H   UNL     1       5.971   3.451  18.787  0.00  0.00    +0.000 HD
BRANCH  14  18
ATOM     18  C   UNL     1       7.112   5.564  17.447  0.00  0.00    +0.000 C 
ATOM     19  F   UNL     1       7.851   6.558  18.016  0.00  0.00    +0.000 F 
ATOM     20  F   UNL     1       7.835   4.424  17.638  0.00  0.00    +0.000 F 
ENDBRANCH  14  18
ENDBRANCH   2   8
BRANCH   7  21
ATOM     21  C   UNL     1       1.367  10.869  19.125  0.00  0.00    +0.000 A 
ATOM     22  C   UNL     1       1.469  12.096  19.765  0.00  0.00    +0.000 A 
ATOM     23  C   UNL     1       2.278  12.945  18.979  0.00  0.00    +0.000 A 
ATOM     24  C   UNL     1       2.621  12.238  17.851  0.00  0.00    +0.000 A 
ATOM     25  N   UNL     1       2.028  11.002  17.926  0.00  0.00    +0.000 N 
ATOM     26  H   UNL     1       2.040  10.285  17.207  0.00  0.00    +0.000 HD
ENDBRANCH   7  21
TORSDOF 3
ENDMDL
MODEL 5
REMARK VINA RESULT:      -7.6      2.659      6.514
REMARK  Name = 
REMARK  3 active torsions:
REMARK  status: ('A' for Active; 'I' for Inactive)
REMARK    1  A    between atoms: C_2  and  C_3
REMARK    2  A    between atoms: C_9  and  C_10
REMARK    3  A    between atoms: C_19  and  C_20
REMARK                            x       y       z     vdW  Elec       q    Type
REMARK                         _______ _______ _______ _____ _____    ______ ____
ROOT
ATOM      1  O   UNL     1       6.031   4.863  19.881  0.00  0.00    +0.000 OA
ATOM      2  C   UNL     1       5.216   4.783  18.963  0.00  0.00    +0.000 C 
ATOM      3  N   UNL     1       5.527   5.255  17.678  0.00  0.00    +0.000 N 
ATOM      4  C   UNL     1       4.663   5.259  16.509  0.00  0.00    +0.000 C 
ATOM      5  C   UNL     1       5.535   4.785  15.372  0.00  0.00    +0.000 C 
ATOM      6  C   UNL     1       6.889   5.365  15.713  0.00  0.00    +0.000 C 
ATOM      7  C   UNL     1       6.937   5.423  17.256  0.00  0.00    +0.000 C 
ENDROOT
BRANCH   2   8
ATOM      8  C   UNL     1       3.887   4.149  19.236  0.00  0.00    +0.000 A 
ATOM      9  C   UNL     1       3.607   2.810  18.903  0.00  0.00    +0.000 A 
ATOM     10  C   UNL     1       2.436   2.177  19.329  0.00  0.00    +0.000 A 
ATOM     11  C   UNL     1       1.440   2.881  20.002  0.00  0.00    +0.000 A 
ATOM     12  C   UNL     1       1.663   4.244  20.196  0.00  0.00    +0.000 A 
ATOM     13  N   UNL     1       0.861   5.221  20.732  0.00  0.00    +0.000 N 
ATOM     14  C   UNL     1       1.543   6.408  20.694  0.00  0.00    +0.000 A 
ATOM     15  N   UNL     1       2.759   6.229  20.212  0.00  0.00    +0.000 NA
ATOM     16  C   UNL     1       2.847   4.898  19.846  0.00  0.00    +0.000 A 
ATOM     17  H   UNL     1      -0.086   5.100  21.067  0.00  0.00    +0.000 HD
BRANCH  14  18
ATOM     18  C   UNL     1       0.897   7.666  21.157  0.00  0.00    +0.000 C 
ATOM     19  F   UNL     1       1.032   8.646  20.220  0.00  0.00    +0.000 F 
ATOM     20  F   UNL     1      -0.446   7.487  21.299  0.00  0.00    +0.000 F 
ENDBRANCH  14  18
ENDBRANCH   2   8
BRANCH   7  21
ATOM     21  C   UNL     1       7.544   6.722  17.702  0.00  0.00    +0.000 A 
ATOM     22  C   UNL     1       7.584   7.965  17.088  0.00  0.00    +0.000 A 
ATOM     23  C   UNL     1       8.301   8.852  17.919  0.00  0.00    +0.000 A 
ATOM     24  C   UNL     1       8.726   8.126  19.006  0.00  0.00    +0.000 A 
ATOM     25  N   UNL     1       8.304   6.830  18.843  0.00  0.00    +0.000 N 
ATOM     26  H   UNL     1       8.526   6.045  19.449  0.00  0.00    +0.000 HD
ENDBRANCH   7  21
TORSDOF 3
ENDMDL
MODEL 6
REMARK VINA RESULT:      -7.5      2.726      6.496
REMARK  Name = 
REMARK  3 active torsions:
REMARK  status: ('A' for Active; 'I' for Inactive)
REMARK    1  A    between atoms: C_2  and  C_3
REMARK    2  A    between atoms: C_9  and  C_10
REMARK    3  A    between atoms: C_19  and  C_20
REMARK                            x       y       z     vdW  Elec       q    Type
REMARK                         _______ _______ _______ _____ _____    ______ ____
ROOT
ATOM      1  O   UNL     1       3.470   4.909  16.496  0.00  0.00    +0.000 OA
ATOM      2  C   UNL     1       4.146   4.772  17.516  0.00  0.00    +0.000 C 
ATOM      3  N   UNL     1       5.525   5.031  17.508  0.00  0.00    +0.000 N 
ATOM      4  C   UNL     1       6.454   4.885  18.616  0.00  0.00    +0.000 C 
ATOM      5  C   UNL     1       7.316   6.124  18.575  0.00  0.00    +0.000 C 
ATOM      6  C   UNL     1       7.440   6.406  17.095  0.00  0.00    +0.000 C 
ATOM      7  C   UNL     1       6.126   5.894  16.465  0.00  0.00    +0.000 C 
ENDROOT
BRANCH   2   8
ATOM      8  C   UNL     1       3.463   4.346  18.779  0.00  0.00    +0.000 A 
ATOM      9  C   UNL     1       3.435   3.004  19.205  0.00  0.00    +0.000 A 
ATOM     10  C   UNL     1       2.962   2.646  20.471  0.00  0.00    +0.000 A 
ATOM     11  C   UNL     1       2.386   3.589  21.318  0.00  0.00    +0.000 A 
ATOM     12  C   UNL     1       2.283   4.890  20.826  0.00  0.00    +0.000 A 
ATOM     13  N   UNL     1       1.701   6.012  21.359  0.00  0.00    +0.000 N 
ATOM     14  C   UNL     1       1.867   7.046  20.477  0.00  0.00    +0.000 A 
ATOM     15  N   UNL     1       2.572   6.655  19.431  0.00  0.00    +0.000 NA
ATOM     16  C   UNL     1       2.806   5.301  19.597  0.00  0.00    +0.000 A 
ATOM     17  H   UNL     1       1.202   6.066  22.238  0.00  0.00    +0.000 HD
BRANCH  14  18
ATOM     18  C   UNL     1       1.283   8.385  20.762  0.00  0.00    +0.000 C 
ATOM     19  F   UNL     1       1.107   9.086  19.606  0.00  0.00    +0.000 F 
ATOM     20  F   UNL     1       0.036   8.255  21.297  0.00  0.00    +0.000 F 
ENDBRANCH  14  18
ENDBRANCH   2   8
BRANCH   7  21
ATOM     21  C   UNL     1       6.420   5.168  15.184  0.00  0.00    +0.000 A 
ATOM     22  C   UNL     1       5.836   4.040  14.624  0.00  0.00    +0.000 A 
ATOM     23  C   UNL     1       6.499   3.748  13.413  0.00  0.00    +0.000 A 
ATOM     24  C   UNL     1       7.505   4.674  13.275  0.00  0.00    +0.000 A 
ATOM     25  N   UNL     1       7.479   5.499  14.373  0.00  0.00    +0.000 N 
ATOM     26  H   UNL     1       8.146   6.234  14.588  0.00  0.00    +0.000 HD
ENDBRANCH   7  21
TORSDOF 3
ENDMDL
MODEL 7
REMARK VINA RESULT:      -7.1      3.716      6.097
REMARK  Name = 
REMARK  3 active torsions:
REMARK  status: ('A' for Active; 'I' for Inactive)
REMARK    1  A    between atoms: C_2  and  C_3
REMARK    2  A    between atoms: C_9  and  C_10
REMARK    3  A    between atoms: C_19  and  C_20
REMARK                            x       y       z     vdW  Elec       q    Type
REMARK                         _______ _______ _______ _____ _____    ______ ____
ROOT
ATOM      1  O   UNL     1       2.207   8.226  17.876  0.00  0.00    +0.000 OA
ATOM      2  C   UNL     1       2.039   7.844  19.034  0.00  0.00    +0.000 C 
ATOM      3  N   UNL     1       1.421   8.671  19.984  0.00  0.00    +0.000 N 
ATOM      4  C   UNL     1       1.183   8.374  21.387  0.00  0.00    +0.000 C 
ATOM      5  C   UNL     1      -0.229   8.835  21.655  0.00  0.00    +0.000 C 
ATOM      6  C   UNL     1      -0.364  10.056  20.774  0.00  0.00    +0.000 C 
ATOM      7  C   UNL     1       0.552   9.793  19.559  0.00  0.00    +0.000 C 
ENDROOT
BRANCH   2   8
ATOM      8  C   UNL     1       2.487   6.465  19.407  0.00  0.00    +0.000 A 
ATOM      9  C   UNL     1       1.993   5.792  20.541  0.00  0.00    +0.000 A 
ATOM     10  C   UNL     1       2.273   4.442  20.774  0.00  0.00    +0.000 A 
ATOM     11  C   UNL     1       3.153   3.737  19.955  0.00  0.00    +0.000 A 
ATOM     12  C   UNL     1       3.752   4.455  18.921  0.00  0.00    +0.000 A 
ATOM     13  N   UNL     1       4.711   4.090  18.009  0.00  0.00    +0.000 N 
ATOM     14  C   UNL     1       4.967   5.163  17.198  0.00  0.00    +0.000 A 
ATOM     15  N   UNL     1       4.182   6.178  17.511  0.00  0.00    +0.000 NA
ATOM     16  C   UNL     1       3.446   5.783  18.614  0.00  0.00    +0.000 A 
ATOM     17  H   UNL     1       5.179   3.194  17.960  0.00  0.00    +0.000 HD
BRANCH  14  18
ATOM     18  C   UNL     1       6.014   5.083  16.144  0.00  0.00    +0.000 C 
ATOM     19  F   UNL     1       6.071   3.825  15.622  0.00  0.00    +0.000 F 
ATOM     20  F   UNL     1       5.696   5.893  15.095  0.00  0.00    +0.000 F 
ENDBRANCH  14  18
ENDBRANCH   2   8
BRANCH   7  21
ATOM     21  C   UNL     1       1.313  11.039  19.210  0.00  0.00    +0.000 A 
ATOM     22  C   UNL     1       1.416  12.256  19.869  0.00  0.00    +0.000 A 
ATOM     23  C   UNL     1       2.241  13.109  19.106  0.00  0.00    +0.000 A 
ATOM     24  C   UNL     1       2.593  12.417  17.972  0.00  0.00    +0.000 A 
ATOM     25  N   UNL     1       1.990  11.184  18.021  0.00  0.00    +0.000 N 
ATOM     26  H   UNL     1       2.006  10.477  17.292  0.00  0.00    +0.000 HD
ENDBRANCH   7  21
TORSDOF 3
ENDMDL
MODEL 8
REMARK VINA RESULT:      -7.0      1.831      3.008
REMARK  Name = 
REMARK  3 active torsions:
REMARK  status: ('A' for Active; 'I' for Inactive)
REMARK    1  A    between atoms: C_2  and  C_3
REMARK    2  A    between atoms: C_9  and  C_10
REMARK    3  A    between atoms: C_19  and  C_20
REMARK                            x       y       z     vdW  Elec       q    Type
REMARK                         _______ _______ _______ _____ _____    ______ ____
ROOT
ATOM      1  O   UNL     1       2.707   7.109  17.359  0.00  0.00    +0.000 OA
ATOM      2  C   UNL     1       3.354   6.229  17.926  0.00  0.00    +0.000 C 
ATOM      3  N   UNL     1       3.001   5.788  19.211  0.00  0.00    +0.000 N 
ATOM      4  C   UNL     1       3.683   4.787  20.015  0.00  0.00    +0.000 C 
ATOM      5  C   UNL     1       2.583   3.930  20.593  0.00  0.00    +0.000 C 
ATOM      6  C   UNL     1       1.463   4.918  20.825  0.00  0.00    +0.000 C 
ATOM      7  C   UNL     1       1.630   5.996  19.731  0.00  0.00    +0.000 C 
ENDROOT
BRANCH   2   8
ATOM      8  C   UNL     1       4.517   5.617  17.208  0.00  0.00    +0.000 A 
ATOM      9  C   UNL     1       4.443   4.353  16.592  0.00  0.00    +0.000 A 
ATOM     10  C   UNL     1       5.467   3.876  15.769  0.00  0.00    +0.000 A 
ATOM     11  C   UNL     1       6.659   4.583  15.619  0.00  0.00    +0.000 A 
ATOM     12  C   UNL     1       6.780   5.763  16.351  0.00  0.00    +0.000 A 
ATOM     13  N   UNL     1       7.834   6.631  16.493  0.00  0.00    +0.000 N 
ATOM     14  C   UNL     1       7.448   7.645  17.329  0.00  0.00    +0.000 A 
ATOM     15  N   UNL     1       6.185   7.498  17.685  0.00  0.00    +0.000 NA
ATOM     16  C   UNL     1       5.755   6.307  17.129  0.00  0.00    +0.000 A 
ATOM     17  H   UNL     1       8.753   6.527  16.083  0.00  0.00    +0.000 HD
BRANCH  14  18
ATOM     18  C   UNL     1       8.411   8.711  17.719  0.00  0.00    +0.000 C 
ATOM     19  F   UNL     1       7.773   9.909  17.844  0.00  0.00    +0.000 F 
ATOM     20  F   UNL     1       8.935   8.452  18.950  0.00  0.00    +0.000 F 
ENDBRANCH  14  18
ENDBRANCH   2   8
BRANCH   7  21
ATOM     21  C   UNL     1       1.414   7.361  20.318  0.00  0.00    +0.000 A 
ATOM     22  C   UNL     1       1.046   7.752  21.597  0.00  0.00    +0.000 A 
ATOM     23  C   UNL     1       0.955   9.160  21.626  0.00  0.00    +0.000 A 
ATOM     24  C   UNL     1       1.226   9.604  20.353  0.00  0.00    +0.000 A 
ATOM     25  N   UNL     1       1.455   8.507  19.559  0.00  0.00    +0.000 N 
ATOM     26  H   UNL     1       1.611   8.514  18.556  0.00  0.00    +0.000 HD
ENDBRANCH   7  21
TORSDOF 3
ENDMDL
MODEL 9
REMARK VINA RESULT:      -7.0      3.247      6.983
REMARK  Name = 
REMARK  3 active torsions:
REMARK  status: ('A' for Active; 'I' for Inactive)
REMARK    1  A    between atoms: C_2  and  C_3
REMARK    2  A    between atoms: C_9  and  C_10
REMARK    3  A    between atoms: C_19  and  C_20
REMARK                            x       y       z     vdW  Elec       q    Type
REMARK                         _______ _______ _______ _____ _____    ______ ____
ROOT
ATOM      1  O   UNL     1       3.798   7.093  16.669  0.00  0.00    +0.000 OA
ATOM      2  C   UNL     1       4.058   6.586  17.761  0.00  0.00    +0.000 C 
ATOM      3  N   UNL     1       5.273   5.915  17.974  0.00  0.00    +0.000 N 
ATOM      4  C   UNL     1       5.705   5.244  19.189  0.00  0.00    +0.000 C 
ATOM      5  C   UNL     1       7.143   5.660  19.379  0.00  0.00    +0.000 C 
ATOM      6  C   UNL     1       7.661   5.763  17.962  0.00  0.00    +0.000 C 
ATOM      7  C   UNL     1       6.444   6.179  17.107  0.00  0.00    +0.000 C 
ENDROOT
BRANCH   2   8
ATOM      8  C   UNL     1       3.061   6.719  18.869  0.00  0.00    +0.000 A 
ATOM      9  C   UNL     1       2.753   7.958  19.463  0.00  0.00    +0.000 A 
ATOM     10  C   UNL     1       1.691   8.098  20.361  0.00  0.00    +0.000 A 
ATOM     11  C   UNL     1       0.967   6.991  20.799  0.00  0.00    +0.000 A 
ATOM     12  C   UNL     1       1.377   5.748  20.318  0.00  0.00    +0.000 A 
ATOM     13  N   UNL     1       0.943   4.480  20.614  0.00  0.00    +0.000 N 
ATOM     14  C   UNL     1       1.673   3.590  19.872  0.00  0.00    +0.000 A 
ATOM     15  N   UNL     1       2.514   4.227  19.078  0.00  0.00    +0.000 NA
ATOM     16  C   UNL     1       2.386   5.574  19.368  0.00  0.00    +0.000 A 
ATOM     17  H   UNL     1       0.231   4.234  21.289  0.00  0.00    +0.000 HD
BRANCH  14  18
ATOM     18  C   UNL     1       1.465   2.125  20.028  0.00  0.00    +0.000 C 
ATOM     19  F   UNL     1       2.333   1.431  19.239  0.00  0.00    +0.000 F 
ATOM     20  F   UNL     1       1.749   1.737  21.304  0.00  0.00    +0.000 F 
ENDBRANCH  14  18
ENDBRANCH   2   8
BRANCH   7  21
ATOM     21  C   UNL     1       6.426   5.398  15.825  0.00  0.00    +0.000 A 
ATOM     22  C   UNL     1       5.607   4.360  15.404  0.00  0.00    +0.000 A 
ATOM     23  C   UNL     1       6.023   3.956  14.117  0.00  0.00    +0.000 A 
ATOM     24  C   UNL     1       7.117   4.722  13.791  0.00  0.00    +0.000 A 
ATOM     25  N   UNL     1       7.381   5.558  14.848  0.00  0.00    +0.000 N 
ATOM     26  H   UNL     1       8.171   6.192  14.930  0.00  0.00    +0.000 HD
ENDBRANCH   7  21
TORSDOF 3
ENDMDL
