MODEL 1
REMARK VINA RESULT:      -7.3      0.000      0.000
REMARK  Name = 
REMARK  7 active torsions:
REMARK  status: ('A' for Active; 'I' for Inactive)
REMARK    1  A    between atoms: C_2  and  C_3
REMARK    2  A    between atoms: C_5  and  C_6
REMARK    3  A    between atoms: C_6  and  C_7
REMARK    4  A    between atoms: C_7  and  C_8
REMARK    5  A    between atoms: N_12  and  C_13
REMARK    6  A    between atoms: C_15  and  N_16
REMARK    7  A    between atoms: C_23  and  C_24
REMARK                            x       y       z     vdW  Elec       q    Type
REMARK                         _______ _______ _______ _____ _____    ______ ____
ROOT
ATOM      1  C   UNL     1      -2.874  11.718  18.655  0.00  0.00    +0.000 A 
ATOM      2  C   UNL     1      -3.973  12.138  19.417  0.00  0.00    +0.000 A 
ATOM      3  C   UNL     1      -3.834  13.133  20.388  0.00  0.00    +0.000 A 
ATOM      4  C   UNL     1      -2.600  13.757  20.527  0.00  0.00    +0.000 A 
ATOM      5  C   UNL     1      -1.455  13.139  20.002  0.00  0.00    +0.000 A 
ATOM      6  C   UNL     1      -1.595  12.169  19.007  0.00  0.00    +0.000 A 
ENDROOT
BRANCH   5   7
ATOM      7  N   UNL     1      -0.283  13.073  20.859  0.00  0.00    +0.000 N 
ATOM      8  C   UNL     1       0.779  12.257  20.202  0.00  0.00    +0.000 C 
ATOM      9  C   UNL     1       0.620  10.903  20.832  0.00  0.00    +0.000 A 
ATOM     10  C   UNL     1      -0.031  11.086  22.054  0.00  0.00    +0.000 A 
ATOM     11  C   UNL     1      -0.516  10.039  22.815  0.00  0.00    +0.000 A 
ATOM     12  C   UNL     1      -0.378   8.752  22.285  0.00  0.00    +0.000 A 
ATOM     13  C   UNL     1       0.266   8.551  21.048  0.00  0.00    +0.000 A 
ATOM     14  C   UNL     1       0.803   9.624  20.305  0.00  0.00    +0.000 A 
ATOM     15  C   UNL     1      -0.505  12.484  22.126  0.00  0.00    +0.000 C 
ATOM     16  O   UNL     1      -1.122  12.946  23.070  0.00  0.00    +0.000 OA
BRANCH  14  17
ATOM     17  C   UNL     1       1.437   9.348  18.965  0.00  0.00    +0.000 C 
ATOM     18  F   UNL     1       2.364  10.274  18.598  0.00  0.00    +0.000 F 
ATOM     19  F   UNL     1       2.082   8.152  18.935  0.00  0.00    +0.000 F 
ATOM     20  F   UNL     1       0.542   9.305  17.943  0.00  0.00    +0.000 F 
ENDBRANCH  14  17
ENDBRANCH   5   7
BRANCH   1  22
ATOM     21  C   UNL     1      -3.173  10.905  16.341  0.00  0.00    +0.000 C 
ATOM     22  C   UNL     1      -3.084  10.666  17.656  0.00  0.00    +0.000 C 
ENDBRANCH   1  22
BRANCH   3  23
ATOM     23  C   UNL     1      -4.838  13.288  21.504  0.00  0.00    +0.000 C 
BRANCH  23  24
ATOM     24  C   UNL     1      -6.302  13.401  21.099  0.00  0.00    +0.000 C 
BRANCH  24  25
ATOM     25  C   UNL     1      -6.989  12.089  21.309  0.00  0.00    +0.000 A 
ATOM     26  N   UNL     1      -7.285  11.543  22.473  0.00  0.00    +0.000 NA
ATOM     27  N   UNL     1      -7.872  10.323  22.233  0.00  0.00    +0.000 NA
ATOM     28  C   UNL     1      -7.915  10.148  20.927  0.00  0.00    +0.000 A 
ATOM     29  N   UNL     1      -7.370  11.220  20.313  0.00  0.00    +0.000 N 
ATOM     30  C   UNL     1      -7.187  11.391  18.898  0.00  0.00    +0.000 C 
ENDBRANCH  24  25
ENDBRANCH  23  24
ENDBRANCH   3  23
TORSDOF 6
ENDMDL
MODEL 2
REMARK VINA RESULT:      -7.3      9.383     11.782
REMARK  Name = 
REMARK  7 active torsions:
REMARK  status: ('A' for Active; 'I' for Inactive)
REMARK    1  A    between atoms: C_2  and  C_3
REMARK    2  A    between atoms: C_5  and  C_6
REMARK    3  A    between atoms: C_6  and  C_7
REMARK    4  A    between atoms: C_7  and  C_8
REMARK    5  A    between atoms: N_12  and  C_13
REMARK    6  A    between atoms: C_15  and  N_16
REMARK    7  A    between atoms: C_23  and  C_24
REMARK                            x       y       z     vdW  Elec       q    Type
REMARK                         _______ _______ _______ _____ _____    ______ ____
ROOT
ATOM      1  C   UNL     1       8.993  10.511  18.283  0.00  0.00    +0.000 A 
ATOM      2  C   UNL     1       8.122  11.471  17.749  0.00  0.00    +0.000 A 
ATOM      3  C   UNL     1       8.539  12.791  17.560  0.00  0.00    +0.000 A 
ATOM      4  C   UNL     1       9.861  13.116  17.836  0.00  0.00    +0.000 A 
ATOM      5  C   UNL     1      10.624  12.260  18.645  0.00  0.00    +0.000 A 
ATOM      6  C   UNL     1      10.225  10.931  18.804  0.00  0.00    +0.000 A 
ENDROOT
BRANCH   5   7
ATOM      7  N   UNL     1      11.404  12.870  19.708  0.00  0.00    +0.000 N 
ATOM      8  C   UNL     1      10.914  12.391  21.034  0.00  0.00    +0.000 C 
ATOM      9  C   UNL     1      10.001  13.494  21.488  0.00  0.00    +0.000 A 
ATOM     10  C   UNL     1      10.376  14.653  20.805  0.00  0.00    +0.000 A 
ATOM     11  C   UNL     1       9.630  15.817  20.827  0.00  0.00    +0.000 A 
ATOM     12  C   UNL     1       8.425  15.785  21.535  0.00  0.00    +0.000 A 
ATOM     13  C   UNL     1       8.026  14.620  22.221  0.00  0.00    +0.000 A 
ATOM     14  C   UNL     1       8.821  13.454  22.232  0.00  0.00    +0.000 A 
ATOM     15  C   UNL     1      11.347  14.283  19.754  0.00  0.00    +0.000 C 
ATOM     16  O   UNL     1      11.850  15.079  18.981  0.00  0.00    +0.000 OA
BRANCH  14  17
ATOM     17  C   UNL     1       8.316  12.224  22.944  0.00  0.00    +0.000 C 
ATOM     18  F   UNL     1       8.501  11.072  22.244  0.00  0.00    +0.000 F 
ATOM     19  F   UNL     1       8.933  12.030  24.140  0.00  0.00    +0.000 F 
ATOM     20  F   UNL     1       6.986  12.271  23.223  0.00  0.00    +0.000 F 
ENDBRANCH  14  17
ENDBRANCH   5   7
BRANCH   1  22
ATOM     21  C   UNL     1       7.813   8.479  17.520  0.00  0.00    +0.000 C 
ATOM     22  C   UNL     1       8.495   9.144  18.461  0.00  0.00    +0.000 C 
ENDBRANCH   1  22
BRANCH   3  23
ATOM     23  C   UNL     1       7.544  13.918  17.428  0.00  0.00    +0.000 C 
BRANCH  23  24
ATOM     24  C   UNL     1       6.946  14.460  18.720  0.00  0.00    +0.000 C 
BRANCH  24  25
ATOM     25  C   UNL     1       5.591  15.033  18.451  0.00  0.00    +0.000 A 
ATOM     26  N   UNL     1       4.586  14.412  17.865  0.00  0.00    +0.000 NA
ATOM     27  N   UNL     1       3.537  15.296  17.771  0.00  0.00    +0.000 NA
ATOM     28  C   UNL     1       3.928  16.441  18.296  0.00  0.00    +0.000 A 
ATOM     29  N   UNL     1       5.203  16.324  18.725  0.00  0.00    +0.000 N 
ATOM     30  C   UNL     1       6.003  17.362  19.313  0.00  0.00    +0.000 C 
ENDBRANCH  24  25
ENDBRANCH  23  24
ENDBRANCH   3  23
TORSDOF 6
ENDMDL
MODEL 3
REMARK VINA RESULT:      -7.3      3.571      6.731
REMARK  Name = 
REMARK  7 active torsions:
REMARK  status: ('A' for Active; 'I' for Inactive)
REMARK    1  A    between atoms: C_2  and  C_3
REMARK    2  A    between atoms: C_5  and  C_6
REMARK    3  A    between atoms: C_6  and  C_7
REMARK    4  A    between atoms: C_7  and  C_8
REMARK    5  A    between atoms: N_12  and  C_13
REMARK    6  A    between atoms: C_15  and  N_16
REMARK    7  A    between atoms: C_23  and  C_24
REMARK                            x       y       z     vdW  Elec       q    Type
REMARK                         _______ _______ _______ _____ _____    ______ ____
ROOT
ATOM      1  C   UNL     1      -3.431  10.807  17.514  0.00  0.00    +0.000 A 
ATOM      2  C   UNL     1      -2.218  11.199  18.098  0.00  0.00    +0.000 A 
ATOM      3  C   UNL     1      -2.200  11.931  19.288  0.00  0.00    +0.000 A 
ATOM      4  C   UNL     1      -3.406  12.193  19.925  0.00  0.00    +0.000 A 
ATOM      5  C   UNL     1      -4.603  12.081  19.202  0.00  0.00    +0.000 A 
ATOM      6  C   UNL     1      -4.628  11.319  18.031  0.00  0.00    +0.000 A 
ENDROOT
BRANCH   5   7
ATOM      7  N   UNL     1      -5.563  13.165  19.330  0.00  0.00    +0.000 N 
ATOM      8  C   UNL     1      -5.131  14.097  20.413  0.00  0.00    +0.000 C 
ATOM      9  C   UNL     1      -5.936  13.652  21.599  0.00  0.00    +0.000 A 
ATOM     10  C   UNL     1      -7.054  12.972  21.113  0.00  0.00    +0.000 A 
ATOM     11  C   UNL     1      -7.914  12.255  21.924  0.00  0.00    +0.000 A 
ATOM     12  C   UNL     1      -7.594  12.186  23.284  0.00  0.00    +0.000 A 
ATOM     13  C   UNL     1      -6.463  12.856  23.789  0.00  0.00    +0.000 A 
ATOM     14  C   UNL     1      -5.621  13.627  22.959  0.00  0.00    +0.000 A 
ATOM     15  C   UNL     1      -6.877  12.760  19.661  0.00  0.00    +0.000 C 
ATOM     16  O   UNL     1      -7.684  12.182  18.954  0.00  0.00    +0.000 OA
BRANCH  14  17
ATOM     17  C   UNL     1      -4.400  14.282  23.552  0.00  0.00    +0.000 C 
ATOM     18  F   UNL     1      -4.427  15.642  23.498  0.00  0.00    +0.000 F 
ATOM     19  F   UNL     1      -4.232  13.970  24.865  0.00  0.00    +0.000 F 
ATOM     20  F   UNL     1      -3.242  13.918  22.940  0.00  0.00    +0.000 F 
ENDBRANCH  14  17
ENDBRANCH   5   7
BRANCH   1  22
ATOM     21  C   UNL     1      -2.966  10.559  15.099  0.00  0.00    +0.000 C 
ATOM     22  C   UNL     1      -3.384  10.044  16.263  0.00  0.00    +0.000 C 
ENDBRANCH   1  22
BRANCH   3  23
ATOM     23  C   UNL     1      -0.992  12.739  19.694  0.00  0.00    +0.000 C 
BRANCH  23  24
ATOM     24  C   UNL     1       0.274  11.960  20.028  0.00  0.00    +0.000 C 
BRANCH  24  25
ATOM     25  C   UNL     1       0.066  11.167  21.279  0.00  0.00    +0.000 A 
ATOM     26  N   UNL     1      -0.412  11.624  22.420  0.00  0.00    +0.000 NA
ATOM     27  N   UNL     1      -0.406  10.592  23.328  0.00  0.00    +0.000 NA
ATOM     28  C   UNL     1       0.083   9.527  22.722  0.00  0.00    +0.000 A 
ATOM     29  N   UNL     1       0.396   9.842  21.447  0.00  0.00    +0.000 N 
ATOM     30  C   UNL     1       0.997   8.970  20.476  0.00  0.00    +0.000 C 
ENDBRANCH  24  25
ENDBRANCH  23  24
ENDBRANCH   3  23
TORSDOF 6
ENDMDL
MODEL 4
REMARK VINA RESULT:      -7.3      1.167      1.865
REMARK  Name = 
REMARK  7 active torsions:
REMARK  status: ('A' for Active; 'I' for Inactive)
REMARK    1  A    between atoms: C_2  and  C_3
REMARK    2  A    between atoms: C_5  and  C_6
REMARK    3  A    between atoms: C_6  and  C_7
REMARK    4  A    between atoms: C_7  and  C_8
REMARK    5  A    between atoms: N_12  and  C_13
REMARK    6  A    between atoms: C_15  and  N_16
REMARK    7  A    between atoms: C_23  and  C_24
REMARK                            x       y       z     vdW  Elec       q    Type
REMARK                         _______ _______ _______ _____ _____    ______ ____
ROOT
ATOM      1  C   UNL     1      -2.428  11.842  18.188  0.00  0.00    +0.000 A 
ATOM      2  C   UNL     1      -3.555  11.979  19.012  0.00  0.00    +0.000 A 
ATOM      3  C   UNL     1      -3.503  12.755  20.173  0.00  0.00    +0.000 A 
ATOM      4  C   UNL     1      -2.336  13.455  20.452  0.00  0.00    +0.000 A 
ATOM      5  C   UNL     1      -1.141  13.080  19.818  0.00  0.00    +0.000 A 
ATOM      6  C   UNL     1      -1.196  12.334  18.639  0.00  0.00    +0.000 A 
ENDROOT
BRANCH   5   7
ATOM      7  N   UNL     1       0.042  12.952  20.652  0.00  0.00    +0.000 N 
ATOM      8  C   UNL     1       1.061  12.110  19.958  0.00  0.00    +0.000 C 
ATOM      9  C   UNL     1       0.861  10.751  20.563  0.00  0.00    +0.000 A 
ATOM     10  C   UNL     1       0.240  10.932  21.800  0.00  0.00    +0.000 A 
ATOM     11  C   UNL     1      -0.272   9.888  22.549  0.00  0.00    +0.000 A 
ATOM     12  C   UNL     1      -0.192   8.608  21.990  0.00  0.00    +0.000 A 
ATOM     13  C   UNL     1       0.421   8.409  20.738  0.00  0.00    +0.000 A 
ATOM     14  C   UNL     1       0.986   9.477  20.007  0.00  0.00    +0.000 A 
ATOM     15  C   UNL     1      -0.180  12.345  21.910  0.00  0.00    +0.000 C 
ATOM     16  O   UNL     1      -0.762  12.810  22.875  0.00  0.00    +0.000 OA
BRANCH  14  17
ATOM     17  C   UNL     1       1.586   9.205  18.650  0.00  0.00    +0.000 C 
ATOM     18  F   UNL     1       2.286   8.040  18.586  0.00  0.00    +0.000 F 
ATOM     19  F   UNL     1       0.642   9.122  17.675  0.00  0.00    +0.000 F 
ATOM     20  F   UNL     1       2.450  10.171  18.240  0.00  0.00    +0.000 F 
ENDBRANCH  14  17
ENDBRANCH   5   7
BRANCH   1  22
ATOM     21  C   UNL     1      -2.535   9.671  17.012  0.00  0.00    +0.000 C 
ATOM     22  C   UNL     1      -2.545  11.010  16.987  0.00  0.00    +0.000 C 
ENDBRANCH   1  22
BRANCH   3  23
ATOM     23  C   UNL     1      -4.503  12.569  21.287  0.00  0.00    +0.000 C 
BRANCH  23  24
ATOM     24  C   UNL     1      -5.926  13.039  21.018  0.00  0.00    +0.000 C 
BRANCH  24  25
ATOM     25  C   UNL     1      -6.699  13.079  22.298  0.00  0.00    +0.000 A 
ATOM     26  N   UNL     1      -7.273  12.052  22.892  0.00  0.00    +0.000 NA
ATOM     27  N   UNL     1      -7.914  12.516  24.017  0.00  0.00    +0.000 NA
ATOM     28  C   UNL     1      -7.722  13.819  24.080  0.00  0.00    +0.000 A 
ATOM     29  N   UNL     1      -6.976  14.212  23.026  0.00  0.00    +0.000 N 
ATOM     30  C   UNL     1      -6.590  15.560  22.711  0.00  0.00    +0.000 C 
ENDBRANCH  24  25
ENDBRANCH  23  24
ENDBRANCH   3  23
TORSDOF 6
ENDMDL
MODEL 5
REMARK VINA RESULT:      -7.3      2.931      3.913
REMARK  Name = 
REMARK  7 active torsions:
REMARK  status: ('A' for Active; 'I' for Inactive)
REMARK    1  A    between atoms: C_2  and  C_3
REMARK    2  A    between atoms: C_5  and  C_6
REMARK    3  A    between atoms: C_6  and  C_7
REMARK    4  A    between atoms: C_7  and  C_8
REMARK    5  A    between atoms: N_12  and  C_13
REMARK    6  A    between atoms: C_15  and  N_16
REMARK    7  A    between atoms: C_23  and  C_24
REMARK                            x       y       z     vdW  Elec       q    Type
REMARK                         _______ _______ _______ _____ _____    ______ ____
ROOT
ATOM      1  C   UNL     1      -2.929  10.320  16.561  0.00  0.00    +0.000 A 
ATOM      2  C   UNL     1      -4.015  10.967  17.168  0.00  0.00    +0.000 A 
ATOM      3  C   UNL     1      -3.849  11.689  18.352  0.00  0.00    +0.000 A 
ATOM      4  C   UNL     1      -2.569  11.822  18.874  0.00  0.00    +0.000 A 
ATOM      5  C   UNL     1      -1.561  10.939  18.456  0.00  0.00    +0.000 A 
ATOM      6  C   UNL     1      -1.714  10.245  17.254  0.00  0.00    +0.000 A 
ENDROOT
BRANCH   5   7
ATOM      7  N   UNL     1      -0.730  10.342  19.488  0.00  0.00    +0.000 N 
ATOM      8  C   UNL     1      -1.230  10.743  20.836  0.00  0.00    +0.000 C 
ATOM      9  C   UNL     1      -0.340  11.892  21.212  0.00  0.00    +0.000 A 
ATOM     10  C   UNL     1       0.833  11.773  20.463  0.00  0.00    +0.000 A 
ATOM     11  C   UNL     1       1.796  12.763  20.407  0.00  0.00    +0.000 A 
ATOM     12  C   UNL     1       1.532  13.946  21.104  0.00  0.00    +0.000 A 
ATOM     13  C   UNL     1       0.349  14.087  21.855  0.00  0.00    +0.000 A 
ATOM     14  C   UNL     1      -0.604  13.049  21.946  0.00  0.00    +0.000 A 
ATOM     15  C   UNL     1       0.633  10.719  19.446  0.00  0.00    +0.000 C 
ATOM     16  O   UNL     1       1.477  10.391  18.631  0.00  0.00    +0.000 OA
BRANCH  14  17
ATOM     17  C   UNL     1      -1.873  13.280  22.727  0.00  0.00    +0.000 C 
ATOM     18  F   UNL     1      -1.879  14.447  23.426  0.00  0.00    +0.000 F 
ATOM     19  F   UNL     1      -2.971  13.324  21.928  0.00  0.00    +0.000 F 
ATOM     20  F   UNL     1      -2.127  12.307  23.642  0.00  0.00    +0.000 F 
ENDBRANCH  14  17
ENDBRANCH   5   7
BRANCH   1  22
ATOM     21  C   UNL     1      -3.085  10.123  14.103  0.00  0.00    +0.000 C 
ATOM     22  C   UNL     1      -3.169   9.575  15.322  0.00  0.00    +0.000 C 
ENDBRANCH   1  22
BRANCH   3  23
ATOM     23  C   UNL     1      -5.019  12.002  19.252  0.00  0.00    +0.000 C 
BRANCH  23  24
ATOM     24  C   UNL     1      -6.317  11.255  18.974  0.00  0.00    +0.000 C 
BRANCH  24  25
ATOM     25  C   UNL     1      -6.978  10.886  20.265  0.00  0.00    +0.000 A 
ATOM     26  N   UNL     1      -7.193  11.693  21.286  0.00  0.00    +0.000 NA
ATOM     27  N   UNL     1      -7.783  10.960  22.288  0.00  0.00    +0.000 NA
ATOM     28  C   UNL     1      -7.908   9.719  21.859  0.00  0.00    +0.000 A 
ATOM     29  N   UNL     1      -7.414   9.628  20.606  0.00  0.00    +0.000 N 
ATOM     30  C   UNL     1      -7.325   8.435  19.809  0.00  0.00    +0.000 C 
ENDBRANCH  24  25
ENDBRANCH  23  24
ENDBRANCH   3  23
TORSDOF 6
ENDMDL
MODEL 6
REMARK VINA RESULT:      -7.2     10.464     12.082
REMARK  Name = 
REMARK  7 active torsions:
REMARK  status: ('A' for Active; 'I' for Inactive)
REMARK    1  A    between atoms: C_2  and  C_3
REMARK    2  A    between atoms: C_5  and  C_6
REMARK    3  A    between atoms: C_6  and  C_7
REMARK    4  A    between atoms: C_7  and  C_8
REMARK    5  A    between atoms: N_12  and  C_13
REMARK    6  A    between atoms: C_15  and  N_16
REMARK    7  A    between atoms: C_23  and  C_24
REMARK                            x       y       z     vdW  Elec       q    Type
REMARK                         _______ _______ _______ _____ _____    ______ ____
ROOT
ATOM      1  C   UNL     1       8.982  10.325  18.271  0.00  0.00    +0.000 A 
ATOM      2  C   UNL     1       8.080  11.259  17.741  0.00  0.00    +0.000 A 
ATOM      3  C   UNL     1       8.445  12.598  17.582  0.00  0.00    +0.000 A 
ATOM      4  C   UNL     1       9.749  12.971  17.884  0.00  0.00    +0.000 A 
ATOM      5  C   UNL     1      10.535  12.131  18.688  0.00  0.00    +0.000 A 
ATOM      6  C   UNL     1      10.188  10.785  18.817  0.00  0.00    +0.000 A 
ENDROOT
BRANCH   5   7
ATOM      7  N   UNL     1      11.275  12.752  19.775  0.00  0.00    +0.000 N 
ATOM      8  C   UNL     1      10.815  12.198  21.082  0.00  0.00    +0.000 C 
ATOM      9  C   UNL     1       9.834  13.224  21.570  0.00  0.00    +0.000 A 
ATOM     10  C   UNL     1      10.135  14.427  20.929  0.00  0.00    +0.000 A 
ATOM     11  C   UNL     1       9.317  15.541  20.989  0.00  0.00    +0.000 A 
ATOM     12  C   UNL     1       8.116  15.408  21.693  0.00  0.00    +0.000 A 
ATOM     13  C   UNL     1       7.791  14.197  22.337  0.00  0.00    +0.000 A 
ATOM     14  C   UNL     1       8.659  13.084  22.310  0.00  0.00    +0.000 A 
ATOM     15  C   UNL     1      11.127  14.156  19.868  0.00  0.00    +0.000 C 
ATOM     16  O   UNL     1      11.580  15.009  19.124  0.00  0.00    +0.000 OA
BRANCH  14  17
ATOM     17  C   UNL     1       8.232  11.801  22.978  0.00  0.00    +0.000 C 
ATOM     18  F   UNL     1       6.886  11.698  23.153  0.00  0.00    +0.000 F 
ATOM     19  F   UNL     1       8.595  10.702  22.266  0.00  0.00    +0.000 F 
ATOM     20  F   UNL     1       8.773  11.631  24.214  0.00  0.00    +0.000 F 
ENDBRANCH  14  17
ENDBRANCH   5   7
BRANCH   1  22
ATOM     21  C   UNL     1       7.741   8.319  17.534  0.00  0.00    +0.000 C 
ATOM     22  C   UNL     1       8.538   8.936  18.416  0.00  0.00    +0.000 C 
ENDBRANCH   1  22
BRANCH   3  23
ATOM     23  C   UNL     1       7.407  13.686  17.456  0.00  0.00    +0.000 C 
BRANCH  23  24
ATOM     24  C   UNL     1       7.865  15.108  17.749  0.00  0.00    +0.000 C 
BRANCH  24  25
ATOM     25  C   UNL     1       6.784  15.853  18.467  0.00  0.00    +0.000 A 
ATOM     26  N   UNL     1       5.579  15.396  18.745  0.00  0.00    +0.000 NA
ATOM     27  N   UNL     1       4.879  16.399  19.372  0.00  0.00    +0.000 NA
ATOM     28  C   UNL     1       5.671  17.450  19.457  0.00  0.00    +0.000 A 
ATOM     29  N   UNL     1       6.865  17.155  18.899  0.00  0.00    +0.000 N 
ATOM     30  C   UNL     1       7.981  18.048  18.752  0.00  0.00    +0.000 C 
ENDBRANCH  24  25
ENDBRANCH  23  24
ENDBRANCH   3  23
TORSDOF 6
ENDMDL
MODEL 7
REMARK VINA RESULT:      -7.2      3.049      4.061
REMARK  Name = 
REMARK  7 active torsions:
REMARK  status: ('A' for Active; 'I' for Inactive)
REMARK    1  A    between atoms: C_2  and  C_3
REMARK    2  A    between atoms: C_5  and  C_6
REMARK    3  A    between atoms: C_6  and  C_7
REMARK    4  A    between atoms: C_7  and  C_8
REMARK    5  A    between atoms: N_12  and  C_13
REMARK    6  A    between atoms: C_15  and  N_16
REMARK    7  A    between atoms: C_23  and  C_24
REMARK                            x       y       z     vdW  Elec       q    Type
REMARK                         _______ _______ _______ _____ _____    ______ ____
ROOT
ATOM      1  C   UNL     1      -3.089  10.619  17.022  0.00  0.00    +0.000 A 
ATOM      2  C   UNL     1      -4.146  11.191  17.745  0.00  0.00    +0.000 A 
ATOM      3  C   UNL     1      -3.908  11.884  18.934  0.00  0.00    +0.000 A 
ATOM      4  C   UNL     1      -2.593  12.067  19.344  0.00  0.00    +0.000 A 
ATOM      5  C   UNL     1      -1.586  11.251  18.808  0.00  0.00    +0.000 A 
ATOM      6  C   UNL     1      -1.814  10.585  17.601  0.00  0.00    +0.000 A 
ENDROOT
BRANCH   5   7
ATOM      7  N   UNL     1      -0.637  10.666  19.740  0.00  0.00    +0.000 N 
ATOM      8  C   UNL     1      -0.954  11.109  21.129  0.00  0.00    +0.000 C 
ATOM      9  C   UNL     1      -0.007  12.252  21.357  0.00  0.00    +0.000 A 
ATOM     10  C   UNL     1       1.057  12.095  20.467  0.00  0.00    +0.000 A 
ATOM     11  C   UNL     1       2.018  13.068  20.260  0.00  0.00    +0.000 A 
ATOM     12  C   UNL     1       1.862  14.272  20.953  0.00  0.00    +0.000 A 
ATOM     13  C   UNL     1       0.787  14.452  21.846  0.00  0.00    +0.000 A 
ATOM     14  C   UNL     1      -0.160  13.432  22.086  0.00  0.00    +0.000 A 
ATOM     15  C   UNL     1       0.714  11.020  19.513  0.00  0.00    +0.000 C 
ATOM     16  O   UNL     1       1.442  10.657  18.605  0.00  0.00    +0.000 OA
BRANCH  14  17
ATOM     17  C   UNL     1      -1.314  13.703  23.018  0.00  0.00    +0.000 C 
ATOM     18  F   UNL     1      -2.317  14.427  22.450  0.00  0.00    +0.000 F 
ATOM     19  F   UNL     1      -1.895  12.559  23.467  0.00  0.00    +0.000 F 
ATOM     20  F   UNL     1      -0.956  14.392  24.134  0.00  0.00    +0.000 F 
ENDBRANCH  14  17
ENDBRANCH   5   7
BRANCH   1  22
ATOM     21  C   UNL     1      -2.938  10.261  14.582  0.00  0.00    +0.000 C 
ATOM     22  C   UNL     1      -3.404   9.900  15.784  0.00  0.00    +0.000 C 
ENDBRANCH   1  22
BRANCH   3  23
ATOM     23  C   UNL     1      -5.005  12.109  19.946  0.00  0.00    +0.000 C 
BRANCH  23  24
ATOM     24  C   UNL     1      -4.832  13.288  20.895  0.00  0.00    +0.000 C 
BRANCH  24  25
ATOM     25  C   UNL     1      -5.523  13.002  22.190  0.00  0.00    +0.000 A 
ATOM     26  N   UNL     1      -5.010  12.358  23.220  0.00  0.00    +0.000 NA
ATOM     27  N   UNL     1      -5.979  12.271  24.192  0.00  0.00    +0.000 NA
ATOM     28  C   UNL     1      -7.065  12.859  23.730  0.00  0.00    +0.000 A 
ATOM     29  N   UNL     1      -6.827  13.323  22.485  0.00  0.00    +0.000 N 
ATOM     30  C   UNL     1      -7.772  13.982  21.626  0.00  0.00    +0.000 C 
ENDBRANCH  24  25
ENDBRANCH  23  24
ENDBRANCH   3  23
TORSDOF 6
ENDMDL
MODEL 8
REMARK VINA RESULT:      -7.1      2.438      3.917
REMARK  Name = 
REMARK  7 active torsions:
REMARK  status: ('A' for Active; 'I' for Inactive)
REMARK    1  A    between atoms: C_2  and  C_3
REMARK    2  A    between atoms: C_5  and  C_6
REMARK    3  A    between atoms: C_6  and  C_7
REMARK    4  A    between atoms: C_7  and  C_8
REMARK    5  A    between atoms: N_12  and  C_13
REMARK    6  A    between atoms: C_15  and  N_16
REMARK    7  A    between atoms: C_23  and  C_24
REMARK                            x       y       z     vdW  Elec       q    Type
REMARK                         _______ _______ _______ _____ _____    ______ ____
ROOT
ATOM      1  C   UNL     1       0.351  10.075  17.951  0.00  0.00    +0.000 A 
ATOM      2  C   UNL     1      -1.047  10.138  17.858  0.00  0.00    +0.000 A 
ATOM      3  C   UNL     1      -1.733  11.315  18.164  0.00  0.00    +0.000 A 
ATOM      4  C   UNL     1      -0.997  12.449  18.484  0.00  0.00    +0.000 A 
ATOM      5  C   UNL     1       0.344  12.310  18.874  0.00  0.00    +0.000 A 
ATOM      6  C   UNL     1       1.039  11.146  18.536  0.00  0.00    +0.000 A 
ENDROOT
BRANCH   5   7
ATOM      7  N   UNL     1       0.773  13.042  20.054  0.00  0.00    +0.000 N 
ATOM      8  C   UNL     1       1.103  12.086  21.151  0.00  0.00    +0.000 C 
ATOM      9  C   UNL     1      -0.143  12.071  21.988  0.00  0.00    +0.000 A 
ATOM     10  C   UNL     1      -0.831  13.258  21.733  0.00  0.00    +0.000 A 
ATOM     11  C   UNL     1      -2.117  13.497  22.181  0.00  0.00    +0.000 A 
ATOM     12  C   UNL     1      -2.749  12.462  22.878  0.00  0.00    +0.000 A 
ATOM     13  C   UNL     1      -2.072  11.253  23.135  0.00  0.00    +0.000 A 
ATOM     14  C   UNL     1      -0.741  11.041  22.716  0.00  0.00    +0.000 A 
ATOM     15  C   UNL     1      -0.191  13.932  20.584  0.00  0.00    +0.000 C 
ATOM     16  O   UNL     1      -0.574  14.989  20.115  0.00  0.00    +0.000 OA
BRANCH  14  17
ATOM     17  C   UNL     1      -0.089   9.707  22.979  0.00  0.00    +0.000 C 
ATOM     18  F   UNL     1      -0.830   8.644  22.564  0.00  0.00    +0.000 F 
ATOM     19  F   UNL     1       1.111   9.585  22.352  0.00  0.00    +0.000 F 
ATOM     20  F   UNL     1       0.163   9.481  24.296  0.00  0.00    +0.000 F 
ENDBRANCH  14  17
ENDBRANCH   5   7
BRANCH   1  22
ATOM     21  C   UNL     1       2.180   8.425  18.154  0.00  0.00    +0.000 C 
ATOM     22  C   UNL     1       1.013   8.809  17.620  0.00  0.00    +0.000 C 
ENDBRANCH   1  22
BRANCH   3  23
ATOM     23  C   UNL     1      -3.201  11.300  18.512  0.00  0.00    +0.000 C 
BRANCH  23  24
ATOM     24  C   UNL     1      -4.159  10.824  17.427  0.00  0.00    +0.000 C 
BRANCH  24  25
ATOM     25  C   UNL     1      -5.439  11.593  17.506  0.00  0.00    +0.000 A 
ATOM     26  N   UNL     1      -5.693  12.744  16.915  0.00  0.00    +0.000 NA
ATOM     27  N   UNL     1      -6.961  13.135  17.272  0.00  0.00    +0.000 NA
ATOM     28  C   UNL     1      -7.452  12.216  18.081  0.00  0.00    +0.000 A 
ATOM     29  N   UNL     1      -6.535  11.242  18.259  0.00  0.00    +0.000 N 
ATOM     30  C   UNL     1      -6.669  10.089  19.106  0.00  0.00    +0.000 C 
ENDBRANCH  24  25
ENDBRANCH  23  24
ENDBRANCH   3  23
TORSDOF 6
ENDMDL
MODEL 9
REMARK VINA RESULT:      -7.1      3.671      7.022
REMARK  Name = 
REMARK  7 active torsions:
REMARK  status: ('A' for Active; 'I' for Inactive)
REMARK    1  A    between atoms: C_2  and  C_3
REMARK    2  A    between atoms: C_5  and  C_6
REMARK    3  A    between atoms: C_6  and  C_7
REMARK    4  A    between atoms: C_7  and  C_8
REMARK    5  A    between atoms: N_12  and  C_13
REMARK    6  A    between atoms: C_15  and  N_16
REMARK    7  A    between atoms: C_23  and  C_24
REMARK                            x       y       z     vdW  Elec       q    Type
REMARK                         _______ _______ _______ _____ _____    ______ ____
ROOT
ATOM      1  C   UNL     1      -3.693  11.366  17.440  0.00  0.00    +0.000 A 
ATOM      2  C   UNL     1      -2.383  11.356  17.940  0.00  0.00    +0.000 A 
ATOM      3  C   UNL     1      -2.109  11.791  19.239  0.00  0.00    +0.000 A 
ATOM      4  C   UNL     1      -3.173  12.157  20.055  0.00  0.00    +0.000 A 
ATOM      5  C   UNL     1      -4.413  12.459  19.473  0.00  0.00    +0.000 A 
ATOM      6  C   UNL     1      -4.698  11.994  18.187  0.00  0.00    +0.000 A 
ENDROOT
BRANCH   5   7
ATOM      7  N   UNL     1      -5.083  13.667  19.925  0.00  0.00    +0.000 N 
ATOM      8  C   UNL     1      -4.585  14.045  21.280  0.00  0.00    +0.000 C 
ATOM      9  C   UNL     1      -5.628  13.486  22.205  0.00  0.00    +0.000 A 
ATOM     10  C   UNL     1      -6.803  13.336  21.466  0.00  0.00    +0.000 A 
ATOM     11  C   UNL     1      -7.914  12.666  21.942  0.00  0.00    +0.000 A 
ATOM     12  C   UNL     1      -7.808  12.080  23.208  0.00  0.00    +0.000 A 
ATOM     13  C   UNL     1      -6.625  12.211  23.962  0.00  0.00    +0.000 A 
ATOM     14  C   UNL     1      -5.515  12.941  23.485  0.00  0.00    +0.000 A 
ATOM     15  C   UNL     1      -6.489  13.560  20.039  0.00  0.00    +0.000 C 
ATOM     16  O   UNL     1      -7.311  13.486  19.142  0.00  0.00    +0.000 OA
BRANCH  14  17
ATOM     17  C   UNL     1      -4.261  13.005  24.320  0.00  0.00    +0.000 C 
ATOM     18  F   UNL     1      -3.867  14.273  24.619  0.00  0.00    +0.000 F 
ATOM     19  F   UNL     1      -4.403  12.373  25.515  0.00  0.00    +0.000 F 
ATOM     20  F   UNL     1      -3.186  12.422  23.724  0.00  0.00    +0.000 F 
ENDBRANCH  14  17
ENDBRANCH   5   7
BRANCH   1  22
ATOM     21  C   UNL     1      -3.100  10.047  15.436  0.00  0.00    +0.000 C 
ATOM     22  C   UNL     1      -3.915  10.902  16.067  0.00  0.00    +0.000 C 
ENDBRANCH   1  22
BRANCH   3  23
ATOM     23  C   UNL     1      -0.721  12.218  19.648  0.00  0.00    +0.000 C 
BRANCH  23  24
ATOM     24  C   UNL     1       0.070  11.243  20.511  0.00  0.00    +0.000 C 
BRANCH  24  25
ATOM     25  C   UNL     1       0.842  10.304  19.638  0.00  0.00    +0.000 A 
ATOM     26  N   UNL     1       1.231  10.536  18.400  0.00  0.00    +0.000 NA
ATOM     27  N   UNL     1       1.873   9.411  17.939  0.00  0.00    +0.000 NA
ATOM     28  C   UNL     1       1.855   8.513  18.905  0.00  0.00    +0.000 A 
ATOM     29  N   UNL     1       1.217   9.026  19.979  0.00  0.00    +0.000 N 
ATOM     30  C   UNL     1       0.948   8.345  21.215  0.00  0.00    +0.000 C 
ENDBRANCH  24  25
ENDBRANCH  23  24
ENDBRANCH   3  23
TORSDOF 6
ENDMDL
