MODEL 1
REMARK VINA RESULT:      -8.5      0.000      0.000
REMARK  Name = 
REMARK  7 active torsions:
REMARK  status: ('A' for Active; 'I' for Inactive)
REMARK    1  A    between atoms: C_1  and  C_2
REMARK    2  A    between atoms: C_2  and  S_3
REMARK    3  A    between atoms: C_2  and  C_10
REMARK    4  A    between atoms: S_3  and  C_4
REMARK    5  A    between atoms: N_8  and  C_9
REMARK    6  A    between atoms: C_14  and  N_15
REMARK    7  A    between atoms: C_16  and  C_18
REMARK                            x       y       z     vdW  Elec       q    Type
REMARK                         _______ _______ _______ _____ _____    ______ ____
ROOT
ATOM      1  C   UNL     1       3.218   4.243  19.368  0.00  0.00    +0.000 A 
ATOM      2  C   UNL     1       2.122   3.390  19.584  0.00  0.00    +0.000 A 
ATOM      3  C   UNL     1       0.941   3.879  20.118  0.00  0.00    +0.000 A 
ATOM      4  C   UNL     1       0.858   5.209  20.520  0.00  0.00    +0.000 A 
ATOM      5  C   UNL     1       1.957   6.056  20.435  0.00  0.00    +0.000 A 
ATOM      6  C   UNL     1       3.110   5.597  19.779  0.00  0.00    +0.000 A 
ENDROOT
BRANCH   5   7
ATOM      7  N   UNL     1       1.962   7.295  21.111  0.00  0.00    +0.000 N 
ATOM      8  C   UNL     1       1.513   8.465  20.485  0.00  0.00    +0.000 C 
ATOM      9  O   UNL     1       1.307   8.640  19.277  0.00  0.00    +0.000 OA
ATOM     10  H   UNL     1       1.937   7.279  22.125  0.00  0.00    +0.000 HD
BRANCH   8  11
ATOM     11  C   UNL     1       1.101   9.579  21.368  0.00  0.00    +0.000 C 
ATOM     12  C   UNL     1       1.000   9.247  22.662  0.00  0.00    +0.000 C 
ATOM     13  O   UNL     1       0.164   9.877  23.531  0.00  0.00    +0.000 OA
ATOM     14  C   UNL     1      -0.939  10.515  22.866  0.00  0.00    +0.000 C 
ATOM     15  C   UNL     1      -0.687  11.150  21.526  0.00  0.00    +0.000 A 
ATOM     16  C   UNL     1      -1.656  12.054  21.041  0.00  0.00    +0.000 A 
ATOM     17  C   UNL     1      -1.404  12.771  19.886  0.00  0.00    +0.000 A 
ATOM     18  C   UNL     1      -0.190  12.567  19.239  0.00  0.00    +0.000 A 
ATOM     19  C   UNL     1       0.722  11.573  19.683  0.00  0.00    +0.000 A 
ATOM     20  C   UNL     1       0.435  10.799  20.821  0.00  0.00    +0.000 A 
ENDBRANCH   8  11
ENDBRANCH   5   7
BRANCH   1  22
ATOM     21  C   UNL     1       4.344   3.098  17.405  0.00  0.00    +0.000 C 
ATOM     22  C   UNL     1       4.516   3.618  18.831  0.00  0.00    +0.000 C 
BRANCH  22  23
ATOM     23  S   UNL     1       5.869   4.863  18.997  0.00  0.00    +0.000 S 
BRANCH  23  24
ATOM     24  C   UNL     1       6.487   5.046  17.393  0.00  0.00    +0.000 A 
ATOM     25  N   UNL     1       7.546   4.472  16.871  0.00  0.00    +0.000 NA
ATOM     26  N   UNL     1       7.575   4.780  15.528  0.00  0.00    +0.000 NA
ATOM     27  C   UNL     1       6.551   5.561  15.279  0.00  0.00    +0.000 A 
ATOM     28  N   UNL     1       5.868   5.800  16.436  0.00  0.00    +0.000 N 
ATOM     29  C   UNL     1       4.733   6.674  16.559  0.00  0.00    +0.000 C 
ENDBRANCH  23  24
ENDBRANCH  22  23
ENDBRANCH   1  22
TORSDOF 5
ENDMDL
MODEL 2
REMARK VINA RESULT:      -8.4      2.355      3.270
REMARK  Name = 
REMARK  7 active torsions:
REMARK  status: ('A' for Active; 'I' for Inactive)
REMARK    1  A    between atoms: C_1  and  C_2
REMARK    2  A    between atoms: C_2  and  S_3
REMARK    3  A    between atoms: C_2  and  C_10
REMARK    4  A    between atoms: S_3  and  C_4
REMARK    5  A    between atoms: N_8  and  C_9
REMARK    6  A    between atoms: C_14  and  N_15
REMARK    7  A    between atoms: C_16  and  C_18
REMARK                            x       y       z     vdW  Elec       q    Type
REMARK                         _______ _______ _______ _____ _____    ______ ____
ROOT
ATOM      1  C   UNL     1       4.901   5.656  17.909  0.00  0.00    +0.000 A 
ATOM      2  C   UNL     1       4.703   5.082  19.176  0.00  0.00    +0.000 A 
ATOM      3  C   UNL     1       3.536   5.318  19.884  0.00  0.00    +0.000 A 
ATOM      4  C   UNL     1       2.582   6.196  19.378  0.00  0.00    +0.000 A 
ATOM      5  C   UNL     1       2.793   6.879  18.186  0.00  0.00    +0.000 A 
ATOM      6  C   UNL     1       3.913   6.543  17.408  0.00  0.00    +0.000 A 
ENDROOT
BRANCH   5   7
ATOM      7  N   UNL     1       1.978   7.976  17.833  0.00  0.00    +0.000 N 
ATOM      8  C   UNL     1       1.498   8.866  18.802  0.00  0.00    +0.000 C 
ATOM      9  O   UNL     1       1.490   8.708  20.030  0.00  0.00    +0.000 OA
ATOM     10  H   UNL     1       2.043   8.324  16.882  0.00  0.00    +0.000 HD
BRANCH   8  11
ATOM     11  C   UNL     1       1.084  10.206  18.331  0.00  0.00    +0.000 C 
ATOM     12  C   UNL     1       2.028  11.149  18.453  0.00  0.00    +0.000 C 
ATOM     13  O   UNL     1       1.746  12.471  18.610  0.00  0.00    +0.000 OA
ATOM     14  C   UNL     1       0.437  12.692  19.160  0.00  0.00    +0.000 C 
ATOM     15  C   UNL     1      -0.673  11.767  18.740  0.00  0.00    +0.000 A 
ATOM     16  C   UNL     1      -1.997  12.180  19.001  0.00  0.00    +0.000 A 
ATOM     17  C   UNL     1      -3.054  11.437  18.507  0.00  0.00    +0.000 A 
ATOM     18  C   UNL     1      -2.764  10.295  17.766  0.00  0.00    +0.000 A 
ATOM     19  C   UNL     1      -1.428   9.840  17.611  0.00  0.00    +0.000 A 
ATOM     20  C   UNL     1      -0.358  10.562  18.168  0.00  0.00    +0.000 A 
ENDBRANCH   8  11
ENDBRANCH   5   7
BRANCH   1  22
ATOM     21  C   UNL     1       7.342   5.034  18.208  0.00  0.00    +0.000 C 
ATOM     22  C   UNL     1       6.246   5.400  17.209  0.00  0.00    +0.000 C 
BRANCH  22  23
ATOM     23  S   UNL     1       5.985   4.117  15.907  0.00  0.00    +0.000 S 
BRANCH  23  24
ATOM     24  C   UNL     1       6.857   4.708  14.537  0.00  0.00    +0.000 A 
ATOM     25  N   UNL     1       7.856   5.560  14.528  0.00  0.00    +0.000 NA
ATOM     26  N   UNL     1       8.345   5.625  13.241  0.00  0.00    +0.000 NA
ATOM     27  C   UNL     1       7.607   4.835  12.497  0.00  0.00    +0.000 A 
ATOM     28  N   UNL     1       6.623   4.279  13.261  0.00  0.00    +0.000 N 
ATOM     29  C   UNL     1       5.581   3.419  12.767  0.00  0.00    +0.000 C 
ENDBRANCH  23  24
ENDBRANCH  22  23
ENDBRANCH   1  22
TORSDOF 5
ENDMDL
MODEL 3
REMARK VINA RESULT:      -8.3      2.136      2.915
REMARK  Name = 
REMARK  7 active torsions:
REMARK  status: ('A' for Active; 'I' for Inactive)
REMARK    1  A    between atoms: C_1  and  C_2
REMARK    2  A    between atoms: C_2  and  S_3
REMARK    3  A    between atoms: C_2  and  C_10
REMARK    4  A    between atoms: S_3  and  C_4
REMARK    5  A    between atoms: N_8  and  C_9
REMARK    6  A    between atoms: C_14  and  N_15
REMARK    7  A    between atoms: C_16  and  C_18
REMARK                            x       y       z     vdW  Elec       q    Type
REMARK                         _______ _______ _______ _____ _____    ______ ____
ROOT
ATOM      1  C   UNL     1       4.397   5.331  17.311  0.00  0.00    +0.000 A 
ATOM      2  C   UNL     1       3.516   4.237  17.343  0.00  0.00    +0.000 A 
ATOM      3  C   UNL     1       2.210   4.395  17.780  0.00  0.00    +0.000 A 
ATOM      4  C   UNL     1       1.785   5.627  18.268  0.00  0.00    +0.000 A 
ATOM      5  C   UNL     1       2.660   6.703  18.367  0.00  0.00    +0.000 A 
ATOM      6  C   UNL     1       3.942   6.579  17.807  0.00  0.00    +0.000 A 
ENDROOT
BRANCH   5   7
ATOM      7  N   UNL     1       2.317   7.840  19.129  0.00  0.00    +0.000 N 
ATOM      8  C   UNL     1       1.898   9.027  18.514  0.00  0.00    +0.000 C 
ATOM      9  O   UNL     1       1.998   9.330  17.318  0.00  0.00    +0.000 OA
ATOM     10  H   UNL     1       2.026   7.693  20.089  0.00  0.00    +0.000 HD
BRANCH   8  11
ATOM     11  C   UNL     1       1.118   9.970  19.345  0.00  0.00    +0.000 C 
ATOM     12  C   UNL     1       0.120   9.401  20.036  0.00  0.00    +0.000 C 
ATOM     13  O   UNL     1      -1.007  10.066  20.404  0.00  0.00    +0.000 OA
ATOM     14  C   UNL     1      -1.274  11.201  19.563  0.00  0.00    +0.000 C 
ATOM     15  C   UNL     1      -0.103  11.999  19.058  0.00  0.00    +0.000 A 
ATOM     16  C   UNL     1      -0.368  13.282  18.532  0.00  0.00    +0.000 A 
ATOM     17  C   UNL     1       0.684  14.110  18.189  0.00  0.00    +0.000 A 
ATOM     18  C   UNL     1       1.980  13.637  18.376  0.00  0.00    +0.000 A 
ATOM     19  C   UNL     1       2.221  12.304  18.802  0.00  0.00    +0.000 A 
ATOM     20  C   UNL     1       1.148  11.441  19.090  0.00  0.00    +0.000 A 
ENDBRANCH   8  11
ENDBRANCH   5   7
BRANCH   1  22
ATOM     21  C   UNL     1       6.726   4.651  18.050  0.00  0.00    +0.000 C 
ATOM     22  C   UNL     1       5.847   5.067  16.873  0.00  0.00    +0.000 C 
BRANCH  22  23
ATOM     23  S   UNL     1       5.823   3.828  15.505  0.00  0.00    +0.000 S 
BRANCH  23  24
ATOM     24  C   UNL     1       6.756   4.556  14.245  0.00  0.00    +0.000 A 
ATOM     25  N   UNL     1       7.659   5.502  14.360  0.00  0.00    +0.000 NA
ATOM     26  N   UNL     1       8.259   5.666  13.130  0.00  0.00    +0.000 NA
ATOM     27  C   UNL     1       7.680   4.837  12.294  0.00  0.00    +0.000 A 
ATOM     28  N   UNL     1       6.690   4.156  12.940  0.00  0.00    +0.000 N 
ATOM     29  C   UNL     1       5.793   3.218  12.320  0.00  0.00    +0.000 C 
ENDBRANCH  23  24
ENDBRANCH  22  23
ENDBRANCH   1  22
TORSDOF 5
ENDMDL
MODEL 4
REMARK VINA RESULT:      -8.3      1.792      2.853
REMARK  Name = 
REMARK  7 active torsions:
REMARK  status: ('A' for Active; 'I' for Inactive)
REMARK    1  A    between atoms: C_1  and  C_2
REMARK    2  A    between atoms: C_2  and  S_3
REMARK    3  A    between atoms: C_2  and  C_10
REMARK    4  A    between atoms: S_3  and  C_4
REMARK    5  A    between atoms: N_8  and  C_9
REMARK    6  A    between atoms: C_14  and  N_15
REMARK    7  A    between atoms: C_16  and  C_18
REMARK                            x       y       z     vdW  Elec       q    Type
REMARK                         _______ _______ _______ _____ _____    ______ ____
ROOT
ATOM      1  C   UNL     1       2.544   6.505  19.578  0.00  0.00    +0.000 A 
ATOM      2  C   UNL     1       2.791   6.832  18.234  0.00  0.00    +0.000 A 
ATOM      3  C   UNL     1       2.425   8.070  17.730  0.00  0.00    +0.000 A 
ATOM      4  C   UNL     1       1.733   8.971  18.534  0.00  0.00    +0.000 A 
ATOM      5  C   UNL     1       1.362   8.639  19.832  0.00  0.00    +0.000 A 
ATOM      6  C   UNL     1       1.844   7.440  20.383  0.00  0.00    +0.000 A 
ENDROOT
BRANCH   5   7
ATOM      7  N   UNL     1       0.416   9.420  20.530  0.00  0.00    +0.000 N 
ATOM      8  C   UNL     1       0.691   9.923  21.809  0.00  0.00    +0.000 C 
ATOM      9  O   UNL     1       1.607   9.584  22.568  0.00  0.00    +0.000 OA
ATOM     10  H   UNL     1      -0.284   9.911  19.985  0.00  0.00    +0.000 HD
BRANCH   8  11
ATOM     11  C   UNL     1      -0.106  11.087  22.254  0.00  0.00    +0.000 C 
ATOM     12  C   UNL     1      -1.101  10.783  23.099  0.00  0.00    +0.000 C 
ATOM     13  O   UNL     1      -2.239  11.520  23.207  0.00  0.00    +0.000 OA
ATOM     14  C   UNL     1      -2.515  12.282  22.020  0.00  0.00    +0.000 C 
ATOM     15  C   UNL     1      -1.350  12.868  21.269  0.00  0.00    +0.000 A 
ATOM     16  C   UNL     1      -1.627  13.880  20.325  0.00  0.00    +0.000 A 
ATOM     17  C   UNL     1      -0.583  14.549  19.714  0.00  0.00    +0.000 A 
ATOM     18  C   UNL     1       0.717  14.190  20.059  0.00  0.00    +0.000 A 
ATOM     19  C   UNL     1       0.972  13.096  20.927  0.00  0.00    +0.000 A 
ATOM     20  C   UNL     1      -0.092  12.374  21.497  0.00  0.00    +0.000 A 
ENDBRANCH   8  11
ENDBRANCH   5   7
BRANCH   1  22
ATOM     21  C   UNL     1       1.727   4.361  20.659  0.00  0.00    +0.000 C 
ATOM     22  C   UNL     1       2.922   5.092  20.051  0.00  0.00    +0.000 C 
BRANCH  22  23
ATOM     23  S   UNL     1       3.686   4.191  18.632  0.00  0.00    +0.000 S 
BRANCH  23  24
ATOM     24  C   UNL     1       5.349   4.660  18.667  0.00  0.00    +0.000 A 
ATOM     25  N   UNL     1       6.032   5.122  19.689  0.00  0.00    +0.000 NA
ATOM     26  N   UNL     1       7.353   5.216  19.309  0.00  0.00    +0.000 NA
ATOM     27  C   UNL     1       7.431   4.840  18.054  0.00  0.00    +0.000 A 
ATOM     28  N   UNL     1       6.184   4.534  17.592  0.00  0.00    +0.000 N 
ATOM     29  C   UNL     1       5.874   4.156  16.239  0.00  0.00    +0.000 C 
ENDBRANCH  23  24
ENDBRANCH  22  23
ENDBRANCH   1  22
TORSDOF 5
ENDMDL
MODEL 5
REMARK VINA RESULT:      -8.2      3.559      9.214
REMARK  Name = 
REMARK  7 active torsions:
REMARK  status: ('A' for Active; 'I' for Inactive)
REMARK    1  A    between atoms: C_1  and  C_2
REMARK    2  A    between atoms: C_2  and  S_3
REMARK    3  A    between atoms: C_2  and  C_10
REMARK    4  A    between atoms: S_3  and  C_4
REMARK    5  A    between atoms: N_8  and  C_9
REMARK    6  A    between atoms: C_14  and  N_15
REMARK    7  A    between atoms: C_16  and  C_18
REMARK                            x       y       z     vdW  Elec       q    Type
REMARK                         _______ _______ _______ _____ _____    ______ ____
ROOT
ATOM      1  C   UNL     1       0.738   9.258  20.086  0.00  0.00    +0.000 A 
ATOM      2  C   UNL     1       0.722   9.989  18.886  0.00  0.00    +0.000 A 
ATOM      3  C   UNL     1       1.409   9.533  17.772  0.00  0.00    +0.000 A 
ATOM      4  C   UNL     1       2.188   8.384  17.859  0.00  0.00    +0.000 A 
ATOM      5  C   UNL     1       2.329   7.698  19.060  0.00  0.00    +0.000 A 
ATOM      6  C   UNL     1       1.534   8.086  20.152  0.00  0.00    +0.000 A 
ENDROOT
BRANCH   5   7
ATOM      7  N   UNL     1       3.340   6.727  19.219  0.00  0.00    +0.000 N 
ATOM      8  C   UNL     1       3.350   5.556  18.449  0.00  0.00    +0.000 C 
ATOM      9  O   UNL     1       2.428   5.102  17.760  0.00  0.00    +0.000 OA
ATOM     10  H   UNL     1       4.228   7.030  19.604  0.00  0.00    +0.000 HD
BRANCH   8  11
ATOM     11  C   UNL     1       4.645   4.852  18.322  0.00  0.00    +0.000 C 
ATOM     12  C   UNL     1       5.363   4.810  19.453  0.00  0.00    +0.000 C 
ATOM     13  O   UNL     1       6.721   4.728  19.473  0.00  0.00    +0.000 OA
ATOM     14  C   UNL     1       7.318   5.223  18.262  0.00  0.00    +0.000 C 
ATOM     15  C   UNL     1       6.603   4.966  16.964  0.00  0.00    +0.000 A 
ATOM     16  C   UNL     1       7.337   5.141  15.771  0.00  0.00    +0.000 A 
ATOM     17  C   UNL     1       6.771   4.780  14.562  0.00  0.00    +0.000 A 
ATOM     18  C   UNL     1       5.482   4.256  14.571  0.00  0.00    +0.000 A 
ATOM     19  C   UNL     1       4.723   4.192  15.769  0.00  0.00    +0.000 A 
ATOM     20  C   UNL     1       5.277   4.619  16.989  0.00  0.00    +0.000 A 
ENDBRANCH   8  11
ENDBRANCH   5   7
BRANCH   1  22
ATOM     21  C   UNL     1       0.538   9.295  22.614  0.00  0.00    +0.000 C 
ATOM     22  C   UNL     1       0.005   9.857  21.298  0.00  0.00    +0.000 C 
BRANCH  22  23
ATOM     23  S   UNL     1       0.116  11.696  21.191  0.00  0.00    +0.000 S 
BRANCH  23  24
ATOM     24  C   UNL     1      -1.509  12.211  20.906  0.00  0.00    +0.000 A 
ATOM     25  N   UNL     1      -2.073  12.488  19.754  0.00  0.00    +0.000 NA
ATOM     26  N   UNL     1      -3.416  12.705  19.980  0.00  0.00    +0.000 NA
ATOM     27  C   UNL     1      -3.623  12.587  21.271  0.00  0.00    +0.000 A 
ATOM     28  N   UNL     1      -2.440  12.331  21.900  0.00  0.00    +0.000 N 
ATOM     29  C   UNL     1      -2.270  12.215  23.324  0.00  0.00    +0.000 C 
ENDBRANCH  23  24
ENDBRANCH  22  23
ENDBRANCH   1  22
TORSDOF 5
ENDMDL
MODEL 6
REMARK VINA RESULT:      -8.1      3.907      8.723
REMARK  Name = 
REMARK  7 active torsions:
REMARK  status: ('A' for Active; 'I' for Inactive)
REMARK    1  A    between atoms: C_1  and  C_2
REMARK    2  A    between atoms: C_2  and  S_3
REMARK    3  A    between atoms: C_2  and  C_10
REMARK    4  A    between atoms: S_3  and  C_4
REMARK    5  A    between atoms: N_8  and  C_9
REMARK    6  A    between atoms: C_14  and  N_15
REMARK    7  A    between atoms: C_16  and  C_18
REMARK                            x       y       z     vdW  Elec       q    Type
REMARK                         _______ _______ _______ _____ _____    ______ ____
ROOT
ATOM      1  C   UNL     1       0.194  10.342  20.021  0.00  0.00    +0.000 A 
ATOM      2  C   UNL     1       0.072  10.346  21.421  0.00  0.00    +0.000 A 
ATOM      3  C   UNL     1       0.754   9.419  22.192  0.00  0.00    +0.000 A 
ATOM      4  C   UNL     1       1.505   8.421  21.577  0.00  0.00    +0.000 A 
ATOM      5  C   UNL     1       1.553   8.308  20.192  0.00  0.00    +0.000 A 
ATOM      6  C   UNL     1       0.969   9.320  19.414  0.00  0.00    +0.000 A 
ENDROOT
BRANCH   5   7
ATOM      7  N   UNL     1       2.057   7.137  19.585  0.00  0.00    +0.000 N 
ATOM      8  C   UNL     1       2.724   7.187  18.353  0.00  0.00    +0.000 C 
ATOM      9  O   UNL     1       2.748   8.129  17.550  0.00  0.00    +0.000 OA
ATOM     10  H   UNL     1       2.261   6.346  20.185  0.00  0.00    +0.000 HD
BRANCH   8  11
ATOM     11  C   UNL     1       3.616   6.052  18.031  0.00  0.00    +0.000 C 
ATOM     12  C   UNL     1       3.070   4.846  18.237  0.00  0.00    +0.000 C 
ATOM     13  O   UNL     1       3.800   3.738  18.535  0.00  0.00    +0.000 OA
ATOM     14  C   UNL     1       5.071   4.059  19.125  0.00  0.00    +0.000 C 
ATOM     15  C   UNL     1       5.794   5.281  18.626  0.00  0.00    +0.000 A 
ATOM     16  C   UNL     1       7.162   5.404  18.947  0.00  0.00    +0.000 A 
ATOM     17  C   UNL     1       7.904   6.431  18.394  0.00  0.00    +0.000 A 
ATOM     18  C   UNL     1       7.261   7.316  17.534  0.00  0.00    +0.000 A 
ATOM     19  C   UNL     1       5.861   7.238  17.313  0.00  0.00    +0.000 A 
ATOM     20  C   UNL     1       5.095   6.231  17.927  0.00  0.00    +0.000 A 
ENDBRANCH   8  11
ENDBRANCH   5   7
BRANCH   1  22
ATOM     21  C   UNL     1       0.169  12.610  18.887  0.00  0.00    +0.000 C 
ATOM     22  C   UNL     1      -0.640  11.361  19.227  0.00  0.00    +0.000 C 
BRANCH  22  23
ATOM     23  S   UNL     1      -1.331  10.510  17.741  0.00  0.00    +0.000 S 
BRANCH  23  24
ATOM     24  C   UNL     1      -2.968  11.057  17.653  0.00  0.00    +0.000 A 
ATOM     25  N   UNL     1      -3.698  11.565  18.618  0.00  0.00    +0.000 NA
ATOM     26  N   UNL     1      -4.883  12.005  18.067  0.00  0.00    +0.000 NA
ATOM     27  C   UNL     1      -4.853  11.720  16.787  0.00  0.00    +0.000 A 
ATOM     28  N   UNL     1      -3.689  11.073  16.491  0.00  0.00    +0.000 N 
ATOM     29  C   UNL     1      -3.344  10.542  15.200  0.00  0.00    +0.000 C 
ENDBRANCH  23  24
ENDBRANCH  22  23
ENDBRANCH   1  22
TORSDOF 5
ENDMDL
MODEL 7
REMARK VINA RESULT:      -8.1      5.880      7.778
REMARK  Name = 
REMARK  7 active torsions:
REMARK  status: ('A' for Active; 'I' for Inactive)
REMARK    1  A    between atoms: C_1  and  C_2
REMARK    2  A    between atoms: C_2  and  S_3
REMARK    3  A    between atoms: C_2  and  C_10
REMARK    4  A    between atoms: S_3  and  C_4
REMARK    5  A    between atoms: N_8  and  C_9
REMARK    6  A    between atoms: C_14  and  N_15
REMARK    7  A    between atoms: C_16  and  C_18
REMARK                            x       y       z     vdW  Elec       q    Type
REMARK                         _______ _______ _______ _____ _____    ______ ____
ROOT
ATOM      1  C   UNL     1       6.372   6.174  17.386  0.00  0.00    +0.000 A 
ATOM      2  C   UNL     1       7.275   5.423  18.156  0.00  0.00    +0.000 A 
ATOM      3  C   UNL     1       8.275   6.049  18.883  0.00  0.00    +0.000 A 
ATOM      4  C   UNL     1       8.442   7.428  18.791  0.00  0.00    +0.000 A 
ATOM      5  C   UNL     1       7.647   8.193  17.946  0.00  0.00    +0.000 A 
ATOM      6  C   UNL     1       6.555   7.579  17.310  0.00  0.00    +0.000 A 
ENDROOT
BRANCH   5   7
ATOM      7  N   UNL     1       8.007   9.521  17.628  0.00  0.00    +0.000 N 
ATOM      8  C   UNL     1       8.828  10.274  18.478  0.00  0.00    +0.000 C 
ATOM      9  O   UNL     1       9.128  10.020  19.652  0.00  0.00    +0.000 OA
ATOM     10  H   UNL     1       7.984   9.794  16.652  0.00  0.00    +0.000 HD
BRANCH   8  11
ATOM     11  C   UNL     1       9.536  11.424  17.875  0.00  0.00    +0.000 C 
ATOM     12  C   UNL     1      10.868  11.287  17.823  0.00  0.00    +0.000 C 
ATOM     13  O   UNL     1      11.728  12.340  17.837  0.00  0.00    +0.000 OA
ATOM     14  C   UNL     1      11.151  13.512  18.436  0.00  0.00    +0.000 C 
ATOM     15  C   UNL     1       9.690  13.783  18.199  0.00  0.00    +0.000 A 
ATOM     16  C   UNL     1       9.213  15.079  18.489  0.00  0.00    +0.000 A 
ATOM     17  C   UNL     1       7.915  15.419  18.155  0.00  0.00    +0.000 A 
ATOM     18  C   UNL     1       7.121  14.455  17.541  0.00  0.00    +0.000 A 
ATOM     19  C   UNL     1       7.587  13.126  17.360  0.00  0.00    +0.000 A 
ATOM     20  C   UNL     1       8.886  12.764  17.759  0.00  0.00    +0.000 A 
ENDBRANCH   8  11
ENDBRANCH   5   7
BRANCH   1  22
ATOM     21  C   UNL     1       5.890   4.095  16.016  0.00  0.00    +0.000 C 
ATOM     22  C   UNL     1       5.328   5.408  16.558  0.00  0.00    +0.000 C 
BRANCH  22  23
ATOM     23  S   UNL     1       3.817   5.184  17.595  0.00  0.00    +0.000 S 
BRANCH  23  24
ATOM     24  C   UNL     1       4.144   3.770  18.535  0.00  0.00    +0.000 A 
ATOM     25  N   UNL     1       5.060   3.617  19.463  0.00  0.00    +0.000 NA
ATOM     26  N   UNL     1       4.861   2.389  20.055  0.00  0.00    +0.000 NA
ATOM     27  C   UNL     1       3.850   1.815  19.446  0.00  0.00    +0.000 A 
ATOM     28  N   UNL     1       3.402   2.626  18.445  0.00  0.00    +0.000 N 
ATOM     29  C   UNL     1       2.354   2.291  17.518  0.00  0.00    +0.000 C 
ENDBRANCH  23  24
ENDBRANCH  22  23
ENDBRANCH   1  22
TORSDOF 5
ENDMDL
MODEL 8
REMARK VINA RESULT:      -8.0      3.759      8.733
REMARK  Name = 
REMARK  7 active torsions:
REMARK  status: ('A' for Active; 'I' for Inactive)
REMARK    1  A    between atoms: C_1  and  C_2
REMARK    2  A    between atoms: C_2  and  S_3
REMARK    3  A    between atoms: C_2  and  C_10
REMARK    4  A    between atoms: S_3  and  C_4
REMARK    5  A    between atoms: N_8  and  C_9
REMARK    6  A    between atoms: C_14  and  N_15
REMARK    7  A    between atoms: C_16  and  C_18
REMARK                            x       y       z     vdW  Elec       q    Type
REMARK                         _______ _______ _______ _____ _____    ______ ____
ROOT
ATOM      1  C   UNL     1      -0.415  11.139  20.865  0.00  0.00    +0.000 A 
ATOM      2  C   UNL     1      -0.781  11.146  22.222  0.00  0.00    +0.000 A 
ATOM      3  C   UNL     1      -0.348  10.144  23.075  0.00  0.00    +0.000 A 
ATOM      4  C   UNL     1       0.391   9.076  22.574  0.00  0.00    +0.000 A 
ATOM      5  C   UNL     1       0.671   8.969  21.217  0.00  0.00    +0.000 A 
ATOM      6  C   UNL     1       0.343  10.044  20.376  0.00  0.00    +0.000 A 
ENDROOT
BRANCH   5   7
ATOM      7  N   UNL     1       1.148   7.755  20.676  0.00  0.00    +0.000 N 
ATOM      8  C   UNL     1       1.894   7.733  19.490  0.00  0.00    +0.000 C 
ATOM      9  O   UNL     1       2.021   8.647  18.665  0.00  0.00    +0.000 OA
ATOM     10  H   UNL     1       1.270   6.973  21.309  0.00  0.00    +0.000 HD
BRANCH   8  11
ATOM     11  C   UNL     1       2.742   6.543  19.257  0.00  0.00    +0.000 C 
ATOM     12  C   UNL     1       3.837   6.782  18.521  0.00  0.00    +0.000 C 
ATOM     13  O   UNL     1       4.437   5.837  17.749  0.00  0.00    +0.000 OA
ATOM     14  C   UNL     1       3.537   4.782  17.373  0.00  0.00    +0.000 C 
ATOM     15  C   UNL     1       2.507   4.339  18.377  0.00  0.00    +0.000 A 
ATOM     16  C   UNL     1       1.865   3.103  18.149  0.00  0.00    +0.000 A 
ATOM     17  C   UNL     1       1.019   2.585  19.112  0.00  0.00    +0.000 A 
ATOM     18  C   UNL     1       0.830   3.315  20.281  0.00  0.00    +0.000 A 
ATOM     19  C   UNL     1       1.399   4.606  20.441  0.00  0.00    +0.000 A 
ATOM     20  C   UNL     1       2.208   5.160  19.433  0.00  0.00    +0.000 A 
ENDBRANCH   8  11
ENDBRANCH   5   7
BRANCH   1  22
ATOM     21  C   UNL     1      -0.118  13.506  20.003  0.00  0.00    +0.000 C 
ATOM     22  C   UNL     1      -0.984  12.249  19.965  0.00  0.00    +0.000 C 
BRANCH  22  23
ATOM     23  S   UNL     1      -1.202  11.561  18.266  0.00  0.00    +0.000 S 
BRANCH  23  24
ATOM     24  C   UNL     1      -2.912  11.563  18.015  0.00  0.00    +0.000 A 
ATOM     25  N   UNL     1      -3.850  11.878  18.877  0.00  0.00    +0.000 NA
ATOM     26  N   UNL     1      -5.054  11.891  18.208  0.00  0.00    +0.000 NA
ATOM     27  C   UNL     1      -4.818  11.548  16.963  0.00  0.00    +0.000 A 
ATOM     28  N   UNL     1      -3.490  11.279  16.809  0.00  0.00    +0.000 N 
ATOM     29  C   UNL     1      -2.879  10.801  15.597  0.00  0.00    +0.000 C 
ENDBRANCH  23  24
ENDBRANCH  22  23
ENDBRANCH   1  22
TORSDOF 5
ENDMDL
MODEL 9
REMARK VINA RESULT:      -8.0      5.902      7.868
REMARK  Name = 
REMARK  7 active torsions:
REMARK  status: ('A' for Active; 'I' for Inactive)
REMARK    1  A    between atoms: C_1  and  C_2
REMARK    2  A    between atoms: C_2  and  S_3
REMARK    3  A    between atoms: C_2  and  C_10
REMARK    4  A    between atoms: S_3  and  C_4
REMARK    5  A    between atoms: N_8  and  C_9
REMARK    6  A    between atoms: C_14  and  N_15
REMARK    7  A    between atoms: C_16  and  C_18
REMARK                            x       y       z     vdW  Elec       q    Type
REMARK                         _______ _______ _______ _____ _____    ______ ____
ROOT
ATOM      1  C   UNL     1       6.073   6.421  17.391  0.00  0.00    +0.000 A 
ATOM      2  C   UNL     1       6.984   5.556  18.020  0.00  0.00    +0.000 A 
ATOM      3  C   UNL     1       8.108   6.056  18.658  0.00  0.00    +0.000 A 
ATOM      4  C   UNL     1       8.385   7.420  18.611  0.00  0.00    +0.000 A 
ATOM      5  C   UNL     1       7.574   8.294  17.897  0.00  0.00    +0.000 A 
ATOM      6  C   UNL     1       6.371   7.808  17.360  0.00  0.00    +0.000 A 
ENDROOT
BRANCH   5   7
ATOM      7  N   UNL     1       8.013   9.603  17.602  0.00  0.00    +0.000 N 
ATOM      8  C   UNL     1       8.816  10.318  18.500  0.00  0.00    +0.000 C 
ATOM      9  O   UNL     1       9.034  10.054  19.689  0.00  0.00    +0.000 OA
ATOM     10  H   UNL     1       8.061   9.875  16.626  0.00  0.00    +0.000 HD
BRANCH   8  11
ATOM     11  C   UNL     1       9.611  11.434  17.941  0.00  0.00    +0.000 C 
ATOM     12  C   UNL     1      10.934  11.217  17.930  0.00  0.00    +0.000 C 
ATOM     13  O   UNL     1      11.854  12.217  17.990  0.00  0.00    +0.000 OA
ATOM     14  C   UNL     1      11.329  13.411  18.592  0.00  0.00    +0.000 C 
ATOM     15  C   UNL     1       9.895  13.773  18.313  0.00  0.00    +0.000 A 
ATOM     16  C   UNL     1       9.487  15.091  18.611  0.00  0.00    +0.000 A 
ATOM     17  C   UNL     1       8.224  15.514  18.241  0.00  0.00    +0.000 A 
ATOM     18  C   UNL     1       7.394  14.610  17.585  0.00  0.00    +0.000 A 
ATOM     19  C   UNL     1       7.786  13.259  17.394  0.00  0.00    +0.000 A 
ATOM     20  C   UNL     1       9.046  12.812  17.829  0.00  0.00    +0.000 A 
ENDBRANCH   8  11
ENDBRANCH   5   7
BRANCH   1  22
ATOM     21  C   UNL     1       5.243   4.430  16.059  0.00  0.00    +0.000 C 
ATOM     22  C   UNL     1       4.882   5.790  16.651  0.00  0.00    +0.000 C 
BRANCH  22  23
ATOM     23  S   UNL     1       3.448   5.727  17.810  0.00  0.00    +0.000 S 
BRANCH  23  24
ATOM     24  C   UNL     1       3.004   4.057  17.857  0.00  0.00    +0.000 A 
ATOM     25  N   UNL     1       2.096   3.447  17.131  0.00  0.00    +0.000 NA
ATOM     26  N   UNL     1       2.186   2.096  17.389  0.00  0.00    +0.000 NA
ATOM     27  C   UNL     1       3.123   1.926  18.291  0.00  0.00    +0.000 A 
ATOM     28  N   UNL     1       3.629   3.140  18.656  0.00  0.00    +0.000 N 
ATOM     29  C   UNL     1       4.620   3.349  19.677  0.00  0.00    +0.000 C 
ENDBRANCH  23  24
ENDBRANCH  22  23
ENDBRANCH   1  22
TORSDOF 5
ENDMDL
