MODEL 1
REMARK VINA RESULT:      -7.9      0.000      0.000
REMARK  Name = 
REMARK  4 active torsions:
REMARK  status: ('A' for Active; 'I' for Inactive)
REMARK    1  A    between atoms: C_1  and  C_2
REMARK    2  A    between atoms: C_4  and  C_5
REMARK    3  A    between atoms: C_10  and  N_11
REMARK    4  A    between atoms: C_12  and  C_14
REMARK                            x       y       z     vdW  Elec       q    Type
REMARK                         _______ _______ _______ _____ _____    ______ ____
ROOT
ATOM      1  N   UNL     1       0.797   9.520  20.337  0.00  0.00    +0.000 N 
ATOM      2  C   UNL     1       0.936   9.889  21.666  0.00  0.00    +0.000 C 
ATOM      3  O   UNL     1       1.751   9.445  22.468  0.00  0.00    +0.000 OA
ATOM      4  H   UNL     1       0.043   9.982  19.836  0.00  0.00    +0.000 HD
ENDROOT
BRANCH   1  14
ATOM      5  C   UNL     1       5.968   4.813  14.896  0.00  0.00    +0.000 C 
ATOM      6  C   UNL     1       5.187   4.846  16.156  0.00  0.00    +0.000 A 
ATOM      7  C   UNL     1       5.043   3.830  17.117  0.00  0.00    +0.000 A 
ATOM      8  C   UNL     1       4.216   4.354  18.089  0.00  0.00    +0.000 A 
ATOM      9  C   UNL     1       3.697   3.719  19.324  0.00  0.00    +0.000 C 
ATOM     10  N   UNL     1       3.925   5.655  17.696  0.00  0.00    +0.000 N 
ATOM     11  C   UNL     1       3.136   6.643  18.379  0.00  0.00    +0.000 A 
ATOM     12  C   UNL     1       2.944   7.874  17.759  0.00  0.00    +0.000 A 
ATOM     13  C   UNL     1       2.171   8.847  18.394  0.00  0.00    +0.000 A 
ATOM     14  C   UNL     1       1.604   8.594  19.639  0.00  0.00    +0.000 A 
ATOM     15  C   UNL     1       1.857   7.339  20.192  0.00  0.00    +0.000 A 
ATOM     16  N   UNL     1       2.599   6.366  19.599  0.00  0.00    +0.000 NA
ATOM     17  N   UNL     1       4.505   5.942  16.492  0.00  0.00    +0.000 NA
ENDBRANCH   1  14
BRANCH   2  18
ATOM     18  C   UNL     1      -0.013  10.933  22.131  0.00  0.00    +0.000 A 
ATOM     19  C   UNL     1      -1.102  10.561  22.900  0.00  0.00    +0.000 A 
ATOM     20  N   UNL     1      -1.988  11.462  23.382  0.00  0.00    +0.000 NA
ATOM     21  C   UNL     1      -1.750  12.750  23.079  0.00  0.00    +0.000 A 
ATOM     22  C   UNL     1      -2.612  13.725  23.563  0.00  0.00    +0.000 A 
ATOM     23  C   UNL     1      -2.405  15.075  23.290  0.00  0.00    +0.000 A 
ATOM     24  C   UNL     1      -1.317  15.456  22.513  0.00  0.00    +0.000 A 
ATOM     25  C   UNL     1      -0.445  14.486  22.016  0.00  0.00    +0.000 A 
ATOM     26  C   UNL     1      -0.633  13.136  22.283  0.00  0.00    +0.000 A 
ATOM     27  N   UNL     1       0.244  12.228  21.798  0.00  0.00    +0.000 NA
ENDBRANCH   2  18
TORSDOF 2
ENDMDL
MODEL 2
REMARK VINA RESULT:      -7.9      1.494      1.612
REMARK  Name = 
REMARK  4 active torsions:
REMARK  status: ('A' for Active; 'I' for Inactive)
REMARK    1  A    between atoms: C_1  and  C_2
REMARK    2  A    between atoms: C_4  and  C_5
REMARK    3  A    between atoms: C_10  and  N_11
REMARK    4  A    between atoms: C_12  and  C_14
REMARK                            x       y       z     vdW  Elec       q    Type
REMARK                         _______ _______ _______ _____ _____    ______ ____
ROOT
ATOM      1  N   UNL     1       1.179   9.061  20.117  0.00  0.00    +0.000 N 
ATOM      2  C   UNL     1       0.207   9.919  19.626  0.00  0.00    +0.000 C 
ATOM      3  O   UNL     1      -0.081  10.101  18.447  0.00  0.00    +0.000 OA
ATOM      4  H   UNL     1       1.291   9.067  21.127  0.00  0.00    +0.000 HD
ENDROOT
BRANCH   1  14
ATOM      5  C   UNL     1       6.426   4.818  14.376  0.00  0.00    +0.000 C 
ATOM      6  C   UNL     1       5.608   4.740  15.610  0.00  0.00    +0.000 A 
ATOM      7  C   UNL     1       5.417   3.636  16.459  0.00  0.00    +0.000 A 
ATOM      8  C   UNL     1       4.570   4.077  17.456  0.00  0.00    +0.000 A 
ATOM      9  C   UNL     1       4.002   3.331  18.605  0.00  0.00    +0.000 C 
ATOM     10  N   UNL     1       4.314   5.417  17.188  0.00  0.00    +0.000 N 
ATOM     11  C   UNL     1       3.524   6.347  17.945  0.00  0.00    +0.000 A 
ATOM     12  C   UNL     1       3.373   7.638  17.448  0.00  0.00    +0.000 A 
ATOM     13  C   UNL     1       2.599   8.558  18.156  0.00  0.00    +0.000 A 
ATOM     14  C   UNL     1       1.990   8.194  19.353  0.00  0.00    +0.000 A 
ATOM     15  C   UNL     1       2.204   6.884  19.783  0.00  0.00    +0.000 A 
ATOM     16  N   UNL     1       2.945   5.960  19.115  0.00  0.00    +0.000 NA
ATOM     17  N   UNL     1       4.936   5.811  16.036  0.00  0.00    +0.000 NA
ENDBRANCH   1  14
BRANCH   2  18
ATOM     18  C   UNL     1      -0.544  10.676  20.660  0.00  0.00    +0.000 A 
ATOM     19  C   UNL     1      -0.288  10.428  21.998  0.00  0.00    +0.000 A 
ATOM     20  N   UNL     1      -0.913  11.101  22.990  0.00  0.00    +0.000 NA
ATOM     21  C   UNL     1      -1.797  12.039  22.607  0.00  0.00    +0.000 A 
ATOM     22  C   UNL     1      -2.455  12.780  23.580  0.00  0.00    +0.000 A 
ATOM     23  C   UNL     1      -3.372  13.771  23.237  0.00  0.00    +0.000 A 
ATOM     24  C   UNL     1      -3.639  14.022  21.896  0.00  0.00    +0.000 A 
ATOM     25  C   UNL     1      -2.988  13.281  20.909  0.00  0.00    +0.000 A 
ATOM     26  C   UNL     1      -2.067  12.293  21.231  0.00  0.00    +0.000 A 
ATOM     27  N   UNL     1      -1.444  11.609  20.244  0.00  0.00    +0.000 NA
ENDBRANCH   2  18
TORSDOF 2
ENDMDL
MODEL 3
REMARK VINA RESULT:      -7.8      0.918      1.637
REMARK  Name = 
REMARK  4 active torsions:
REMARK  status: ('A' for Active; 'I' for Inactive)
REMARK    1  A    between atoms: C_1  and  C_2
REMARK    2  A    between atoms: C_4  and  C_5
REMARK    3  A    between atoms: C_10  and  N_11
REMARK    4  A    between atoms: C_12  and  C_14
REMARK                            x       y       z     vdW  Elec       q    Type
REMARK                         _______ _______ _______ _____ _____    ______ ____
ROOT
ATOM      1  N   UNL     1       0.540   9.973  20.329  0.00  0.00    +0.000 N 
ATOM      2  C   UNL     1       0.550  10.335  21.668  0.00  0.00    +0.000 C 
ATOM      3  O   UNL     1       1.205   9.810  22.563  0.00  0.00    +0.000 OA
ATOM      4  H   UNL     1      -0.091  10.511  19.741  0.00  0.00    +0.000 HD
ENDROOT
BRANCH   1  14
ATOM      5  C   UNL     1       5.598   4.606  15.420  0.00  0.00    +0.000 C 
ATOM      6  C   UNL     1       4.810   4.785  16.663  0.00  0.00    +0.000 A 
ATOM      7  C   UNL     1       4.628   3.871  17.717  0.00  0.00    +0.000 A 
ATOM      8  C   UNL     1       3.811   4.513  18.625  0.00  0.00    +0.000 A 
ATOM      9  C   UNL     1       3.264   4.016  19.911  0.00  0.00    +0.000 C 
ATOM     10  N   UNL     1       3.563   5.777  18.105  0.00  0.00    +0.000 N 
ATOM     11  C   UNL     1       2.801   6.851  18.682  0.00  0.00    +0.000 A 
ATOM     12  C   UNL     1       2.651   8.021  17.944  0.00  0.00    +0.000 A 
ATOM     13  C   UNL     1       1.905   9.073  18.475  0.00  0.00    +0.000 A 
ATOM     14  C   UNL     1       1.322   8.960  19.733  0.00  0.00    +0.000 A 
ATOM     15  C   UNL     1       1.533   7.758  20.407  0.00  0.00    +0.000 A 
ATOM     16  N   UNL     1       2.247   6.709  19.918  0.00  0.00    +0.000 NA
ATOM     17  N   UNL     1       4.160   5.929  16.885  0.00  0.00    +0.000 NA
ENDBRANCH   1  14
BRANCH   2  18
ATOM     18  C   UNL     1      -0.330  11.479  22.017  0.00  0.00    +0.000 A 
ATOM     19  C   UNL     1      -0.027  12.738  21.527  0.00  0.00    +0.000 A 
ATOM     20  N   UNL     1      -0.801  13.818  21.781  0.00  0.00    +0.000 NA
ATOM     21  C   UNL     1      -1.895  13.602  22.533  0.00  0.00    +0.000 A 
ATOM     22  C   UNL     1      -2.741  14.667  22.809  0.00  0.00    +0.000 A 
ATOM     23  C   UNL     1      -3.894  14.496  23.573  0.00  0.00    +0.000 A 
ATOM     24  C   UNL     1      -4.201  13.236  24.074  0.00  0.00    +0.000 A 
ATOM     25  C   UNL     1      -3.356  12.158  23.807  0.00  0.00    +0.000 A 
ATOM     26  C   UNL     1      -2.206  12.309  23.043  0.00  0.00    +0.000 A 
ATOM     27  N   UNL     1      -1.422  11.235  22.792  0.00  0.00    +0.000 NA
ENDBRANCH   2  18
TORSDOF 2
ENDMDL
MODEL 4
REMARK VINA RESULT:      -7.8      1.253      1.325
REMARK  Name = 
REMARK  4 active torsions:
REMARK  status: ('A' for Active; 'I' for Inactive)
REMARK    1  A    between atoms: C_1  and  C_2
REMARK    2  A    between atoms: C_4  and  C_5
REMARK    3  A    between atoms: C_10  and  N_11
REMARK    4  A    between atoms: C_12  and  C_14
REMARK                            x       y       z     vdW  Elec       q    Type
REMARK                         _______ _______ _______ _____ _____    ______ ____
ROOT
ATOM      1  N   UNL     1       1.084   8.881  19.741  0.00  0.00    +0.000 N 
ATOM      2  C   UNL     1       1.062   9.067  21.115  0.00  0.00    +0.000 C 
ATOM      3  O   UNL     1       1.776   8.508  21.941  0.00  0.00    +0.000 OA
ATOM      4  H   UNL     1       0.394   9.416  19.221  0.00  0.00    +0.000 HD
ENDROOT
BRANCH   1  14
ATOM      5  C   UNL     1       6.838   4.864  14.333  0.00  0.00    +0.000 C 
ATOM      6  C   UNL     1       5.942   4.749  15.509  0.00  0.00    +0.000 A 
ATOM      7  C   UNL     1       5.732   3.630  16.336  0.00  0.00    +0.000 A 
ATOM      8  C   UNL     1       4.806   4.035  17.276  0.00  0.00    +0.000 A 
ATOM      9  C   UNL     1       4.188   3.260  18.380  0.00  0.00    +0.000 C 
ATOM     10  N   UNL     1       4.525   5.368  17.002  0.00  0.00    +0.000 N 
ATOM     11  C   UNL     1       3.656   6.266  17.711  0.00  0.00    +0.000 A 
ATOM     12  C   UNL     1       3.496   7.555  17.214  0.00  0.00    +0.000 A 
ATOM     13  C   UNL     1       2.647   8.443  17.876  0.00  0.00    +0.000 A 
ATOM     14  C   UNL     1       1.972   8.048  19.026  0.00  0.00    +0.000 A 
ATOM     15  C   UNL     1       2.200   6.742  19.460  0.00  0.00    +0.000 A 
ATOM     16  N   UNL     1       3.013   5.848  18.837  0.00  0.00    +0.000 NA
ATOM     17  N   UNL     1       5.209   5.793  15.897  0.00  0.00    +0.000 NA
ENDBRANCH   1  14
BRANCH   2  18
ATOM     18  C   UNL     1       0.060  10.051  21.600  0.00  0.00    +0.000 A 
ATOM     19  C   UNL     1      -0.307  10.038  22.935  0.00  0.00    +0.000 A 
ATOM     20  N   UNL     1      -1.190  10.924  23.450  0.00  0.00    +0.000 NA
ATOM     21  C   UNL     1      -1.690  11.831  22.593  0.00  0.00    +0.000 A 
ATOM     22  C   UNL     1      -2.585  12.782  23.067  0.00  0.00    +0.000 A 
ATOM     23  C   UNL     1      -3.123  13.752  22.224  0.00  0.00    +0.000 A 
ATOM     24  C   UNL     1      -2.765  13.768  20.882  0.00  0.00    +0.000 A 
ATOM     25  C   UNL     1      -1.870  12.815  20.392  0.00  0.00    +0.000 A 
ATOM     26  C   UNL     1      -1.318  11.844  21.218  0.00  0.00    +0.000 A 
ATOM     27  N   UNL     1      -0.441  10.949  20.708  0.00  0.00    +0.000 NA
ENDBRANCH   2  18
TORSDOF 2
ENDMDL
MODEL 5
REMARK VINA RESULT:      -7.8      1.513      2.110
REMARK  Name = 
REMARK  4 active torsions:
REMARK  status: ('A' for Active; 'I' for Inactive)
REMARK    1  A    between atoms: C_1  and  C_2
REMARK    2  A    between atoms: C_4  and  C_5
REMARK    3  A    between atoms: C_10  and  N_11
REMARK    4  A    between atoms: C_12  and  C_14
REMARK                            x       y       z     vdW  Elec       q    Type
REMARK                         _______ _______ _______ _____ _____    ______ ____
ROOT
ATOM      1  N   UNL     1       0.020  10.339  20.241  0.00  0.00    +0.000 N 
ATOM      2  C   UNL     1       0.349  11.497  20.929  0.00  0.00    +0.000 C 
ATOM      3  O   UNL     1       1.480  11.902  21.183  0.00  0.00    +0.000 OA
ATOM      4  H   UNL     1      -0.976  10.157  20.153  0.00  0.00    +0.000 HD
ENDROOT
BRANCH   1  14
ATOM      5  C   UNL     1       5.701   5.593  15.374  0.00  0.00    +0.000 C 
ATOM      6  C   UNL     1       4.919   5.697  16.629  0.00  0.00    +0.000 A 
ATOM      7  C   UNL     1       4.889   4.801  17.713  0.00  0.00    +0.000 A 
ATOM      8  C   UNL     1       4.005   5.348  18.621  0.00  0.00    +0.000 A 
ATOM      9  C   UNL     1       3.559   4.819  19.933  0.00  0.00    +0.000 C 
ATOM     10  N   UNL     1       3.570   6.547  18.070  0.00  0.00    +0.000 N 
ATOM     11  C   UNL     1       2.673   7.519  18.633  0.00  0.00    +0.000 A 
ATOM     12  C   UNL     1       2.345   8.632  17.865  0.00  0.00    +0.000 A 
ATOM     13  C   UNL     1       1.466   9.584  18.382  0.00  0.00    +0.000 A 
ATOM     14  C   UNL     1       0.928   9.429  19.656  0.00  0.00    +0.000 A 
ATOM     15  C   UNL     1       1.321   8.291  20.359  0.00  0.00    +0.000 A 
ATOM     16  N   UNL     1       2.168   7.340  19.884  0.00  0.00    +0.000 NA
ATOM     17  N   UNL     1       4.116   6.743  16.833  0.00  0.00    +0.000 NA
ENDBRANCH   1  14
BRANCH   2  18
ATOM     18  C   UNL     1      -0.809  12.306  21.389  0.00  0.00    +0.000 A 
ATOM     19  C   UNL     1      -1.129  13.471  20.712  0.00  0.00    +0.000 A 
ATOM     20  N   UNL     1      -2.187  14.239  21.058  0.00  0.00    +0.000 NA
ATOM     21  C   UNL     1      -2.923  13.805  22.096  0.00  0.00    +0.000 A 
ATOM     22  C   UNL     1      -4.036  14.540  22.485  0.00  0.00    +0.000 A 
ATOM     23  C   UNL     1      -4.839  14.128  23.546  0.00  0.00    +0.000 A 
ATOM     24  C   UNL     1      -4.521  12.963  24.234  0.00  0.00    +0.000 A 
ATOM     25  C   UNL     1      -3.402  12.218  23.856  0.00  0.00    +0.000 A 
ATOM     26  C   UNL     1      -2.593  12.610  22.797  0.00  0.00    +0.000 A 
ATOM     27  N   UNL     1      -1.528  11.851  22.451  0.00  0.00    +0.000 NA
ENDBRANCH   2  18
TORSDOF 2
ENDMDL
MODEL 6
REMARK VINA RESULT:      -7.8      1.695      9.886
REMARK  Name = 
REMARK  4 active torsions:
REMARK  status: ('A' for Active; 'I' for Inactive)
REMARK    1  A    between atoms: C_1  and  C_2
REMARK    2  A    between atoms: C_4  and  C_5
REMARK    3  A    between atoms: C_10  and  N_11
REMARK    4  A    between atoms: C_12  and  C_14
REMARK                            x       y       z     vdW  Elec       q    Type
REMARK                         _______ _______ _______ _____ _____    ______ ____
ROOT
ATOM      1  N   UNL     1       2.027   8.136  19.814  0.00  0.00    +0.000 N 
ATOM      2  C   UNL     1       2.113   6.770  20.036  0.00  0.00    +0.000 C 
ATOM      3  O   UNL     1       1.434   6.112  20.818  0.00  0.00    +0.000 OA
ATOM      4  H   UNL     1       2.696   8.508  19.144  0.00  0.00    +0.000 HD
ENDROOT
BRANCH   1  14
ATOM      5  C   UNL     1      -3.835  12.655  24.683  0.00  0.00    +0.000 C 
ATOM      6  C   UNL     1      -3.052  12.580  23.426  0.00  0.00    +0.000 A 
ATOM      7  C   UNL     1      -3.012  13.507  22.369  0.00  0.00    +0.000 A 
ATOM      8  C   UNL     1      -2.143  12.972  21.440  0.00  0.00    +0.000 A 
ATOM      9  C   UNL     1      -1.742  13.501  20.114  0.00  0.00    +0.000 C 
ATOM     10  N   UNL     1      -1.678  11.778  21.980  0.00  0.00    +0.000 N 
ATOM     11  C   UNL     1      -0.722  10.857  21.430  0.00  0.00    +0.000 A 
ATOM     12  C   UNL     1      -0.449   9.692  22.139  0.00  0.00    +0.000 A 
ATOM     13  C   UNL     1       0.466   8.775  21.621  0.00  0.00    +0.000 A 
ATOM     14  C   UNL     1       1.105   9.023  20.411  0.00  0.00    +0.000 A 
ATOM     15  C   UNL     1       0.779  10.219  19.773  0.00  0.00    +0.000 A 
ATOM     16  N   UNL     1      -0.111  11.133  20.245  0.00  0.00    +0.000 NA
ATOM     17  N   UNL     1      -2.262  11.531  23.191  0.00  0.00    +0.000 NA
ENDBRANCH   1  14
BRANCH   2  18
ATOM     18  C   UNL     1       3.139   6.064  19.226  0.00  0.00    +0.000 A 
ATOM     19  C   UNL     1       3.622   4.843  19.666  0.00  0.00    +0.000 A 
ATOM     20  N   UNL     1       4.534   4.133  18.963  0.00  0.00    +0.000 NA
ATOM     21  C   UNL     1       4.944   4.673  17.803  0.00  0.00    +0.000 A 
ATOM     22  C   UNL     1       5.863   3.981  17.026  0.00  0.00    +0.000 A 
ATOM     23  C   UNL     1       6.312   4.491  15.809  0.00  0.00    +0.000 A 
ATOM     24  C   UNL     1       5.835   5.718  15.365  0.00  0.00    +0.000 A 
ATOM     25  C   UNL     1       4.915   6.427  16.138  0.00  0.00    +0.000 A 
ATOM     26  C   UNL     1       4.452   5.932  17.351  0.00  0.00    +0.000 A 
ATOM     27  N   UNL     1       3.546   6.641  18.063  0.00  0.00    +0.000 NA
ENDBRANCH   2  18
TORSDOF 2
ENDMDL
MODEL 7
REMARK VINA RESULT:      -7.7      1.504      2.702
REMARK  Name = 
REMARK  4 active torsions:
REMARK  status: ('A' for Active; 'I' for Inactive)
REMARK    1  A    between atoms: C_1  and  C_2
REMARK    2  A    between atoms: C_4  and  C_5
REMARK    3  A    between atoms: C_10  and  N_11
REMARK    4  A    between atoms: C_12  and  C_14
REMARK                            x       y       z     vdW  Elec       q    Type
REMARK                         _______ _______ _______ _____ _____    ______ ____
ROOT
ATOM      1  N   UNL     1       0.068   9.876  21.059  0.00  0.00    +0.000 N 
ATOM      2  C   UNL     1      -0.022  10.338  22.364  0.00  0.00    +0.000 C 
ATOM      3  O   UNL     1       0.512   9.846  23.353  0.00  0.00    +0.000 OA
ATOM      4  H   UNL     1      -0.469  10.403  20.376  0.00  0.00    +0.000 HD
ENDROOT
BRANCH   1  14
ATOM      5  C   UNL     1       4.322   2.259  19.513  0.00  0.00    +0.000 C 
ATOM      6  C   UNL     1       4.081   3.661  19.093  0.00  0.00    +0.000 A 
ATOM      7  C   UNL     1       4.616   4.341  17.984  0.00  0.00    +0.000 A 
ATOM      8  C   UNL     1       4.089   5.616  18.043  0.00  0.00    +0.000 A 
ATOM      9  C   UNL     1       4.330   6.774  17.148  0.00  0.00    +0.000 C 
ATOM     10  N   UNL     1       3.247   5.642  19.148  0.00  0.00    +0.000 N 
ATOM     11  C   UNL     1       2.427   6.721  19.626  0.00  0.00    +0.000 A 
ATOM     12  C   UNL     1       1.698   6.524  20.794  0.00  0.00    +0.000 A 
ATOM     13  C   UNL     1       0.904   7.560  21.288  0.00  0.00    +0.000 A 
ATOM     14  C   UNL     1       0.834   8.776  20.615  0.00  0.00    +0.000 A 
ATOM     15  C   UNL     1       1.588   8.881  19.447  0.00  0.00    +0.000 A 
ATOM     16  N   UNL     1       2.378   7.896  18.941  0.00  0.00    +0.000 NA
ATOM     17  N   UNL     1       3.267   4.443  19.805  0.00  0.00    +0.000 NA
ENDBRANCH   1  14
BRANCH   2  18
ATOM     18  C   UNL     1      -0.853  11.556  22.543  0.00  0.00    +0.000 A 
ATOM     19  C   UNL     1      -0.430  12.750  21.985  0.00  0.00    +0.000 A 
ATOM     20  N   UNL     1      -1.152  13.890  22.084  0.00  0.00    +0.000 NA
ATOM     21  C   UNL     1      -2.315  13.800  22.751  0.00  0.00    +0.000 A 
ATOM     22  C   UNL     1      -3.112  14.932  22.868  0.00  0.00    +0.000 A 
ATOM     23  C   UNL     1      -4.333  14.890  23.539  0.00  0.00    +0.000 A 
ATOM     24  C   UNL     1      -4.761  13.697  24.107  0.00  0.00    +0.000 A 
ATOM     25  C   UNL     1      -3.968  12.553  24.001  0.00  0.00    +0.000 A 
ATOM     26  C   UNL     1      -2.751  12.574  23.331  0.00  0.00    +0.000 A 
ATOM     27  N   UNL     1      -2.019  11.440  23.236  0.00  0.00    +0.000 NA
ENDBRANCH   2  18
TORSDOF 2
ENDMDL
MODEL 8
REMARK VINA RESULT:      -7.7      2.167      9.792
REMARK  Name = 
REMARK  4 active torsions:
REMARK  status: ('A' for Active; 'I' for Inactive)
REMARK    1  A    between atoms: C_1  and  C_2
REMARK    2  A    between atoms: C_4  and  C_5
REMARK    3  A    between atoms: C_10  and  N_11
REMARK    4  A    between atoms: C_12  and  C_14
REMARK                            x       y       z     vdW  Elec       q    Type
REMARK                         _______ _______ _______ _____ _____    ______ ____
ROOT
ATOM      1  N   UNL     1       2.223   8.340  18.817  0.00  0.00    +0.000 N 
ATOM      2  C   UNL     1       2.464   7.057  19.286  0.00  0.00    +0.000 C 
ATOM      3  O   UNL     1       1.821   6.458  20.143  0.00  0.00    +0.000 OA
ATOM      4  H   UNL     1       2.883   8.677  18.121  0.00  0.00    +0.000 HD
ENDROOT
BRANCH   1  14
ATOM      5  C   UNL     1      -4.906  13.514  19.768  0.00  0.00    +0.000 C 
ATOM      6  C   UNL     1      -3.701  12.923  20.398  0.00  0.00    +0.000 A 
ATOM      7  C   UNL     1      -3.260  13.056  21.727  0.00  0.00    +0.000 A 
ATOM      8  C   UNL     1      -2.094  12.322  21.805  0.00  0.00    +0.000 A 
ATOM      9  C   UNL     1      -1.179  12.130  22.957  0.00  0.00    +0.000 C 
ATOM     10  N   UNL     1      -1.899  11.760  20.549  0.00  0.00    +0.000 N 
ATOM     11  C   UNL     1      -0.853  10.876  20.114  0.00  0.00    +0.000 A 
ATOM     12  C   UNL     1      -0.841  10.479  18.781  0.00  0.00    +0.000 A 
ATOM     13  C   UNL     1       0.172   9.632  18.328  0.00  0.00    +0.000 A 
ATOM     14  C   UNL     1       1.157   9.182  19.202  0.00  0.00    +0.000 A 
ATOM     15  C   UNL     1       1.061   9.621  20.522  0.00  0.00    +0.000 A 
ATOM     16  N   UNL     1       0.093  10.451  20.995  0.00  0.00    +0.000 NA
ATOM     17  N   UNL     1      -2.879  12.155  19.681  0.00  0.00    +0.000 NA
ENDBRANCH   1  14
BRANCH   2  18
ATOM     18  C   UNL     1       3.624   6.368  18.664  0.00  0.00    +0.000 A 
ATOM     19  C   UNL     1       4.407   5.532  19.441  0.00  0.00    +0.000 A 
ATOM     20  N   UNL     1       5.459   4.850  18.933  0.00  0.00    +0.000 NA
ATOM     21  C   UNL     1       5.702   5.021  17.622  0.00  0.00    +0.000 A 
ATOM     22  C   UNL     1       6.755   4.331  17.037  0.00  0.00    +0.000 A 
ATOM     23  C   UNL     1       7.042   4.463  15.680  0.00  0.00    +0.000 A 
ATOM     24  C   UNL     1       6.264   5.305  14.895  0.00  0.00    +0.000 A 
ATOM     25  C   UNL     1       5.205   6.009  15.472  0.00  0.00    +0.000 A 
ATOM     26  C   UNL     1       4.900   5.885  16.821  0.00  0.00    +0.000 A 
ATOM     27  N   UNL     1       3.855   6.570  17.338  0.00  0.00    +0.000 NA
ENDBRANCH   2  18
TORSDOF 2
ENDMDL
MODEL 9
REMARK VINA RESULT:      -7.7      1.579      2.597
REMARK  Name = 
REMARK  4 active torsions:
REMARK  status: ('A' for Active; 'I' for Inactive)
REMARK    1  A    between atoms: C_1  and  C_2
REMARK    2  A    between atoms: C_4  and  C_5
REMARK    3  A    between atoms: C_10  and  N_11
REMARK    4  A    between atoms: C_12  and  C_14
REMARK                            x       y       z     vdW  Elec       q    Type
REMARK                         _______ _______ _______ _____ _____    ______ ____
ROOT
ATOM      1  N   UNL     1       0.917   9.422  21.092  0.00  0.00    +0.000 N 
ATOM      2  C   UNL     1      -0.129  10.195  20.610  0.00  0.00    +0.000 C 
ATOM      3  O   UNL     1      -0.736  10.028  19.557  0.00  0.00    +0.000 OA
ATOM      4  H   UNL     1       1.313   9.734  21.975  0.00  0.00    +0.000 HD
ENDROOT
BRANCH   1  14
ATOM      5  C   UNL     1       3.576   1.401  18.429  0.00  0.00    +0.000 C 
ATOM      6  C   UNL     1       3.615   2.867  18.205  0.00  0.00    +0.000 A 
ATOM      7  C   UNL     1       4.270   3.572  17.180  0.00  0.00    +0.000 A 
ATOM      8  C   UNL     1       4.005   4.905  17.421  0.00  0.00    +0.000 A 
ATOM      9  C   UNL     1       4.467   6.104  16.679  0.00  0.00    +0.000 C 
ATOM     10  N   UNL     1       3.190   4.946  18.545  0.00  0.00    +0.000 N 
ATOM     11  C   UNL     1       2.601   6.090  19.185  0.00  0.00    +0.000 A 
ATOM     12  C   UNL     1       1.852   5.884  20.340  0.00  0.00    +0.000 A 
ATOM     13  C   UNL     1       1.280   6.978  20.989  0.00  0.00    +0.000 A 
ATOM     14  C   UNL     1       1.449   8.264  20.484  0.00  0.00    +0.000 A 
ATOM     15  C   UNL     1       2.204   8.377  19.317  0.00  0.00    +0.000 A 
ATOM     16  N   UNL     1       2.782   7.334  18.663  0.00  0.00    +0.000 NA
ATOM     17  N   UNL     1       2.975   3.689  19.038  0.00  0.00    +0.000 NA
ENDBRANCH   1  14
BRANCH   2  18
ATOM     18  C   UNL     1      -0.529  11.328  21.483  0.00  0.00    +0.000 A 
ATOM     19  C   UNL     1       0.282  12.448  21.549  0.00  0.00    +0.000 A 
ATOM     20  N   UNL     1      -0.038  13.526  22.300  0.00  0.00    +0.000 NA
ATOM     21  C   UNL     1      -1.196  13.458  22.978  0.00  0.00    +0.000 A 
ATOM     22  C   UNL     1      -1.589  14.543  23.750  0.00  0.00    +0.000 A 
ATOM     23  C   UNL     1      -2.786  14.528  24.463  0.00  0.00    +0.000 A 
ATOM     24  C   UNL     1      -3.602  13.405  24.407  0.00  0.00    +0.000 A 
ATOM     25  C   UNL     1      -3.217  12.305  23.638  0.00  0.00    +0.000 A 
ATOM     26  C   UNL     1      -2.030  12.304  22.916  0.00  0.00    +0.000 A 
ATOM     27  N   UNL     1      -1.700  11.225  22.170  0.00  0.00    +0.000 NA
ENDBRANCH   2  18
TORSDOF 2
ENDMDL
