MODEL 1
REMARK VINA RESULT:      -8.9      0.000      0.000
REMARK  Name = 
REMARK  5 active torsions:
REMARK  status: ('A' for Active; 'I' for Inactive)
REMARK    1  A    between atoms: C_2  and  C_3
REMARK    2  A    between atoms: C_3  and  S_4
REMARK    3  A    between atoms: S_4  and  C_5
REMARK    4  A    between atoms: N_9  and  C_10
REMARK    5  A    between atoms: C_19  and  C_20
REMARK                            x       y       z     vdW  Elec       q    Type
REMARK                         _______ _______ _______ _____ _____    ______ ____
ROOT
ATOM      1  O   UNL     1       2.091   7.994  19.474  0.00  0.00    +0.000 OA
ATOM      2  C   UNL     1       1.869   7.449  20.553  0.00  0.00    +0.000 C 
ATOM      3  N   UNL     1       2.129   6.136  20.876  0.00  0.00    +0.000 N 
ATOM      4  C   UNL     1       2.810   5.295  20.047  0.00  0.00    +0.000 A 
ATOM      5  N   UNL     1       3.569   5.571  19.020  0.00  0.00    +0.000 NA
ATOM      6  C   UNL     1       4.115   4.397  18.520  0.00  0.00    +0.000 A 
ATOM      7  C   UNL     1       3.671   3.246  19.145  0.00  0.00    +0.000 A 
ATOM      8  S   UNL     1       2.656   3.649  20.467  0.00  0.00    +0.000 S 
ATOM      9  H   UNL     1       1.631   5.699  21.648  0.00  0.00    +0.000 HD
ENDROOT
BRANCH   6  10
ATOM     10  C   UNL     1       5.074   4.421  17.423  0.00  0.00    +0.000 A 
ATOM     11  C   UNL     1       4.627   4.240  16.106  0.00  0.00    +0.000 A 
ATOM     12  C   UNL     1       5.533   4.292  15.049  0.00  0.00    +0.000 A 
ATOM     13  F   UNL     1       5.098   4.112  13.795  0.00  0.00    +0.000 F 
ATOM     14  C   UNL     1       6.886   4.531  15.269  0.00  0.00    +0.000 A 
ATOM     15  C   UNL     1       7.343   4.721  16.570  0.00  0.00    +0.000 A 
ATOM     16  C   UNL     1       6.440   4.665  17.632  0.00  0.00    +0.000 A 
ATOM     17  F   UNL     1       6.922   4.879  18.866  0.00  0.00    +0.000 F 
ENDBRANCH   6  10
BRANCH   2  18
ATOM     18  C   UNL     1       1.210   8.212  21.691  0.00  0.00    +0.000 C 
BRANCH  18  19
ATOM     19  S   UNL     1      -0.357   8.958  21.177  0.00  0.00    +0.000 S 
BRANCH  19  20
ATOM     20  C   UNL     1       0.106  10.595  20.861  0.00  0.00    +0.000 A 
ATOM     21  N   UNL     1       1.059  11.221  21.520  0.00  0.00    +0.000 NA
ATOM     22  N   UNL     1       1.266  12.433  20.923  0.00  0.00    +0.000 NA
ATOM     23  C   UNL     1       0.449  12.509  19.897  0.00  0.00    +0.000 A 
ATOM     24  N   UNL     1      -0.342  11.384  19.811  0.00  0.00    +0.000 N 
BRANCH  24  25
ATOM     25  C   UNL     1      -1.343  11.139  18.831  0.00  0.00    +0.000 A 
ATOM     26  C   UNL     1      -1.097  10.220  17.800  0.00  0.00    +0.000 A 
ATOM     27  C   UNL     1      -2.115   9.892  16.898  0.00  0.00    +0.000 A 
ATOM     28  C   UNL     1      -3.366  10.495  17.004  0.00  0.00    +0.000 A 
ATOM     29  C   UNL     1      -3.595  11.453  17.984  0.00  0.00    +0.000 A 
ATOM     30  C   UNL     1      -2.585  11.786  18.888  0.00  0.00    +0.000 A 
ENDBRANCH  24  25
ENDBRANCH  19  20
ENDBRANCH  18  19
ENDBRANCH   2  18
TORSDOF 5
ENDMDL
MODEL 2
REMARK VINA RESULT:      -8.5      1.957      2.519
REMARK  Name = 
REMARK  5 active torsions:
REMARK  status: ('A' for Active; 'I' for Inactive)
REMARK    1  A    between atoms: C_2  and  C_3
REMARK    2  A    between atoms: C_3  and  S_4
REMARK    3  A    between atoms: S_4  and  C_5
REMARK    4  A    between atoms: N_9  and  C_10
REMARK    5  A    between atoms: C_19  and  C_20
REMARK                            x       y       z     vdW  Elec       q    Type
REMARK                         _______ _______ _______ _____ _____    ______ ____
ROOT
ATOM      1  O   UNL     1       1.895   8.430  19.423  0.00  0.00    +0.000 OA
ATOM      2  C   UNL     1       1.534   7.985  20.510  0.00  0.00    +0.000 C 
ATOM      3  N   UNL     1       1.700   6.696  20.964  0.00  0.00    +0.000 N 
ATOM      4  C   UNL     1       2.430   5.766  20.287  0.00  0.00    +0.000 A 
ATOM      5  N   UNL     1       3.308   5.928  19.333  0.00  0.00    +0.000 NA
ATOM      6  C   UNL     1       3.854   4.699  18.993  0.00  0.00    +0.000 A 
ATOM      7  C   UNL     1       3.295   3.620  19.654  0.00  0.00    +0.000 A 
ATOM      8  S   UNL     1       2.161   4.167  20.817  0.00  0.00    +0.000 S 
ATOM      9  H   UNL     1       1.102   6.343  21.708  0.00  0.00    +0.000 HD
ENDROOT
BRANCH   6  10
ATOM     10  C   UNL     1       4.928   4.598  18.011  0.00  0.00    +0.000 A 
ATOM     11  C   UNL     1       4.621   4.303  16.675  0.00  0.00    +0.000 A 
ATOM     12  C   UNL     1       5.639   4.235  15.725  0.00  0.00    +0.000 A 
ATOM     13  F   UNL     1       5.337   3.947  14.453  0.00  0.00    +0.000 F 
ATOM     14  C   UNL     1       6.966   4.464  16.072  0.00  0.00    +0.000 A 
ATOM     15  C   UNL     1       7.284   4.766  17.393  0.00  0.00    +0.000 A 
ATOM     16  C   UNL     1       6.270   4.830  18.349  0.00  0.00    +0.000 A 
ATOM     17  F   UNL     1       6.622   5.148  19.604  0.00  0.00    +0.000 F 
ENDBRANCH   6  10
BRANCH   2  18
ATOM     18  C   UNL     1       0.788   8.863  21.503  0.00  0.00    +0.000 C 
BRANCH  18  19
ATOM     19  S   UNL     1      -0.366   9.982  20.670  0.00  0.00    +0.000 S 
BRANCH  19  20
ATOM     20  C   UNL     1       0.214  11.535  21.164  0.00  0.00    +0.000 A 
ATOM     21  N   UNL     1       1.461  11.930  21.005  0.00  0.00    +0.000 NA
ATOM     22  N   UNL     1       1.540  13.246  21.362  0.00  0.00    +0.000 NA
ATOM     23  C   UNL     1       0.333  13.633  21.709  0.00  0.00    +0.000 A 
ATOM     24  N   UNL     1      -0.560  12.587  21.633  0.00  0.00    +0.000 N 
BRANCH  24  25
ATOM     25  C   UNL     1      -1.946  12.647  21.949  0.00  0.00    +0.000 A 
ATOM     26  C   UNL     1      -2.393  12.207  23.205  0.00  0.00    +0.000 A 
ATOM     27  C   UNL     1      -3.736  12.365  23.564  0.00  0.00    +0.000 A 
ATOM     28  C   UNL     1      -4.638  12.933  22.667  0.00  0.00    +0.000 A 
ATOM     29  C   UNL     1      -4.214  13.310  21.400  0.00  0.00    +0.000 A 
ATOM     30  C   UNL     1      -2.875  13.157  21.033  0.00  0.00    +0.000 A 
ENDBRANCH  24  25
ENDBRANCH  19  20
ENDBRANCH  18  19
ENDBRANCH   2  18
TORSDOF 5
ENDMDL
MODEL 3
REMARK VINA RESULT:      -8.4      0.942      1.927
REMARK  Name = 
REMARK  5 active torsions:
REMARK  status: ('A' for Active; 'I' for Inactive)
REMARK    1  A    between atoms: C_2  and  C_3
REMARK    2  A    between atoms: C_3  and  S_4
REMARK    3  A    between atoms: S_4  and  C_5
REMARK    4  A    between atoms: N_9  and  C_10
REMARK    5  A    between atoms: C_19  and  C_20
REMARK                            x       y       z     vdW  Elec       q    Type
REMARK                         _______ _______ _______ _____ _____    ______ ____
ROOT
ATOM      1  O   UNL     1       1.985   8.426  19.800  0.00  0.00    +0.000 OA
ATOM      2  C   UNL     1       1.600   7.940  20.860  0.00  0.00    +0.000 C 
ATOM      3  N   UNL     1       1.649   6.612  21.219  0.00  0.00    +0.000 N 
ATOM      4  C   UNL     1       2.277   5.668  20.462  0.00  0.00    +0.000 A 
ATOM      5  N   UNL     1       3.152   5.816  19.503  0.00  0.00    +0.000 NA
ATOM      6  C   UNL     1       3.573   4.568  19.065  0.00  0.00    +0.000 A 
ATOM      7  C   UNL     1       2.924   3.502  19.661  0.00  0.00    +0.000 A 
ATOM      8  S   UNL     1       1.865   4.067  20.884  0.00  0.00    +0.000 S 
ATOM      9  H   UNL     1       1.032   6.264  21.949  0.00  0.00    +0.000 HD
ENDROOT
BRANCH   6  10
ATOM     10  C   UNL     1       4.617   4.438  18.056  0.00  0.00    +0.000 A 
ATOM     11  C   UNL     1       5.955   4.667  18.408  0.00  0.00    +0.000 A 
ATOM     12  C   UNL     1       6.962   4.514  17.456  0.00  0.00    +0.000 A 
ATOM     13  F   UNL     1       8.236   4.740  17.799  0.00  0.00    +0.000 F 
ATOM     14  C   UNL     1       6.669   4.127  16.152  0.00  0.00    +0.000 A 
ATOM     15  C   UNL     1       5.347   3.888  15.791  0.00  0.00    +0.000 A 
ATOM     16  C   UNL     1       4.335   4.045  16.739  0.00  0.00    +0.000 A 
ATOM     17  F   UNL     1       3.078   3.780  16.351  0.00  0.00    +0.000 F 
ENDBRANCH   6  10
BRANCH   2  18
ATOM     18  C   UNL     1       0.956   8.811  21.929  0.00  0.00    +0.000 C 
BRANCH  18  19
ATOM     19  S   UNL     1      -0.605   9.526  21.357  0.00  0.00    +0.000 S 
BRANCH  19  20
ATOM     20  C   UNL     1      -0.088  11.029  20.675  0.00  0.00    +0.000 A 
ATOM     21  N   UNL     1       0.904  11.747  21.163  0.00  0.00    +0.000 NA
ATOM     22  N   UNL     1       1.142  12.783  20.306  0.00  0.00    +0.000 NA
ATOM     23  C   UNL     1       0.307  12.662  19.299  0.00  0.00    +0.000 A 
ATOM     24  N   UNL     1      -0.528  11.580  19.479  0.00  0.00    +0.000 N 
BRANCH  24  25
ATOM     25  C   UNL     1      -1.559  11.164  18.593  0.00  0.00    +0.000 A 
ATOM     26  C   UNL     1      -2.829  11.756  18.676  0.00  0.00    +0.000 A 
ATOM     27  C   UNL     1      -3.815  11.431  17.738  0.00  0.00    +0.000 A 
ATOM     28  C   UNL     1      -3.549  10.500  16.736  0.00  0.00    +0.000 A 
ATOM     29  C   UNL     1      -2.315   9.863  16.689  0.00  0.00    +0.000 A 
ATOM     30  C   UNL     1      -1.326  10.182  17.621  0.00  0.00    +0.000 A 
ENDBRANCH  24  25
ENDBRANCH  19  20
ENDBRANCH  18  19
ENDBRANCH   2  18
TORSDOF 5
ENDMDL
MODEL 4
REMARK VINA RESULT:      -8.3      1.283      1.643
REMARK  Name = 
REMARK  5 active torsions:
REMARK  status: ('A' for Active; 'I' for Inactive)
REMARK    1  A    between atoms: C_2  and  C_3
REMARK    2  A    between atoms: C_3  and  S_4
REMARK    3  A    between atoms: S_4  and  C_5
REMARK    4  A    between atoms: N_9  and  C_10
REMARK    5  A    between atoms: C_19  and  C_20
REMARK                            x       y       z     vdW  Elec       q    Type
REMARK                         _______ _______ _______ _____ _____    ______ ____
ROOT
ATOM      1  O   UNL     1       1.869   8.707  18.888  0.00  0.00    +0.000 OA
ATOM      2  C   UNL     1       1.517   8.406  20.026  0.00  0.00    +0.000 C 
ATOM      3  N   UNL     1       1.703   7.192  20.647  0.00  0.00    +0.000 N 
ATOM      4  C   UNL     1       2.444   6.189  20.096  0.00  0.00    +0.000 A 
ATOM      5  N   UNL     1       3.317   6.235  19.124  0.00  0.00    +0.000 NA
ATOM      6  C   UNL     1       3.879   4.979  18.948  0.00  0.00    +0.000 A 
ATOM      7  C   UNL     1       3.337   3.990  19.749  0.00  0.00    +0.000 A 
ATOM      8  S   UNL     1       2.199   4.671  20.835  0.00  0.00    +0.000 S 
ATOM      9  H   UNL     1       1.113   6.932  21.434  0.00  0.00    +0.000 HD
ENDROOT
BRANCH   6  10
ATOM     10  C   UNL     1       4.950   4.762  17.983  0.00  0.00    +0.000 A 
ATOM     11  C   UNL     1       4.633   4.482  16.646  0.00  0.00    +0.000 A 
ATOM     12  C   UNL     1       5.652   4.304  15.711  0.00  0.00    +0.000 A 
ATOM     13  F   UNL     1       5.341   4.031  14.438  0.00  0.00    +0.000 F 
ATOM     14  C   UNL     1       6.991   4.409  16.074  0.00  0.00    +0.000 A 
ATOM     15  C   UNL     1       7.319   4.695  17.396  0.00  0.00    +0.000 A 
ATOM     16  C   UNL     1       6.304   4.869  18.336  0.00  0.00    +0.000 A 
ATOM     17  F   UNL     1       6.668   5.168  19.593  0.00  0.00    +0.000 F 
ENDBRANCH   6  10
BRANCH   2  18
ATOM     18  C   UNL     1       0.763   9.399  20.898  0.00  0.00    +0.000 C 
BRANCH  18  19
ATOM     19  S   UNL     1       0.805  11.068  20.199  0.00  0.00    +0.000 S 
BRANCH  19  20
ATOM     20  C   UNL     1      -0.656  11.758  20.818  0.00  0.00    +0.000 A 
ATOM     21  N   UNL     1      -0.722  12.423  21.954  0.00  0.00    +0.000 NA
ATOM     22  N   UNL     1      -1.976  12.952  22.066  0.00  0.00    +0.000 NA
ATOM     23  C   UNL     1      -2.642  12.618  20.983  0.00  0.00    +0.000 A 
ATOM     24  N   UNL     1      -1.872  11.832  20.154  0.00  0.00    +0.000 N 
BRANCH  24  25
ATOM     25  C   UNL     1      -2.280  11.283  18.907  0.00  0.00    +0.000 A 
ATOM     26  C   UNL     1      -3.484  11.704  18.321  0.00  0.00    +0.000 A 
ATOM     27  C   UNL     1      -3.837  11.252  17.045  0.00  0.00    +0.000 A 
ATOM     28  C   UNL     1      -3.010  10.362  16.364  0.00  0.00    +0.000 A 
ATOM     29  C   UNL     1      -1.850   9.891  16.966  0.00  0.00    +0.000 A 
ATOM     30  C   UNL     1      -1.490  10.338  18.239  0.00  0.00    +0.000 A 
ENDBRANCH  24  25
ENDBRANCH  19  20
ENDBRANCH  18  19
ENDBRANCH   2  18
TORSDOF 5
ENDMDL
MODEL 5
REMARK VINA RESULT:      -8.2      1.690      2.950
REMARK  Name = 
REMARK  5 active torsions:
REMARK  status: ('A' for Active; 'I' for Inactive)
REMARK    1  A    between atoms: C_2  and  C_3
REMARK    2  A    between atoms: C_3  and  S_4
REMARK    3  A    between atoms: S_4  and  C_5
REMARK    4  A    between atoms: N_9  and  C_10
REMARK    5  A    between atoms: C_19  and  C_20
REMARK                            x       y       z     vdW  Elec       q    Type
REMARK                         _______ _______ _______ _____ _____    ______ ____
ROOT
ATOM      1  O   UNL     1       1.818   8.526  19.195  0.00  0.00    +0.000 OA
ATOM      2  C   UNL     1       1.439   8.145  20.299  0.00  0.00    +0.000 C 
ATOM      3  N   UNL     1       1.626   6.894  20.843  0.00  0.00    +0.000 N 
ATOM      4  C   UNL     1       2.400   5.942  20.249  0.00  0.00    +0.000 A 
ATOM      5  N   UNL     1       3.299   6.066  19.309  0.00  0.00    +0.000 NA
ATOM      6  C   UNL     1       3.887   4.832  19.067  0.00  0.00    +0.000 A 
ATOM      7  C   UNL     1       3.338   3.784  19.784  0.00  0.00    +0.000 A 
ATOM      8  S   UNL     1       2.158   4.374  20.878  0.00  0.00    +0.000 S 
ATOM      9  H   UNL     1       1.018   6.574  21.593  0.00  0.00    +0.000 HD
ENDROOT
BRANCH   6  10
ATOM     10  C   UNL     1       4.989   4.696  18.122  0.00  0.00    +0.000 A 
ATOM     11  C   UNL     1       4.723   4.347  16.791  0.00  0.00    +0.000 A 
ATOM     12  C   UNL     1       5.769   4.246  15.875  0.00  0.00    +0.000 A 
ATOM     13  F   UNL     1       5.506   3.907  14.606  0.00  0.00    +0.000 F 
ATOM     14  C   UNL     1       7.085   4.494  16.251  0.00  0.00    +0.000 A 
ATOM     15  C   UNL     1       7.362   4.849  17.568  0.00  0.00    +0.000 A 
ATOM     16  C   UNL     1       6.320   4.947  18.490  0.00  0.00    +0.000 A 
ATOM     17  F   UNL     1       6.633   5.317  19.741  0.00  0.00    +0.000 F 
ENDBRANCH   6  10
BRANCH   2  18
ATOM     18  C   UNL     1       0.643   9.066  21.211  0.00  0.00    +0.000 C 
BRANCH  18  19
ATOM     19  S   UNL     1       0.974  10.809  20.855  0.00  0.00    +0.000 S 
BRANCH  19  20
ATOM     20  C   UNL     1      -0.149  11.139  19.581  0.00  0.00    +0.000 A 
ATOM     21  N   UNL     1      -1.195  10.382  19.319  0.00  0.00    +0.000 NA
ATOM     22  N   UNL     1      -1.944  11.004  18.361  0.00  0.00    +0.000 NA
ATOM     23  C   UNL     1      -1.351  12.141  18.076  0.00  0.00    +0.000 A 
ATOM     24  N   UNL     1      -0.184  12.283  18.796  0.00  0.00    +0.000 N 
BRANCH  24  25
ATOM     25  C   UNL     1       0.713  13.384  18.726  0.00  0.00    +0.000 A 
ATOM     26  C   UNL     1       2.021  13.187  18.257  0.00  0.00    +0.000 A 
ATOM     27  C   UNL     1       2.873  14.282  18.080  0.00  0.00    +0.000 A 
ATOM     28  C   UNL     1       2.437  15.567  18.395  0.00  0.00    +0.000 A 
ATOM     29  C   UNL     1       1.165  15.760  18.920  0.00  0.00    +0.000 A 
ATOM     30  C   UNL     1       0.308  14.673  19.099  0.00  0.00    +0.000 A 
ENDBRANCH  24  25
ENDBRANCH  19  20
ENDBRANCH  18  19
ENDBRANCH   2  18
TORSDOF 5
ENDMDL
MODEL 6
REMARK VINA RESULT:      -8.1      3.690      9.115
REMARK  Name = 
REMARK  5 active torsions:
REMARK  status: ('A' for Active; 'I' for Inactive)
REMARK    1  A    between atoms: C_2  and  C_3
REMARK    2  A    between atoms: C_3  and  S_4
REMARK    3  A    between atoms: S_4  and  C_5
REMARK    4  A    between atoms: N_9  and  C_10
REMARK    5  A    between atoms: C_19  and  C_20
REMARK                            x       y       z     vdW  Elec       q    Type
REMARK                         _______ _______ _______ _____ _____    ______ ____
ROOT
ATOM      1  O   UNL     1       1.599   5.214  21.077  0.00  0.00    +0.000 OA
ATOM      2  C   UNL     1       2.457   5.230  20.198  0.00  0.00    +0.000 C 
ATOM      3  N   UNL     1       2.702   6.254  19.311  0.00  0.00    +0.000 N 
ATOM      4  C   UNL     1       2.085   7.466  19.397  0.00  0.00    +0.000 A 
ATOM      5  N   UNL     1       1.438   8.002  20.398  0.00  0.00    +0.000 NA
ATOM      6  C   UNL     1       1.039   9.287  20.055  0.00  0.00    +0.000 A 
ATOM      7  C   UNL     1       1.328   9.649  18.752  0.00  0.00    +0.000 A 
ATOM      8  S   UNL     1       2.233   8.411  17.985  0.00  0.00    +0.000 S 
ATOM      9  H   UNL     1       3.189   6.059  18.439  0.00  0.00    +0.000 HD
ENDROOT
BRANCH   6  10
ATOM     10  C   UNL     1       0.370  10.150  21.021  0.00  0.00    +0.000 A 
ATOM     11  C   UNL     1       0.431  11.542  20.866  0.00  0.00    +0.000 A 
ATOM     12  C   UNL     1      -0.232  12.373  21.768  0.00  0.00    +0.000 A 
ATOM     13  F   UNL     1      -0.164  13.702  21.615  0.00  0.00    +0.000 F 
ATOM     14  C   UNL     1      -0.968  11.849  22.826  0.00  0.00    +0.000 A 
ATOM     15  C   UNL     1      -1.043  10.469  22.987  0.00  0.00    +0.000 A 
ATOM     16  C   UNL     1      -0.377   9.633  22.090  0.00  0.00    +0.000 A 
ATOM     17  F   UNL     1      -0.499   8.309  22.271  0.00  0.00    +0.000 F 
ENDBRANCH   6  10
BRANCH   2  18
ATOM     18  C   UNL     1       3.360   4.028  19.968  0.00  0.00    +0.000 C 
BRANCH  18  19
ATOM     19  S   UNL     1       4.007   3.991  18.277  0.00  0.00    +0.000 S 
BRANCH  19  20
ATOM     20  C   UNL     1       5.585   4.669  18.477  0.00  0.00    +0.000 A 
ATOM     21  N   UNL     1       6.110   4.958  19.651  0.00  0.00    +0.000 NA
ATOM     22  N   UNL     1       7.410   5.331  19.458  0.00  0.00    +0.000 NA
ATOM     23  C   UNL     1       7.658   5.240  18.170  0.00  0.00    +0.000 A 
ATOM     24  N   UNL     1       6.532   4.850  17.478  0.00  0.00    +0.000 N 
BRANCH  24  25
ATOM     25  C   UNL     1       6.438   4.665  16.071  0.00  0.00    +0.000 A 
ATOM     26  C   UNL     1       7.462   5.139  15.237  0.00  0.00    +0.000 A 
ATOM     27  C   UNL     1       7.431   4.864  13.866  0.00  0.00    +0.000 A 
ATOM     28  C   UNL     1       6.371   4.143  13.320  0.00  0.00    +0.000 A 
ATOM     29  C   UNL     1       5.323   3.728  14.130  0.00  0.00    +0.000 A 
ATOM     30  C   UNL     1       5.346   3.998  15.500  0.00  0.00    +0.000 A 
ENDBRANCH  24  25
ENDBRANCH  19  20
ENDBRANCH  18  19
ENDBRANCH   2  18
TORSDOF 5
ENDMDL
MODEL 7
REMARK VINA RESULT:      -8.1      2.742      3.987
REMARK  Name = 
REMARK  5 active torsions:
REMARK  status: ('A' for Active; 'I' for Inactive)
REMARK    1  A    between atoms: C_2  and  C_3
REMARK    2  A    between atoms: C_3  and  S_4
REMARK    3  A    between atoms: S_4  and  C_5
REMARK    4  A    between atoms: N_9  and  C_10
REMARK    5  A    between atoms: C_19  and  C_20
REMARK                            x       y       z     vdW  Elec       q    Type
REMARK                         _______ _______ _______ _____ _____    ______ ____
ROOT
ATOM      1  O   UNL     1       1.086   9.207  22.373  0.00  0.00    +0.000 OA
ATOM      2  C   UNL     1       0.586   9.897  21.489  0.00  0.00    +0.000 C 
ATOM      3  N   UNL     1       0.797   9.774  20.134  0.00  0.00    +0.000 N 
ATOM      4  C   UNL     1       1.512   8.748  19.591  0.00  0.00    +0.000 A 
ATOM      5  N   UNL     1       1.853   7.601  20.116  0.00  0.00    +0.000 NA
ATOM      6  C   UNL     1       2.519   6.838  19.166  0.00  0.00    +0.000 A 
ATOM      7  C   UNL     1       2.738   7.484  17.962  0.00  0.00    +0.000 A 
ATOM      8  S   UNL     1       1.981   9.022  17.974  0.00  0.00    +0.000 S 
ATOM      9  H   UNL     1       0.611  10.564  19.521  0.00  0.00    +0.000 HD
ENDROOT
BRANCH   6  10
ATOM     10  C   UNL     1       2.937   5.472  19.456  0.00  0.00    +0.000 A 
ATOM     11  C   UNL     1       2.001   4.549  19.943  0.00  0.00    +0.000 A 
ATOM     12  C   UNL     1       2.386   3.233  20.193  0.00  0.00    +0.000 A 
ATOM     13  F   UNL     1       1.486   2.359  20.663  0.00  0.00    +0.000 F 
ATOM     14  C   UNL     1       3.689   2.806  19.962  0.00  0.00    +0.000 A 
ATOM     15  C   UNL     1       4.627   3.709  19.471  0.00  0.00    +0.000 A 
ATOM     16  C   UNL     1       4.248   5.029  19.224  0.00  0.00    +0.000 A 
ATOM     17  F   UNL     1       5.179   5.858  18.728  0.00  0.00    +0.000 F 
ENDBRANCH   6  10
BRANCH   2  18
ATOM     18  C   UNL     1      -0.346  11.049  21.833  0.00  0.00    +0.000 C 
BRANCH  18  19
ATOM     19  S   UNL     1      -0.611  12.141  20.414  0.00  0.00    +0.000 S 
BRANCH  19  20
ATOM     20  C   UNL     1      -2.316  12.423  20.485  0.00  0.00    +0.000 A 
ATOM     21  N   UNL     1      -2.898  13.124  21.437  0.00  0.00    +0.000 NA
ATOM     22  N   UNL     1      -4.216  13.275  21.111  0.00  0.00    +0.000 NA
ATOM     23  C   UNL     1      -4.405  12.682  19.954  0.00  0.00    +0.000 A 
ATOM     24  N   UNL     1      -3.242  12.092  19.506  0.00  0.00    +0.000 N 
BRANCH  24  25
ATOM     25  C   UNL     1      -3.089  11.356  18.299  0.00  0.00    +0.000 A 
ATOM     26  C   UNL     1      -3.978  11.573  17.235  0.00  0.00    +0.000 A 
ATOM     27  C   UNL     1      -3.768  10.935  16.007  0.00  0.00    +0.000 A 
ATOM     28  C   UNL     1      -2.693  10.063  15.846  0.00  0.00    +0.000 A 
ATOM     29  C   UNL     1      -1.849   9.795  16.916  0.00  0.00    +0.000 A 
ATOM     30  C   UNL     1      -2.051  10.428  18.144  0.00  0.00    +0.000 A 
ENDBRANCH  24  25
ENDBRANCH  19  20
ENDBRANCH  18  19
ENDBRANCH   2  18
TORSDOF 5
ENDMDL
MODEL 8
REMARK VINA RESULT:      -8.0      2.186      2.878
REMARK  Name = 
REMARK  5 active torsions:
REMARK  status: ('A' for Active; 'I' for Inactive)
REMARK    1  A    between atoms: C_2  and  C_3
REMARK    2  A    between atoms: C_3  and  S_4
REMARK    3  A    between atoms: S_4  and  C_5
REMARK    4  A    between atoms: N_9  and  C_10
REMARK    5  A    between atoms: C_19  and  C_20
REMARK                            x       y       z     vdW  Elec       q    Type
REMARK                         _______ _______ _______ _____ _____    ______ ____
ROOT
ATOM      1  O   UNL     1       1.882   8.552  19.141  0.00  0.00    +0.000 OA
ATOM      2  C   UNL     1       1.522   8.180  20.255  0.00  0.00    +0.000 C 
ATOM      3  N   UNL     1       1.708   6.931  20.802  0.00  0.00    +0.000 N 
ATOM      4  C   UNL     1       2.457   5.967  20.196  0.00  0.00    +0.000 A 
ATOM      5  N   UNL     1       3.338   6.076  19.236  0.00  0.00    +0.000 NA
ATOM      6  C   UNL     1       3.906   4.834  18.987  0.00  0.00    +0.000 A 
ATOM      7  C   UNL     1       3.362   3.796  19.721  0.00  0.00    +0.000 A 
ATOM      8  S   UNL     1       2.212   4.405  20.838  0.00  0.00    +0.000 S 
ATOM      9  H   UNL     1       1.112   6.621  21.566  0.00  0.00    +0.000 HD
ENDROOT
BRANCH   6  10
ATOM     10  C   UNL     1       4.986   4.682  18.020  0.00  0.00    +0.000 A 
ATOM     11  C   UNL     1       4.684   4.383  16.683  0.00  0.00    +0.000 A 
ATOM     12  C   UNL     1       5.709   4.267  15.747  0.00  0.00    +0.000 A 
ATOM     13  F   UNL     1       5.412   3.977  14.474  0.00  0.00    +0.000 F 
ATOM     14  C   UNL     1       7.040   4.449  16.107  0.00  0.00    +0.000 A 
ATOM     15  C   UNL     1       7.354   4.753  17.428  0.00  0.00    +0.000 A 
ATOM     16  C   UNL     1       6.332   4.866  18.371  0.00  0.00    +0.000 A 
ATOM     17  F   UNL     1       6.681   5.186  19.627  0.00  0.00    +0.000 F 
ENDBRANCH   6  10
BRANCH   2  18
ATOM     18  C   UNL     1       0.757   9.115  21.180  0.00  0.00    +0.000 C 
BRANCH  18  19
ATOM     19  S   UNL     1      -0.182  10.353  20.251  0.00  0.00    +0.000 S 
BRANCH  19  20
ATOM     20  C   UNL     1      -0.662  11.454  21.495  0.00  0.00    +0.000 A 
ATOM     21  N   UNL     1      -1.205  11.073  22.634  0.00  0.00    +0.000 NA
ATOM     22  N   UNL     1      -1.320  12.170  23.440  0.00  0.00    +0.000 NA
ATOM     23  C   UNL     1      -0.824  13.194  22.783  0.00  0.00    +0.000 A 
ATOM     24  N   UNL     1      -0.409  12.818  21.524  0.00  0.00    +0.000 N 
BRANCH  24  25
ATOM     25  C   UNL     1       0.164  13.673  20.543  0.00  0.00    +0.000 A 
ATOM     26  C   UNL     1      -0.669  14.471  19.743  0.00  0.00    +0.000 A 
ATOM     27  C   UNL     1      -0.109  15.394  18.853  0.00  0.00    +0.000 A 
ATOM     28  C   UNL     1       1.275  15.506  18.738  0.00  0.00    +0.000 A 
ATOM     29  C   UNL     1       2.103  14.673  19.481  0.00  0.00    +0.000 A 
ATOM     30  C   UNL     1       1.553  13.749  20.371  0.00  0.00    +0.000 A 
ENDBRANCH  24  25
ENDBRANCH  19  20
ENDBRANCH  18  19
ENDBRANCH   2  18
TORSDOF 5
ENDMDL
MODEL 9
REMARK VINA RESULT:      -8.0      2.031      2.993
REMARK  Name = 
REMARK  5 active torsions:
REMARK  status: ('A' for Active; 'I' for Inactive)
REMARK    1  A    between atoms: C_2  and  C_3
REMARK    2  A    between atoms: C_3  and  S_4
REMARK    3  A    between atoms: S_4  and  C_5
REMARK    4  A    between atoms: N_9  and  C_10
REMARK    5  A    between atoms: C_19  and  C_20
REMARK                            x       y       z     vdW  Elec       q    Type
REMARK                         _______ _______ _______ _____ _____    ______ ____
ROOT
ATOM      1  O   UNL     1       1.873   8.669  18.987  0.00  0.00    +0.000 OA
ATOM      2  C   UNL     1       1.477   8.337  20.102  0.00  0.00    +0.000 C 
ATOM      3  N   UNL     1       1.640   7.107  20.697  0.00  0.00    +0.000 N 
ATOM      4  C   UNL     1       2.404   6.120  20.149  0.00  0.00    +0.000 A 
ATOM      5  N   UNL     1       3.314   6.193  19.214  0.00  0.00    +0.000 NA
ATOM      6  C   UNL     1       3.885   4.941  19.027  0.00  0.00    +0.000 A 
ATOM      7  C   UNL     1       3.314   3.931  19.779  0.00  0.00    +0.000 A 
ATOM      8  S   UNL     1       2.132   4.582  20.836  0.00  0.00    +0.000 S 
ATOM      9  H   UNL     1       1.019   6.826  21.452  0.00  0.00    +0.000 HD
ENDROOT
BRANCH   6  10
ATOM     10  C   UNL     1       4.995   4.752  18.100  0.00  0.00    +0.000 A 
ATOM     11  C   UNL     1       4.734   4.395  16.769  0.00  0.00    +0.000 A 
ATOM     12  C   UNL     1       5.788   4.242  15.870  0.00  0.00    +0.000 A 
ATOM     13  F   UNL     1       5.531   3.895  14.603  0.00  0.00    +0.000 F 
ATOM     14  C   UNL     1       7.107   4.446  16.262  0.00  0.00    +0.000 A 
ATOM     15  C   UNL     1       7.380   4.809  17.578  0.00  0.00    +0.000 A 
ATOM     16  C   UNL     1       6.329   4.958  18.484  0.00  0.00    +0.000 A 
ATOM     17  F   UNL     1       6.638   5.333  19.734  0.00  0.00    +0.000 F 
ENDBRANCH   6  10
BRANCH   2  18
ATOM     18  C   UNL     1       0.686   9.306  20.968  0.00  0.00    +0.000 C 
BRANCH  18  19
ATOM     19  S   UNL     1       0.885  11.016  20.411  0.00  0.00    +0.000 S 
BRANCH  19  20
ATOM     20  C   UNL     1      -0.553  11.265  19.482  0.00  0.00    +0.000 A 
ATOM     21  N   UNL     1      -0.778  10.686  18.320  0.00  0.00    +0.000 NA
ATOM     22  N   UNL     1      -2.056  10.979  17.937  0.00  0.00    +0.000 NA
ATOM     23  C   UNL     1      -2.593  11.712  18.887  0.00  0.00    +0.000 A 
ATOM     24  N   UNL     1      -1.684  11.958  19.893  0.00  0.00    +0.000 N 
BRANCH  24  25
ATOM     25  C   UNL     1      -1.922  12.726  21.066  0.00  0.00    +0.000 A 
ATOM     26  C   UNL     1      -1.971  14.126  20.982  0.00  0.00    +0.000 A 
ATOM     27  C   UNL     1      -2.314  14.883  22.108  0.00  0.00    +0.000 A 
ATOM     28  C   UNL     1      -2.581  14.251  23.321  0.00  0.00    +0.000 A 
ATOM     29  C   UNL     1      -2.472  12.871  23.425  0.00  0.00    +0.000 A 
ATOM     30  C   UNL     1      -2.130  12.108  22.306  0.00  0.00    +0.000 A 
ENDBRANCH  24  25
ENDBRANCH  19  20
ENDBRANCH  18  19
ENDBRANCH   2  18
TORSDOF 5
ENDMDL
