MODEL 1
REMARK VINA RESULT:      -8.0      0.000      0.000
REMARK  Name = 
REMARK  2 active torsions:
REMARK  status: ('A' for Active; 'I' for Inactive)
REMARK    1  A    between atoms: C_5  and  C_6
REMARK    2  A    between atoms: C_18  and  C_19
REMARK                            x       y       z     vdW  Elec       q    Type
REMARK                         _______ _______ _______ _____ _____    ______ ____
ROOT
ATOM      1  C   UNL     1       2.170   5.120  19.691  0.00  0.00    +0.000 A 
ATOM      2  C   UNL     1       1.461   4.569  20.748  0.00  0.00    +0.000 A 
ATOM      3  S   UNL     1       1.519   2.877  20.774  0.00  0.00    +0.000 S 
ATOM      4  C   UNL     1       2.514   2.840  19.396  0.00  0.00    +0.000 A 
ATOM      5  N   UNL     1       2.847   1.637  18.904  0.00  0.00    +0.000 NA
ATOM      6  C   UNL     1       3.647   1.726  17.851  0.00  0.00    +0.000 A 
ATOM      7  N   UNL     1       4.162   2.841  17.327  0.00  0.00    +0.000 NA
ATOM      8  C   UNL     1       3.906   4.054  17.891  0.00  0.00    +0.000 A 
ATOM      9  N   UNL     1       4.767   5.058  17.475  0.00  0.00    +0.000 N 
ATOM     10  C   UNL     1       5.113   6.151  18.361  0.00  0.00    +0.000 C 
ATOM     11  C   UNL     1       4.781   7.401  17.572  0.00  0.00    +0.000 C 
ATOM     12  C   UNL     1       5.051   7.006  16.137  0.00  0.00    +0.000 C 
ATOM     13  C   UNL     1       4.719   5.495  16.061  0.00  0.00    +0.000 C 
ATOM     14  C   UNL     1       2.922   4.093  18.941  0.00  0.00    +0.000 A 
ENDROOT
BRANCH   1  19
ATOM     15  F   UNL     1       1.228  10.606  18.948  0.00  0.00    +0.000 F 
ATOM     16  C   UNL     1       1.459   9.296  19.127  0.00  0.00    +0.000 A 
ATOM     17  C   UNL     1       1.571   8.790  20.413  0.00  0.00    +0.000 A 
ATOM     18  C   UNL     1       1.832   7.427  20.594  0.00  0.00    +0.000 A 
ATOM     19  C   UNL     1       1.985   6.566  19.490  0.00  0.00    +0.000 A 
ATOM     20  C   UNL     1       1.834   7.094  18.200  0.00  0.00    +0.000 A 
ATOM     21  C   UNL     1       1.582   8.462  18.019  0.00  0.00    +0.000 A 
ENDBRANCH   1  19
BRANCH  13  22
ATOM     22  C   UNL     1       5.720   4.900  15.084  0.00  0.00    +0.000 A 
ATOM     23  C   UNL     1       5.267   4.005  14.097  0.00  0.00    +0.000 A 
ATOM     24  C   UNL     1       6.077   3.664  13.016  0.00  0.00    +0.000 A 
ATOM     25  C   UNL     1       7.338   4.224  12.944  0.00  0.00    +0.000 A 
ATOM     26  N   UNL     1       7.833   5.060  13.884  0.00  0.00    +0.000 NA
ATOM     27  C   UNL     1       7.021   5.372  14.928  0.00  0.00    +0.000 A 
ENDBRANCH  13  22
TORSDOF 2
ENDMDL
MODEL 2
REMARK VINA RESULT:      -7.4      9.340     12.653
REMARK  Name = 
REMARK  2 active torsions:
REMARK  status: ('A' for Active; 'I' for Inactive)
REMARK    1  A    between atoms: C_5  and  C_6
REMARK    2  A    between atoms: C_18  and  C_19
REMARK                            x       y       z     vdW  Elec       q    Type
REMARK                         _______ _______ _______ _____ _____    ______ ____
ROOT
ATOM      1  C   UNL     1      -2.640  11.831  18.391  0.00  0.00    +0.000 A 
ATOM      2  C   UNL     1      -2.558  11.404  17.075  0.00  0.00    +0.000 A 
ATOM      3  S   UNL     1      -4.060  10.975  16.422  0.00  0.00    +0.000 S 
ATOM      4  C   UNL     1      -4.859  11.375  17.869  0.00  0.00    +0.000 A 
ATOM      5  N   UNL     1      -6.181  11.154  17.928  0.00  0.00    +0.000 NA
ATOM      6  C   UNL     1      -6.704  11.529  19.087  0.00  0.00    +0.000 A 
ATOM      7  N   UNL     1      -6.068  12.131  20.096  0.00  0.00    +0.000 NA
ATOM      8  C   UNL     1      -4.749  12.449  19.992  0.00  0.00    +0.000 A 
ATOM      9  N   UNL     1      -4.317  13.364  20.941  0.00  0.00    +0.000 N 
ATOM     10  C   UNL     1      -3.249  14.297  20.637  0.00  0.00    +0.000 C 
ATOM     11  C   UNL     1      -2.238  14.090  21.745  0.00  0.00    +0.000 C 
ATOM     12  C   UNL     1      -3.083  13.720  22.944  0.00  0.00    +0.000 C 
ATOM     13  C   UNL     1      -4.301  12.960  22.365  0.00  0.00    +0.000 C 
ATOM     14  C   UNL     1      -4.041  11.945  18.844  0.00  0.00    +0.000 A 
ENDROOT
BRANCH   1  19
ATOM     15  F   UNL     1       2.163  12.679  21.175  0.00  0.00    +0.000 F 
ATOM     16  C   UNL     1       1.018  12.471  20.507  0.00  0.00    +0.000 A 
ATOM     17  C   UNL     1       0.159  11.463  20.917  0.00  0.00    +0.000 A 
ATOM     18  C   UNL     1      -1.025  11.237  20.205  0.00  0.00    +0.000 A 
ATOM     19  C   UNL     1      -1.352  12.016  19.079  0.00  0.00    +0.000 A 
ATOM     20  C   UNL     1      -0.485  13.053  18.704  0.00  0.00    +0.000 A 
ATOM     21  C   UNL     1       0.706  13.271  19.411  0.00  0.00    +0.000 A 
ENDBRANCH   1  19
BRANCH  13  22
ATOM     22  C   UNL     1      -5.482  13.342  23.240  0.00  0.00    +0.000 A 
ATOM     23  C   UNL     1      -5.818  14.701  23.386  0.00  0.00    +0.000 A 
ATOM     24  C   UNL     1      -7.044  15.080  23.930  0.00  0.00    +0.000 A 
ATOM     25  C   UNL     1      -7.916  14.085  24.327  0.00  0.00    +0.000 A 
ATOM     26  N   UNL     1      -7.627  12.767  24.242  0.00  0.00    +0.000 NA
ATOM     27  C   UNL     1      -6.423  12.428  23.711  0.00  0.00    +0.000 A 
ENDBRANCH  13  22
TORSDOF 2
ENDMDL
MODEL 3
REMARK VINA RESULT:      -7.1      6.439      9.341
REMARK  Name = 
REMARK  2 active torsions:
REMARK  status: ('A' for Active; 'I' for Inactive)
REMARK    1  A    between atoms: C_5  and  C_6
REMARK    2  A    between atoms: C_18  and  C_19
REMARK                            x       y       z     vdW  Elec       q    Type
REMARK                         _______ _______ _______ _____ _____    ______ ____
ROOT
ATOM      1  C   UNL     1      -0.263  15.004  21.675  0.00  0.00    +0.000 A 
ATOM      2  C   UNL     1      -0.816  15.753  22.703  0.00  0.00    +0.000 A 
ATOM      3  S   UNL     1      -1.559  14.802  23.890  0.00  0.00    +0.000 S 
ATOM      4  C   UNL     1      -1.137  13.369  23.076  0.00  0.00    +0.000 A 
ATOM      5  N   UNL     1      -1.568  12.210  23.598  0.00  0.00    +0.000 NA
ATOM      6  C   UNL     1      -1.156  11.160  22.902  0.00  0.00    +0.000 A 
ATOM      7  N   UNL     1      -0.347  11.169  21.839  0.00  0.00    +0.000 NA
ATOM      8  C   UNL     1       0.171  12.338  21.374  0.00  0.00    +0.000 A 
ATOM      9  N   UNL     1       1.247  12.170  20.514  0.00  0.00    +0.000 N 
ATOM     10  C   UNL     1       2.304  13.160  20.448  0.00  0.00    +0.000 C 
ATOM     11  C   UNL     1       2.394  13.523  18.981  0.00  0.00    +0.000 C 
ATOM     12  C   UNL     1       2.026  12.242  18.266  0.00  0.00    +0.000 C 
ATOM     13  C   UNL     1       1.013  11.532  19.199  0.00  0.00    +0.000 C 
ATOM     14  C   UNL     1      -0.334  13.556  21.952  0.00  0.00    +0.000 A 
ENDROOT
BRANCH   1  19
ATOM     15  F   UNL     1       1.413  18.135  17.324  0.00  0.00    +0.000 F 
ATOM     16  C   UNL     1       1.017  17.383  18.363  0.00  0.00    +0.000 A 
ATOM     17  C   UNL     1       1.714  17.447  19.560  0.00  0.00    +0.000 A 
ATOM     18  C   UNL     1       1.310  16.646  20.634  0.00  0.00    +0.000 A 
ATOM     19  C   UNL     1       0.210  15.776  20.514  0.00  0.00    +0.000 A 
ATOM     20  C   UNL     1      -0.501  15.753  19.304  0.00  0.00    +0.000 A 
ATOM     21  C   UNL     1      -0.088  16.549  18.225  0.00  0.00    +0.000 A 
ENDBRANCH   1  19
BRANCH  13  22
ATOM     22  C   UNL     1       1.290  10.045  19.055  0.00  0.00    +0.000 A 
ATOM     23  C   UNL     1       1.847   9.562  17.856  0.00  0.00    +0.000 A 
ATOM     24  C   UNL     1       2.381   8.277  17.783  0.00  0.00    +0.000 A 
ATOM     25  C   UNL     1       2.342   7.489  18.917  0.00  0.00    +0.000 A 
ATOM     26  N   UNL     1       1.785   7.893  20.082  0.00  0.00    +0.000 NA
ATOM     27  C   UNL     1       1.271   9.149  20.122  0.00  0.00    +0.000 A 
ENDBRANCH  13  22
TORSDOF 2
ENDMDL
MODEL 4
REMARK VINA RESULT:      -7.0      8.234     12.007
REMARK  Name = 
REMARK  2 active torsions:
REMARK  status: ('A' for Active; 'I' for Inactive)
REMARK    1  A    between atoms: C_5  and  C_6
REMARK    2  A    between atoms: C_18  and  C_19
REMARK                            x       y       z     vdW  Elec       q    Type
REMARK                         _______ _______ _______ _____ _____    ______ ____
ROOT
ATOM      1  C   UNL     1      -1.769  10.820  18.606  0.00  0.00    +0.000 A 
ATOM      2  C   UNL     1      -1.409  10.394  17.336  0.00  0.00    +0.000 A 
ATOM      3  S   UNL     1      -2.635  10.620  16.190  0.00  0.00    +0.000 S 
ATOM      4  C   UNL     1      -3.662  11.316  17.353  0.00  0.00    +0.000 A 
ATOM      5  N   UNL     1      -4.900  11.658  16.962  0.00  0.00    +0.000 NA
ATOM      6  C   UNL     1      -5.601  12.218  17.937  0.00  0.00    +0.000 A 
ATOM      7  N   UNL     1      -5.172  12.507  19.169  0.00  0.00    +0.000 NA
ATOM      8  C   UNL     1      -3.885  12.253  19.531  0.00  0.00    +0.000 A 
ATOM      9  N   UNL     1      -3.488  12.912  20.686  0.00  0.00    +0.000 N 
ATOM     10  C   UNL     1      -2.110  13.322  20.868  0.00  0.00    +0.000 C 
ATOM     11  C   UNL     1      -1.706  12.720  22.197  0.00  0.00    +0.000 C 
ATOM     12  C   UNL     1      -2.985  12.733  23.005  0.00  0.00    +0.000 C 
ATOM     13  C   UNL     1      -4.122  12.539  21.971  0.00  0.00    +0.000 C 
ATOM     14  C   UNL     1      -3.079  11.501  18.606  0.00  0.00    +0.000 A 
ENDROOT
BRANCH   1  19
ATOM     15  F   UNL     1       1.913   9.294  22.562  0.00  0.00    +0.000 F 
ATOM     16  C   UNL     1       1.032   9.664  21.620  0.00  0.00    +0.000 A 
ATOM     17  C   UNL     1       1.367  10.669  20.725  0.00  0.00    +0.000 A 
ATOM     18  C   UNL     1       0.437  11.065  19.757  0.00  0.00    +0.000 A 
ATOM     19  C   UNL     1      -0.832  10.460  19.683  0.00  0.00    +0.000 A 
ATOM     20  C   UNL     1      -1.136   9.422  20.576  0.00  0.00    +0.000 A 
ATOM     21  C   UNL     1      -0.207   9.033  21.553  0.00  0.00    +0.000 A 
ENDBRANCH   1  19
BRANCH  13  22
ATOM     22  C   UNL     1      -5.286  13.375  22.474  0.00  0.00    +0.000 A 
ATOM     23  C   UNL     1      -6.561  12.788  22.575  0.00  0.00    +0.000 A 
ATOM     24  C   UNL     1      -7.581  13.411  23.292  0.00  0.00    +0.000 A 
ATOM     25  C   UNL     1      -7.307  14.624  23.895  0.00  0.00    +0.000 A 
ATOM     26  N   UNL     1      -6.110  15.247  23.798  0.00  0.00    +0.000 NA
ATOM     27  C   UNL     1      -5.137  14.616  23.090  0.00  0.00    +0.000 A 
ENDBRANCH  13  22
TORSDOF 2
ENDMDL
MODEL 5
REMARK VINA RESULT:      -6.9      9.545     11.882
REMARK  Name = 
REMARK  2 active torsions:
REMARK  status: ('A' for Active; 'I' for Inactive)
REMARK    1  A    between atoms: C_5  and  C_6
REMARK    2  A    between atoms: C_18  and  C_19
REMARK                            x       y       z     vdW  Elec       q    Type
REMARK                         _______ _______ _______ _____ _____    ______ ____
ROOT
ATOM      1  C   UNL     1       7.180  15.266  19.242  0.00  0.00    +0.000 A 
ATOM      2  C   UNL     1       6.689  16.267  18.418  0.00  0.00    +0.000 A 
ATOM      3  S   UNL     1       5.195  16.876  18.933  0.00  0.00    +0.000 S 
ATOM      4  C   UNL     1       5.182  15.839  20.281  0.00  0.00    +0.000 A 
ATOM      5  N   UNL     1       4.099  15.867  21.073  0.00  0.00    +0.000 NA
ATOM      6  C   UNL     1       4.209  15.044  22.107  0.00  0.00    +0.000 A 
ATOM      7  N   UNL     1       5.270  14.299  22.430  0.00  0.00    +0.000 NA
ATOM      8  C   UNL     1       6.406  14.351  21.682  0.00  0.00    +0.000 A 
ATOM      9  N   UNL     1       7.518  13.815  22.315  0.00  0.00    +0.000 N 
ATOM     10  C   UNL     1       8.844  14.333  22.045  0.00  0.00    +0.000 C 
ATOM     11  C   UNL     1       9.653  13.117  21.646  0.00  0.00    +0.000 C 
ATOM     12  C   UNL     1       9.043  11.994  22.454  0.00  0.00    +0.000 C 
ATOM     13  C   UNL     1       7.545  12.362  22.597  0.00  0.00    +0.000 C 
ATOM     14  C   UNL     1       6.344  15.087  20.446  0.00  0.00    +0.000 A 
ENDROOT
BRANCH   1  19
ATOM     15  F   UNL     1      11.650  12.635  17.090  0.00  0.00    +0.000 F 
ATOM     16  C   UNL     1      10.585  13.263  17.610  0.00  0.00    +0.000 A 
ATOM     17  C   UNL     1      10.699  14.584  18.016  0.00  0.00    +0.000 A 
ATOM     18  C   UNL     1       9.590  15.228  18.576  0.00  0.00    +0.000 A 
ATOM     19  C   UNL     1       8.364  14.554  18.736  0.00  0.00    +0.000 A 
ATOM     20  C   UNL     1       8.263  13.229  18.286  0.00  0.00    +0.000 A 
ATOM     21  C   UNL     1       9.378  12.580  17.734  0.00  0.00    +0.000 A 
ENDBRANCH   1  19
BRANCH  13  22
ATOM     22  C   UNL     1       7.131  11.884  23.978  0.00  0.00    +0.000 A 
ATOM     23  C   UNL     1       7.899  12.262  25.095  0.00  0.00    +0.000 A 
ATOM     24  C   UNL     1       7.408  12.098  26.389  0.00  0.00    +0.000 A 
ATOM     25  C   UNL     1       6.151  11.547  26.544  0.00  0.00    +0.000 A 
ATOM     26  N   UNL     1       5.388  11.134  25.506  0.00  0.00    +0.000 NA
ATOM     27  C   UNL     1       5.895  11.305  24.257  0.00  0.00    +0.000 A 
ENDBRANCH  13  22
TORSDOF 2
ENDMDL
MODEL 6
REMARK VINA RESULT:      -6.9      9.490     11.946
REMARK  Name = 
REMARK  2 active torsions:
REMARK  status: ('A' for Active; 'I' for Inactive)
REMARK    1  A    between atoms: C_5  and  C_6
REMARK    2  A    between atoms: C_18  and  C_19
REMARK                            x       y       z     vdW  Elec       q    Type
REMARK                         _______ _______ _______ _____ _____    ______ ____
ROOT
ATOM      1  C   UNL     1       7.546  15.226  19.240  0.00  0.00    +0.000 A 
ATOM      2  C   UNL     1       7.168  16.283  18.427  0.00  0.00    +0.000 A 
ATOM      3  S   UNL     1       5.763  17.062  18.963  0.00  0.00    +0.000 S 
ATOM      4  C   UNL     1       5.642  16.027  20.306  0.00  0.00    +0.000 A 
ATOM      5  N   UNL     1       4.580  16.178  21.112  0.00  0.00    +0.000 NA
ATOM      6  C   UNL     1       4.603  15.342  22.140  0.00  0.00    +0.000 A 
ATOM      7  N   UNL     1       5.571  14.474  22.446  0.00  0.00    +0.000 NA
ATOM      8  C   UNL     1       6.696  14.394  21.684  0.00  0.00    +0.000 A 
ATOM      9  N   UNL     1       7.744  13.727  22.301  0.00  0.00    +0.000 N 
ATOM     10  C   UNL     1       9.119  14.084  22.018  0.00  0.00    +0.000 C 
ATOM     11  C   UNL     1       9.773  12.783  21.603  0.00  0.00    +0.000 C 
ATOM     12  C   UNL     1       9.042  11.735  22.413  0.00  0.00    +0.000 C 
ATOM     13  C   UNL     1       7.601  12.279  22.576  0.00  0.00    +0.000 C 
ATOM     14  C   UNL     1       6.708  15.140  20.453  0.00  0.00    +0.000 A 
ENDROOT
BRANCH   1  19
ATOM     15  F   UNL     1      11.717  11.912  17.462  0.00  0.00    +0.000 F 
ATOM     16  C   UNL     1      10.718  12.705  17.881  0.00  0.00    +0.000 A 
ATOM     17  C   UNL     1       9.427  12.204  17.944  0.00  0.00    +0.000 A 
ATOM     18  C   UNL     1       8.385  13.040  18.362  0.00  0.00    +0.000 A 
ATOM     19  C   UNL     1       8.631  14.381  18.716  0.00  0.00    +0.000 A 
ATOM     20  C   UNL     1       9.950  14.855  18.677  0.00  0.00    +0.000 A 
ATOM     21  C   UNL     1      10.992  14.019  18.248  0.00  0.00    +0.000 A 
ENDBRANCH   1  19
BRANCH  13  22
ATOM     22  C   UNL     1       7.149  11.845  23.960  0.00  0.00    +0.000 A 
ATOM     23  C   UNL     1       7.914  12.219  25.082  0.00  0.00    +0.000 A 
ATOM     24  C   UNL     1       7.398  12.099  26.371  0.00  0.00    +0.000 A 
ATOM     25  C   UNL     1       6.118  11.598  26.516  0.00  0.00    +0.000 A 
ATOM     26  N   UNL     1       5.357  11.191  25.475  0.00  0.00    +0.000 NA
ATOM     27  C   UNL     1       5.889  11.317  24.231  0.00  0.00    +0.000 A 
ENDBRANCH  13  22
TORSDOF 2
ENDMDL
MODEL 7
REMARK VINA RESULT:      -6.9      2.840      6.335
REMARK  Name = 
REMARK  2 active torsions:
REMARK  status: ('A' for Active; 'I' for Inactive)
REMARK    1  A    between atoms: C_5  and  C_6
REMARK    2  A    between atoms: C_18  and  C_19
REMARK                            x       y       z     vdW  Elec       q    Type
REMARK                         _______ _______ _______ _____ _____    ______ ____
ROOT
ATOM      1  C   UNL     1       4.134   3.661  18.372  0.00  0.00    +0.000 A 
ATOM      2  C   UNL     1       4.344   2.301  18.207  0.00  0.00    +0.000 A 
ATOM      3  S   UNL     1       3.242   1.350  19.073  0.00  0.00    +0.000 S 
ATOM      4  C   UNL     1       2.442   2.729  19.665  0.00  0.00    +0.000 A 
ATOM      5  N   UNL     1       1.431   2.537  20.526  0.00  0.00    +0.000 NA
ATOM      6  C   UNL     1       0.862   3.674  20.897  0.00  0.00    +0.000 A 
ATOM      7  N   UNL     1       1.156   4.900  20.456  0.00  0.00    +0.000 NA
ATOM      8  C   UNL     1       2.113   5.083  19.505  0.00  0.00    +0.000 A 
ATOM      9  N   UNL     1       2.067   6.329  18.897  0.00  0.00    +0.000 N 
ATOM     10  C   UNL     1       2.479   6.494  17.517  0.00  0.00    +0.000 C 
ATOM     11  C   UNL     1       3.518   7.595  17.560  0.00  0.00    +0.000 C 
ATOM     12  C   UNL     1       3.061   8.482  18.696  0.00  0.00    +0.000 C 
ATOM     13  C   UNL     1       2.377   7.528  19.707  0.00  0.00    +0.000 C 
ATOM     14  C   UNL     1       2.906   3.937  19.145  0.00  0.00    +0.000 A 
ENDROOT
BRANCH   1  19
ATOM     15  F   UNL     1       7.975   7.182  16.277  0.00  0.00    +0.000 F 
ATOM     16  C   UNL     1       7.062   6.337  16.779  0.00  0.00    +0.000 A 
ATOM     17  C   UNL     1       6.925   6.213  18.153  0.00  0.00    +0.000 A 
ATOM     18  C   UNL     1       5.985   5.315  18.672  0.00  0.00    +0.000 A 
ATOM     19  C   UNL     1       5.181   4.535  17.819  0.00  0.00    +0.000 A 
ATOM     20  C   UNL     1       5.313   4.702  16.433  0.00  0.00    +0.000 A 
ATOM     21  C   UNL     1       6.263   5.595  15.913  0.00  0.00    +0.000 A 
ENDBRANCH   1  19
BRANCH  13  22
ATOM     22  C   UNL     1       1.224   8.316  20.306  0.00  0.00    +0.000 A 
ATOM     23  C   UNL     1       0.946   8.190  21.680  0.00  0.00    +0.000 A 
ATOM     24  C   UNL     1       0.103   9.094  22.324  0.00  0.00    +0.000 A 
ATOM     25  C   UNL     1      -0.455  10.112  21.576  0.00  0.00    +0.000 A 
ATOM     26  N   UNL     1      -0.248  10.255  20.247  0.00  0.00    +0.000 NA
ATOM     27  C   UNL     1       0.575   9.357  19.646  0.00  0.00    +0.000 A 
ENDBRANCH  13  22
TORSDOF 2
ENDMDL
MODEL 8
REMARK VINA RESULT:      -6.8      2.825      6.405
REMARK  Name = 
REMARK  2 active torsions:
REMARK  status: ('A' for Active; 'I' for Inactive)
REMARK    1  A    between atoms: C_5  and  C_6
REMARK    2  A    between atoms: C_18  and  C_19
REMARK                            x       y       z     vdW  Elec       q    Type
REMARK                         _______ _______ _______ _____ _____    ______ ____
ROOT
ATOM      1  C   UNL     1       3.947   3.293  18.200  0.00  0.00    +0.000 A 
ATOM      2  C   UNL     1       4.071   1.914  18.118  0.00  0.00    +0.000 A 
ATOM      3  S   UNL     1       3.098   1.094  19.235  0.00  0.00    +0.000 S 
ATOM      4  C   UNL     1       2.467   2.556  19.833  0.00  0.00    +0.000 A 
ATOM      5  N   UNL     1       1.613   2.485  20.865  0.00  0.00    +0.000 NA
ATOM      6  C   UNL     1       1.161   3.677  21.229  0.00  0.00    +0.000 A 
ATOM      7  N   UNL     1       1.423   4.848  20.641  0.00  0.00    +0.000 NA
ATOM      8  C   UNL     1       2.209   4.904  19.531  0.00  0.00    +0.000 A 
ATOM      9  N   UNL     1       2.109   6.100  18.834  0.00  0.00    +0.000 N 
ATOM     10  C   UNL     1       2.283   6.136  17.396  0.00  0.00    +0.000 C 
ATOM     11  C   UNL     1       3.358   7.179  17.169  0.00  0.00    +0.000 C 
ATOM     12  C   UNL     1       3.139   8.174  18.287  0.00  0.00    +0.000 C 
ATOM     13  C   UNL     1       2.602   7.340  19.476  0.00  0.00    +0.000 C 
ATOM     14  C   UNL     1       2.882   3.693  19.142  0.00  0.00    +0.000 A 
ENDROOT
BRANCH   1  19
ATOM     15  F   UNL     1       7.782   6.034  15.148  0.00  0.00    +0.000 F 
ATOM     16  C   UNL     1       6.862   5.384  15.876  0.00  0.00    +0.000 A 
ATOM     17  C   UNL     1       5.851   4.684  15.235  0.00  0.00    +0.000 A 
ATOM     18  C   UNL     1       4.881   4.024  15.999  0.00  0.00    +0.000 A 
ATOM     19  C   UNL     1       4.917   4.064  17.405  0.00  0.00    +0.000 A 
ATOM     20  C   UNL     1       5.969   4.749  18.032  0.00  0.00    +0.000 A 
ATOM     21  C   UNL     1       6.934   5.419  17.266  0.00  0.00    +0.000 A 
ENDBRANCH   1  19
BRANCH  13  22
ATOM     22  C   UNL     1       1.601   8.233  20.190  0.00  0.00    +0.000 A 
ATOM     23  C   UNL     1       1.495   8.161  21.592  0.00  0.00    +0.000 A 
ATOM     24  C   UNL     1       0.816   9.145  22.309  0.00  0.00    +0.000 A 
ATOM     25  C   UNL     1       0.247  10.188  21.604  0.00  0.00    +0.000 A 
ATOM     26  N   UNL     1       0.289  10.284  20.256  0.00  0.00    +0.000 NA
ATOM     27  C   UNL     1       0.955   9.308  19.585  0.00  0.00    +0.000 A 
ENDBRANCH  13  22
TORSDOF 2
ENDMDL
MODEL 9
REMARK VINA RESULT:      -6.8      5.660      8.448
REMARK  Name = 
REMARK  2 active torsions:
REMARK  status: ('A' for Active; 'I' for Inactive)
REMARK    1  A    between atoms: C_5  and  C_6
REMARK    2  A    between atoms: C_18  and  C_19
REMARK                            x       y       z     vdW  Elec       q    Type
REMARK                         _______ _______ _______ _____ _____    ______ ____
ROOT
ATOM      1  C   UNL     1      -3.333  12.321  19.833  0.00  0.00    +0.000 A 
ATOM      2  C   UNL     1      -4.619  12.703  19.481  0.00  0.00    +0.000 A 
ATOM      3  S   UNL     1      -5.106  12.084  17.983  0.00  0.00    +0.000 S 
ATOM      4  C   UNL     1      -3.627  11.270  17.782  0.00  0.00    +0.000 A 
ATOM      5  N   UNL     1      -3.437  10.605  16.632  0.00  0.00    +0.000 NA
ATOM      6  C   UNL     1      -2.266   9.984  16.595  0.00  0.00    +0.000 A 
ATOM      7  N   UNL     1      -1.361   9.921  17.575  0.00  0.00    +0.000 NA
ATOM      8  C   UNL     1      -1.602  10.510  18.779  0.00  0.00    +0.000 A 
ATOM      9  N   UNL     1      -0.761  10.076  19.793  0.00  0.00    +0.000 N 
ATOM     10  C   UNL     1      -1.221  10.029  21.167  0.00  0.00    +0.000 C 
ATOM     11  C   UNL     1      -0.194  10.830  21.939  0.00  0.00    +0.000 C 
ATOM     12  C   UNL     1       1.097  10.583  21.191  0.00  0.00    +0.000 C 
ATOM     13  C   UNL     1       0.681  10.400  19.710  0.00  0.00    +0.000 C 
ATOM     14  C   UNL     1      -2.769  11.347  18.878  0.00  0.00    +0.000 A 
ENDROOT
BRANCH   1  19
ATOM     15  F   UNL     1      -1.042  14.710  24.370  0.00  0.00    +0.000 F 
ATOM     16  C   UNL     1      -1.592  14.144  23.285  0.00  0.00    +0.000 A 
ATOM     17  C   UNL     1      -1.059  14.406  22.031  0.00  0.00    +0.000 A 
ATOM     18  C   UNL     1      -1.649  13.831  20.900  0.00  0.00    +0.000 A 
ATOM     19  C   UNL     1      -2.775  12.994  21.018  0.00  0.00    +0.000 A 
ATOM     20  C   UNL     1      -3.275  12.715  22.299  0.00  0.00    +0.000 A 
ATOM     21  C   UNL     1      -2.690  13.301  23.431  0.00  0.00    +0.000 A 
ENDBRANCH   1  19
BRANCH  13  22
ATOM     22  C   UNL     1       1.627   9.357  19.139  0.00  0.00    +0.000 A 
ATOM     23  C   UNL     1       1.840   8.161  19.849  0.00  0.00    +0.000 A 
ATOM     24  C   UNL     1       2.457   7.069  19.241  0.00  0.00    +0.000 A 
ATOM     25  C   UNL     1       2.860   7.198  17.926  0.00  0.00    +0.000 A 
ATOM     26  N   UNL     1       2.712   8.337  17.212  0.00  0.00    +0.000 NA
ATOM     27  C   UNL     1       2.109   9.384  17.833  0.00  0.00    +0.000 A 
ENDBRANCH  13  22
TORSDOF 2
ENDMDL
