MODEL 1
REMARK VINA RESULT:      -8.5      0.000      0.000
REMARK  Name = 
REMARK  2 active torsions:
REMARK  status: ('A' for Active; 'I' for Inactive)
REMARK    1  A    between atoms: C_1  and  N_2
REMARK    2  A    between atoms: C_8  and  C_9
REMARK                            x       y       z     vdW  Elec       q    Type
REMARK                         _______ _______ _______ _____ _____    ______ ____
ROOT
ATOM      1  C   UNL     1       1.478   8.895  18.961  0.00  0.00    +0.000 C 
ATOM      2  O   UNL     1       1.137   9.569  17.991  0.00  0.00    +0.000 OA
ATOM      3  N   UNL     1       1.105   9.154  20.262  0.00  0.00    +0.000 N 
ATOM      4  C   UNL     1       0.338  10.252  20.559  0.00  0.00    +0.000 A 
ATOM      5  N   UNL     1       0.505  10.991  21.627  0.00  0.00    +0.000 NA
ATOM      6  C   UNL     1      -0.395  12.020  21.497  0.00  0.00    +0.000 A 
ATOM      7  C   UNL     1      -0.555  13.173  22.277  0.00  0.00    +0.000 A 
ATOM      8  C   UNL     1      -1.600  14.051  21.973  0.00  0.00    +0.000 A 
ATOM      9  C   UNL     1      -2.484  13.774  20.926  0.00  0.00    +0.000 A 
ATOM     10  C   UNL     1      -2.319  12.646  20.111  0.00  0.00    +0.000 A 
ATOM     11  C   UNL     1      -1.238  11.812  20.408  0.00  0.00    +0.000 A 
ATOM     12  N   UNL     1      -0.714  10.701  19.797  0.00  0.00    +0.000 N 
ATOM     13  H   UNL     1       1.688   8.846  21.029  0.00  0.00    +0.000 HD
ATOM     14  H   UNL     1      -1.031  10.274  18.937  0.00  0.00    +0.000 HD
ENDROOT
BRANCH   1  22
ATOM     15  C   UNL     1       6.809   4.447  16.305  0.00  0.00    +0.000 C 
ATOM     16  N   UNL     1       5.737   5.090  17.023  0.00  0.00    +0.000 N 
ATOM     17  C   UNL     1       5.227   4.656  18.215  0.00  0.00    +0.000 C 
ATOM     18  O   UNL     1       5.537   3.701  18.893  0.00  0.00    +0.000 OA
ATOM     19  C   UNL     1       4.166   5.603  18.572  0.00  0.00    +0.000 A 
ATOM     20  C   UNL     1       3.344   5.653  19.674  0.00  0.00    +0.000 A 
ATOM     21  C   UNL     1       2.447   6.728  19.757  0.00  0.00    +0.000 A 
ATOM     22  C   UNL     1       2.387   7.725  18.746  0.00  0.00    +0.000 A 
ATOM     23  C   UNL     1       3.224   7.631  17.624  0.00  0.00    +0.000 A 
ATOM     24  C   UNL     1       4.101   6.559  17.576  0.00  0.00    +0.000 A 
ATOM     25  C   UNL     1       5.114   6.213  16.578  0.00  0.00    +0.000 C 
ATOM     26  O   UNL     1       5.310   6.861  15.569  0.00  0.00    +0.000 OA
ENDBRANCH   1  22
TORSDOF 1
ENDMDL
MODEL 2
REMARK VINA RESULT:      -8.4      2.299      8.955
REMARK  Name = 
REMARK  2 active torsions:
REMARK  status: ('A' for Active; 'I' for Inactive)
REMARK    1  A    between atoms: C_1  and  N_2
REMARK    2  A    between atoms: C_8  and  C_9
REMARK                            x       y       z     vdW  Elec       q    Type
REMARK                         _______ _______ _______ _____ _____    ______ ____
ROOT
ATOM      1  C   UNL     1       1.708   8.986  18.273  0.00  0.00    +0.000 C 
ATOM      2  O   UNL     1       2.216   9.451  17.255  0.00  0.00    +0.000 OA
ATOM      3  N   UNL     1       2.036   7.765  18.821  0.00  0.00    +0.000 N 
ATOM      4  C   UNL     1       2.955   6.951  18.206  0.00  0.00    +0.000 A 
ATOM      5  N   UNL     1       2.844   5.648  18.139  0.00  0.00    +0.000 NA
ATOM      6  C   UNL     1       3.908   5.236  17.375  0.00  0.00    +0.000 A 
ATOM      7  C   UNL     1       4.207   3.964  16.869  0.00  0.00    +0.000 A 
ATOM      8  C   UNL     1       5.400   3.786  16.161  0.00  0.00    +0.000 A 
ATOM      9  C   UNL     1       6.290   4.848  15.981  0.00  0.00    +0.000 A 
ATOM     10  C   UNL     1       5.993   6.136  16.447  0.00  0.00    +0.000 A 
ATOM     11  C   UNL     1       4.772   6.296  17.109  0.00  0.00    +0.000 A 
ATOM     12  N   UNL     1       4.112   7.390  17.608  0.00  0.00    +0.000 N 
ATOM     13  H   UNL     1       1.364   7.264  19.386  0.00  0.00    +0.000 HD
ATOM     14  H   UNL     1       4.407   8.355  17.554  0.00  0.00    +0.000 HD
ENDROOT
BRANCH   1  22
ATOM     15  C   UNL     1      -2.287  12.467  23.486  0.00  0.00    +0.000 C 
ATOM     16  N   UNL     1      -1.720  11.901  22.288  0.00  0.00    +0.000 N 
ATOM     17  C   UNL     1      -2.128  12.200  21.017  0.00  0.00    +0.000 C 
ATOM     18  O   UNL     1      -2.995  12.954  20.635  0.00  0.00    +0.000 OA
ATOM     19  C   UNL     1      -1.283  11.404  20.121  0.00  0.00    +0.000 A 
ATOM     20  C   UNL     1      -1.252  11.334  18.747  0.00  0.00    +0.000 A 
ATOM     21  C   UNL     1      -0.280  10.504  18.170  0.00  0.00    +0.000 A 
ATOM     22  C   UNL     1       0.634   9.764  18.968  0.00  0.00    +0.000 A 
ATOM     23  C   UNL     1       0.560   9.842  20.366  0.00  0.00    +0.000 A 
ATOM     24  C   UNL     1      -0.409  10.674  20.903  0.00  0.00    +0.000 A 
ATOM     25  C   UNL     1      -0.705  10.997  22.299  0.00  0.00    +0.000 C 
ATOM     26  O   UNL     1      -0.109  10.515  23.242  0.00  0.00    +0.000 OA
ENDBRANCH   1  22
TORSDOF 1
ENDMDL
MODEL 3
REMARK VINA RESULT:      -8.1      2.815      8.929
REMARK  Name = 
REMARK  2 active torsions:
REMARK  status: ('A' for Active; 'I' for Inactive)
REMARK    1  A    between atoms: C_1  and  N_2
REMARK    2  A    between atoms: C_8  and  C_9
REMARK                            x       y       z     vdW  Elec       q    Type
REMARK                         _______ _______ _______ _____ _____    ______ ____
ROOT
ATOM      1  C   UNL     1       1.404   8.247  20.507  0.00  0.00    +0.000 C 
ATOM      2  O   UNL     1       1.913   8.411  19.400  0.00  0.00    +0.000 OA
ATOM      3  N   UNL     1       1.354   7.042  21.172  0.00  0.00    +0.000 N 
ATOM      4  C   UNL     1       1.851   5.904  20.587  0.00  0.00    +0.000 A 
ATOM      5  N   UNL     1       1.289   4.726  20.692  0.00  0.00    +0.000 NA
ATOM      6  C   UNL     1       2.042   3.896  19.898  0.00  0.00    +0.000 A 
ATOM      7  C   UNL     1       1.818   2.563  19.530  0.00  0.00    +0.000 A 
ATOM      8  C   UNL     1       2.778   1.910  18.751  0.00  0.00    +0.000 A 
ATOM      9  C   UNL     1       3.951   2.564  18.366  0.00  0.00    +0.000 A 
ATOM     10  C   UNL     1       4.178   3.908  18.693  0.00  0.00    +0.000 A 
ATOM     11  C   UNL     1       3.179   4.550  19.431  0.00  0.00    +0.000 A 
ATOM     12  N   UNL     1       3.005   5.847  19.844  0.00  0.00    +0.000 N 
ATOM     13  H   UNL     1       0.625   6.865  21.850  0.00  0.00    +0.000 HD
ATOM     14  H   UNL     1       3.608   6.634  19.646  0.00  0.00    +0.000 HD
ENDROOT
BRANCH   1  22
ATOM     15  C   UNL     1      -1.237  15.043  21.953  0.00  0.00    +0.000 C 
ATOM     16  N   UNL     1      -0.850  13.655  21.937  0.00  0.00    +0.000 N 
ATOM     17  C   UNL     1      -1.293  12.712  22.824  0.00  0.00    +0.000 C 
ATOM     18  O   UNL     1      -2.057  12.820  23.757  0.00  0.00    +0.000 OA
ATOM     19  C   UNL     1      -0.648  11.454  22.434  0.00  0.00    +0.000 A 
ATOM     20  C   UNL     1      -0.754  10.191  22.969  0.00  0.00    +0.000 A 
ATOM     21  C   UNL     1      -0.041   9.164  22.334  0.00  0.00    +0.000 A 
ATOM     22  C   UNL     1       0.760   9.415  21.188  0.00  0.00    +0.000 A 
ATOM     23  C   UNL     1       0.864  10.719  20.682  0.00  0.00    +0.000 A 
ATOM     24  C   UNL     1       0.143  11.708  21.331  0.00  0.00    +0.000 A 
ATOM     25  C   UNL     1       0.011  13.133  21.024  0.00  0.00    +0.000 C 
ATOM     26  O   UNL     1       0.587  13.678  20.103  0.00  0.00    +0.000 OA
ENDBRANCH   1  22
TORSDOF 1
ENDMDL
MODEL 4
REMARK VINA RESULT:      -8.0      2.514      8.824
REMARK  Name = 
REMARK  2 active torsions:
REMARK  status: ('A' for Active; 'I' for Inactive)
REMARK    1  A    between atoms: C_1  and  N_2
REMARK    2  A    between atoms: C_8  and  C_9
REMARK                            x       y       z     vdW  Elec       q    Type
REMARK                         _______ _______ _______ _____ _____    ______ ____
ROOT
ATOM      1  C   UNL     1       1.402   8.123  20.283  0.00  0.00    +0.000 C 
ATOM      2  O   UNL     1       1.643   7.115  20.943  0.00  0.00    +0.000 OA
ATOM      3  N   UNL     1       1.832   8.332  18.991  0.00  0.00    +0.000 N 
ATOM      4  C   UNL     1       2.626   7.404  18.364  0.00  0.00    +0.000 A 
ATOM      5  N   UNL     1       3.621   7.713  17.571  0.00  0.00    +0.000 NA
ATOM      6  C   UNL     1       4.198   6.513  17.234  0.00  0.00    +0.000 A 
ATOM      7  C   UNL     1       5.377   6.256  16.522  0.00  0.00    +0.000 A 
ATOM      8  C   UNL     1       5.722   4.928  16.251  0.00  0.00    +0.000 A 
ATOM      9  C   UNL     1       4.897   3.877  16.660  0.00  0.00    +0.000 A 
ATOM     10  C   UNL     1       3.732   4.111  17.404  0.00  0.00    +0.000 A 
ATOM     11  C   UNL     1       3.437   5.445  17.702  0.00  0.00    +0.000 A 
ATOM     12  N   UNL     1       2.466   6.043  18.465  0.00  0.00    +0.000 N 
ATOM     13  H   UNL     1       1.954   9.273  18.641  0.00  0.00    +0.000 HD
ATOM     14  H   UNL     1       1.753   5.581  19.012  0.00  0.00    +0.000 HD
ENDROOT
BRANCH   1  22
ATOM     15  C   UNL     1      -2.948  14.072  21.253  0.00  0.00    +0.000 C 
ATOM     16  N   UNL     1      -2.112  12.904  21.365  0.00  0.00    +0.000 N 
ATOM     17  C   UNL     1      -1.906  12.201  22.520  0.00  0.00    +0.000 C 
ATOM     18  O   UNL     1      -2.347  12.386  23.633  0.00  0.00    +0.000 OA
ATOM     19  C   UNL     1      -0.998  11.103  22.172  0.00  0.00    +0.000 A 
ATOM     20  C   UNL     1      -0.483  10.088  22.945  0.00  0.00    +0.000 A 
ATOM     21  C   UNL     1       0.330   9.144  22.303  0.00  0.00    +0.000 A 
ATOM     22  C   UNL     1       0.613   9.229  20.913  0.00  0.00    +0.000 A 
ATOM     23  C   UNL     1       0.089  10.290  20.159  0.00  0.00    +0.000 A 
ATOM     24  C   UNL     1      -0.714  11.202  20.824  0.00  0.00    +0.000 A 
ATOM     25  C   UNL     1      -1.431  12.372  20.316  0.00  0.00    +0.000 C 
ATOM     26  O   UNL     1      -1.387  12.736  19.157  0.00  0.00    +0.000 OA
ENDBRANCH   1  22
TORSDOF 1
ENDMDL
MODEL 5
REMARK VINA RESULT:      -8.0      1.797      2.887
REMARK  Name = 
REMARK  2 active torsions:
REMARK  status: ('A' for Active; 'I' for Inactive)
REMARK    1  A    between atoms: C_1  and  N_2
REMARK    2  A    between atoms: C_8  and  C_9
REMARK                            x       y       z     vdW  Elec       q    Type
REMARK                         _______ _______ _______ _____ _____    ______ ____
ROOT
ATOM      1  C   UNL     1       1.435   8.268  20.362  0.00  0.00    +0.000 C 
ATOM      2  O   UNL     1       1.267   8.234  21.578  0.00  0.00    +0.000 OA
ATOM      3  N   UNL     1       0.982   9.277  19.539  0.00  0.00    +0.000 N 
ATOM      4  C   UNL     1       0.249  10.316  20.054  0.00  0.00    +0.000 A 
ATOM      5  N   UNL     1      -0.770  10.863  19.439  0.00  0.00    +0.000 NA
ATOM      6  C   UNL     1      -1.267  11.790  20.323  0.00  0.00    +0.000 A 
ATOM      7  C   UNL     1      -2.430  12.566  20.245  0.00  0.00    +0.000 A 
ATOM      8  C   UNL     1      -2.687  13.496  21.258  0.00  0.00    +0.000 A 
ATOM      9  C   UNL     1      -1.790  13.667  22.315  0.00  0.00    +0.000 A 
ATOM     10  C   UNL     1      -0.638  12.876  22.430  0.00  0.00    +0.000 A 
ATOM     11  C   UNL     1      -0.432  11.922  21.430  0.00  0.00    +0.000 A 
ATOM     12  N   UNL     1       0.501  10.931  21.256  0.00  0.00    +0.000 N 
ATOM     13  H   UNL     1       0.795   9.091  18.563  0.00  0.00    +0.000 HD
ATOM     14  H   UNL     1       1.248  10.682  21.890  0.00  0.00    +0.000 HD
ENDROOT
BRANCH   1  22
ATOM     15  C   UNL     1       3.712   1.448  18.478  0.00  0.00    +0.000 C 
ATOM     16  N   UNL     1       3.448   2.857  18.616  0.00  0.00    +0.000 N 
ATOM     17  C   UNL     1       3.836   3.815  17.720  0.00  0.00    +0.000 C 
ATOM     18  O   UNL     1       4.448   3.705  16.680  0.00  0.00    +0.000 OA
ATOM     19  C   UNL     1       3.358   5.092  18.257  0.00  0.00    +0.000 A 
ATOM     20  C   UNL     1       3.456   6.369  17.752  0.00  0.00    +0.000 A 
ATOM     21  C   UNL     1       2.844   7.396  18.484  0.00  0.00    +0.000 A 
ATOM     22  C   UNL     1       2.152   7.133  19.697  0.00  0.00    +0.000 A 
ATOM     23  C   UNL     1       2.090   5.823  20.195  0.00  0.00    +0.000 A 
ATOM     24  C   UNL     1       2.702   4.832  19.444  0.00  0.00    +0.000 A 
ATOM     25  C   UNL     1       2.773   3.388  19.670  0.00  0.00    +0.000 C 
ATOM     26  O   UNL     1       2.288   2.835  20.637  0.00  0.00    +0.000 OA
ENDBRANCH   1  22
TORSDOF 1
ENDMDL
MODEL 6
REMARK VINA RESULT:      -8.0      1.326      2.329
REMARK  Name = 
REMARK  2 active torsions:
REMARK  status: ('A' for Active; 'I' for Inactive)
REMARK    1  A    between atoms: C_1  and  N_2
REMARK    2  A    between atoms: C_8  and  C_9
REMARK                            x       y       z     vdW  Elec       q    Type
REMARK                         _______ _______ _______ _____ _____    ______ ____
ROOT
ATOM      1  C   UNL     1       1.390   8.957  19.210  0.00  0.00    +0.000 C 
ATOM      2  O   UNL     1       1.201   9.741  18.283  0.00  0.00    +0.000 OA
ATOM      3  N   UNL     1       0.881   9.114  20.481  0.00  0.00    +0.000 N 
ATOM      4  C   UNL     1       0.142  10.225  20.801  0.00  0.00    +0.000 A 
ATOM      5  N   UNL     1       0.221  10.846  21.951  0.00  0.00    +0.000 NA
ATOM      6  C   UNL     1      -0.602  11.938  21.827  0.00  0.00    +0.000 A 
ATOM      7  C   UNL     1      -0.793  13.018  22.699  0.00  0.00    +0.000 A 
ATOM      8  C   UNL     1      -1.747  13.987  22.371  0.00  0.00    +0.000 A 
ATOM      9  C   UNL     1      -2.515  13.868  21.209  0.00  0.00    +0.000 A 
ATOM     10  C   UNL     1      -2.315  12.815  20.307  0.00  0.00    +0.000 A 
ATOM     11  C   UNL     1      -1.321  11.889  20.636  0.00  0.00    +0.000 A 
ATOM     12  N   UNL     1      -0.788  10.810  19.976  0.00  0.00    +0.000 N 
ATOM     13  H   UNL     1       1.352   8.698  21.272  0.00  0.00    +0.000 HD
ATOM     14  H   UNL     1      -1.023  10.490  19.047  0.00  0.00    +0.000 HD
ENDROOT
BRANCH   1  22
ATOM     15  C   UNL     1       4.306   2.132  19.610  0.00  0.00    +0.000 C 
ATOM     16  N   UNL     1       3.940   3.493  19.311  0.00  0.00    +0.000 N 
ATOM     17  C   UNL     1       4.385   4.199  18.227  0.00  0.00    +0.000 C 
ATOM     18  O   UNL     1       5.133   3.866  17.335  0.00  0.00    +0.000 OA
ATOM     19  C   UNL     1       3.763   5.523  18.322  0.00  0.00    +0.000 A 
ATOM     20  C   UNL     1       3.849   6.614  17.488  0.00  0.00    +0.000 A 
ATOM     21  C   UNL     1       3.084   7.740  17.825  0.00  0.00    +0.000 A 
ATOM     22  C   UNL     1       2.255   7.757  18.979  0.00  0.00    +0.000 A 
ATOM     23  C   UNL     1       2.209   6.635  19.820  0.00  0.00    +0.000 A 
ATOM     24  C   UNL     1       2.973   5.539  19.455  0.00  0.00    +0.000 A 
ATOM     25  C   UNL     1       3.101   4.226  20.089  0.00  0.00    +0.000 C 
ATOM     26  O   UNL     1       2.528   3.917  21.115  0.00  0.00    +0.000 OA
ENDBRANCH   1  22
TORSDOF 1
ENDMDL
MODEL 7
REMARK VINA RESULT:      -8.0      2.423      8.939
REMARK  Name = 
REMARK  2 active torsions:
REMARK  status: ('A' for Active; 'I' for Inactive)
REMARK    1  A    between atoms: C_1  and  N_2
REMARK    2  A    between atoms: C_8  and  C_9
REMARK                            x       y       z     vdW  Elec       q    Type
REMARK                         _______ _______ _______ _____ _____    ______ ____
ROOT
ATOM      1  C   UNL     1       1.503   9.291  18.515  0.00  0.00    +0.000 C 
ATOM      2  O   UNL     1       1.844   9.607  17.377  0.00  0.00    +0.000 OA
ATOM      3  N   UNL     1       1.894   8.135  19.155  0.00  0.00    +0.000 N 
ATOM      4  C   UNL     1       2.683   7.217  18.509  0.00  0.00    +0.000 A 
ATOM      5  N   UNL     1       2.539   5.920  18.628  0.00  0.00    +0.000 NA
ATOM      6  C   UNL     1       3.454   5.376  17.762  0.00  0.00    +0.000 A 
ATOM      7  C   UNL     1       3.642   4.041  17.382  0.00  0.00    +0.000 A 
ATOM      8  C   UNL     1       4.698   3.729  16.519  0.00  0.00    +0.000 A 
ATOM      9  C   UNL     1       5.566   4.726  16.063  0.00  0.00    +0.000 A 
ATOM     10  C   UNL     1       5.374   6.072  16.403  0.00  0.00    +0.000 A 
ATOM     11  C   UNL     1       4.282   6.360  17.227  0.00  0.00    +0.000 A 
ATOM     12  N   UNL     1       3.733   7.532  17.682  0.00  0.00    +0.000 N 
ATOM     13  H   UNL     1       1.314   7.735  19.880  0.00  0.00    +0.000 HD
ATOM     14  H   UNL     1       4.034   8.471  17.457  0.00  0.00    +0.000 HD
ENDROOT
BRANCH   1  22
ATOM     15  C   UNL     1      -4.472  13.221  20.544  0.00  0.00    +0.000 C 
ATOM     16  N   UNL     1      -3.202  12.552  20.414  0.00  0.00    +0.000 N 
ATOM     17  C   UNL     1      -2.277  12.436  21.414  0.00  0.00    +0.000 C 
ATOM     18  O   UNL     1      -2.309  12.840  22.556  0.00  0.00    +0.000 OA
ATOM     19  C   UNL     1      -1.153  11.687  20.843  0.00  0.00    +0.000 A 
ATOM     20  C   UNL     1       0.030  11.274  21.413  0.00  0.00    +0.000 A 
ATOM     21  C   UNL     1       0.898  10.518  20.612  0.00  0.00    +0.000 A 
ATOM     22  C   UNL     1       0.572  10.191  19.268  0.00  0.00    +0.000 A 
ATOM     23  C   UNL     1      -0.632  10.647  18.711  0.00  0.00    +0.000 A 
ATOM     24  C   UNL     1      -1.467  11.388  19.532  0.00  0.00    +0.000 A 
ATOM     25  C   UNL     1      -2.789  11.957  19.264  0.00  0.00    +0.000 C 
ATOM     26  O   UNL     1      -3.353  11.869  18.191  0.00  0.00    +0.000 OA
ENDBRANCH   1  22
TORSDOF 1
ENDMDL
MODEL 8
REMARK VINA RESULT:      -7.9      1.716      2.397
REMARK  Name = 
REMARK  2 active torsions:
REMARK  status: ('A' for Active; 'I' for Inactive)
REMARK    1  A    between atoms: C_1  and  N_2
REMARK    2  A    between atoms: C_8  and  C_9
REMARK                            x       y       z     vdW  Elec       q    Type
REMARK                         _______ _______ _______ _____ _____    ______ ____
ROOT
ATOM      1  C   UNL     1       2.045   8.817  18.317  0.00  0.00    +0.000 C 
ATOM      2  O   UNL     1       2.161   9.701  17.471  0.00  0.00    +0.000 OA
ATOM      3  N   UNL     1       1.337   8.948  19.491  0.00  0.00    +0.000 N 
ATOM      4  C   UNL     1       0.736  10.140  19.811  0.00  0.00    +0.000 A 
ATOM      5  N   UNL     1       0.694  10.633  21.024  0.00  0.00    +0.000 NA
ATOM      6  C   UNL     1       0.093  11.860  20.893  0.00  0.00    +0.000 A 
ATOM      7  C   UNL     1      -0.085  12.875  21.842  0.00  0.00    +0.000 A 
ATOM      8  C   UNL     1      -0.796  14.023  21.474  0.00  0.00    +0.000 A 
ATOM      9  C   UNL     1      -1.339  14.146  20.192  0.00  0.00    +0.000 A 
ATOM     10  C   UNL     1      -1.142  13.158  19.217  0.00  0.00    +0.000 A 
ATOM     11  C   UNL     1      -0.387  12.045  19.599  0.00  0.00    +0.000 A 
ATOM     12  N   UNL     1       0.083  10.952  18.915  0.00  0.00    +0.000 N 
ATOM     13  H   UNL     1       1.578   8.386  20.296  0.00  0.00    +0.000 HD
ATOM     14  H   UNL     1      -0.020  10.762  17.928  0.00  0.00    +0.000 HD
ENDROOT
BRANCH   1  22
ATOM     15  C   UNL     1       3.570   1.545  18.110  0.00  0.00    +0.000 C 
ATOM     16  N   UNL     1       3.536   2.982  18.005  0.00  0.00    +0.000 N 
ATOM     17  C   UNL     1       4.401   3.728  17.254  0.00  0.00    +0.000 C 
ATOM     18  O   UNL     1       5.328   3.378  16.556  0.00  0.00    +0.000 OA
ATOM     19  C   UNL     1       4.000   5.126  17.441  0.00  0.00    +0.000 A 
ATOM     20  C   UNL     1       4.513   6.284  16.904  0.00  0.00    +0.000 A 
ATOM     21  C   UNL     1       3.870   7.485  17.238  0.00  0.00    +0.000 A 
ATOM     22  C   UNL     1       2.737   7.508  18.095  0.00  0.00    +0.000 A 
ATOM     23  C   UNL     1       2.254   6.310  18.643  0.00  0.00    +0.000 A 
ATOM     24  C   UNL     1       2.910   5.143  18.289  0.00  0.00    +0.000 A 
ATOM     25  C   UNL     1       2.624   3.754  18.652  0.00  0.00    +0.000 C 
ATOM     26  O   UNL     1       1.719   3.426  19.394  0.00  0.00    +0.000 OA
ENDBRANCH   1  22
TORSDOF 1
ENDMDL
MODEL 9
REMARK VINA RESULT:      -7.9      2.233      8.836
REMARK  Name = 
REMARK  2 active torsions:
REMARK  status: ('A' for Active; 'I' for Inactive)
REMARK    1  A    between atoms: C_1  and  N_2
REMARK    2  A    between atoms: C_8  and  C_9
REMARK                            x       y       z     vdW  Elec       q    Type
REMARK                         _______ _______ _______ _____ _____    ______ ____
ROOT
ATOM      1  C   UNL     1       1.952   8.613  18.643  0.00  0.00    +0.000 C 
ATOM      2  O   UNL     1       1.973   8.976  17.469  0.00  0.00    +0.000 OA
ATOM      3  N   UNL     1       2.629   7.518  19.134  0.00  0.00    +0.000 N 
ATOM      4  C   UNL     1       3.358   6.716  18.291  0.00  0.00    +0.000 A 
ATOM      5  N   UNL     1       3.416   5.412  18.395  0.00  0.00    +0.000 NA
ATOM      6  C   UNL     1       4.165   4.999  17.321  0.00  0.00    +0.000 A 
ATOM      7  C   UNL     1       4.431   3.702  16.861  0.00  0.00    +0.000 A 
ATOM      8  C   UNL     1       5.286   3.539  15.767  0.00  0.00    +0.000 A 
ATOM      9  C   UNL     1       5.885   4.645  15.157  0.00  0.00    +0.000 A 
ATOM     10  C   UNL     1       5.605   5.952  15.579  0.00  0.00    +0.000 A 
ATOM     11  C   UNL     1       4.709   6.087  16.643  0.00  0.00    +0.000 A 
ATOM     12  N   UNL     1       4.134   7.173  17.254  0.00  0.00    +0.000 N 
ATOM     13  H   UNL     1       2.294   7.040  19.959  0.00  0.00    +0.000 HD
ATOM     14  H   UNL     1       4.249   8.145  16.999  0.00  0.00    +0.000 HD
ENDROOT
BRANCH   1  22
ATOM     15  C   UNL     1      -2.987  13.312  21.606  0.00  0.00    +0.000 C 
ATOM     16  N   UNL     1      -1.993  12.309  21.315  0.00  0.00    +0.000 N 
ATOM     17  C   UNL     1      -1.536  11.383  22.212  0.00  0.00    +0.000 C 
ATOM     18  O   UNL     1      -1.841  11.205  23.370  0.00  0.00    +0.000 OA
ATOM     19  C   UNL     1      -0.546  10.576  21.492  0.00  0.00    +0.000 A 
ATOM     20  C   UNL     1       0.205   9.500  21.908  0.00  0.00    +0.000 A 
ATOM     21  C   UNL     1       1.042   8.897  20.958  0.00  0.00    +0.000 A 
ATOM     22  C   UNL     1       1.115   9.376  19.622  0.00  0.00    +0.000 A 
ATOM     23  C   UNL     1       0.353  10.490  19.238  0.00  0.00    +0.000 A 
ATOM     24  C   UNL     1      -0.466  11.058  20.200  0.00  0.00    +0.000 A 
ATOM     25  C   UNL     1      -1.399  12.181  20.100  0.00  0.00    +0.000 C 
ATOM     26  O   UNL     1      -1.564  12.828  19.084  0.00  0.00    +0.000 OA
ENDBRANCH   1  22
TORSDOF 1
ENDMDL
