MODEL 1
REMARK VINA RESULT:      -9.1      0.000      0.000
REMARK  Name = 
REMARK  4 active torsions:
REMARK  status: ('A' for Active; 'I' for Inactive)
REMARK    1  A    between atoms: C_1  and  N_2
REMARK    2  A    between atoms: C_7  and  C_8
REMARK    3  A    between atoms: C_12  and  C_13
REMARK    4  A    between atoms: N_19  and  C_20
REMARK                            x       y       z     vdW  Elec       q    Type
REMARK                         _______ _______ _______ _____ _____    ______ ____
ROOT
ATOM      1  C   UNL     1       4.006   5.542  17.933  0.00  0.00    +0.000 A 
ATOM      2  C   UNL     1       3.513   6.845  18.003  0.00  0.00    +0.000 A 
ATOM      3  C   UNL     1       2.601   7.123  19.001  0.00  0.00    +0.000 A 
ATOM      4  C   UNL     1       2.139   6.174  19.909  0.00  0.00    +0.000 A 
ATOM      5  C   UNL     1       2.588   4.858  19.836  0.00  0.00    +0.000 A 
ATOM      6  C   UNL     1       3.536   4.559  18.835  0.00  0.00    +0.000 A 
ATOM      7  C   UNL     1       1.180   6.826  20.857  0.00  0.00    +0.000 C 
ATOM      8  N   UNL     1       1.151   8.213  20.414  0.00  0.00    +0.000 N 
ATOM      9  C   UNL     1       1.979   8.412  19.306  0.00  0.00    +0.000 C 
ATOM     10  O   UNL     1       2.206   9.405  18.640  0.00  0.00    +0.000 OA
ENDROOT
BRANCH   1  17
ATOM     11  C   UNL     1       6.843   5.881  18.523  0.00  0.00    +0.000 C 
ATOM     12  N   UNL     1       6.388   5.250  17.279  0.00  0.00    +0.000 N 
ATOM     13  C   UNL     1       7.322   4.753  16.375  0.00  0.00    +0.000 C 
ATOM     14  C   UNL     1       7.007   4.323  15.145  0.00  0.00    +0.000 C 
ATOM     15  C   UNL     1       5.591   4.380  14.648  0.00  0.00    +0.000 C 
ATOM     16  C   UNL     1       4.611   4.794  15.714  0.00  0.00    +0.000 C 
ATOM     17  C   UNL     1       5.027   5.192  16.932  0.00  0.00    +0.000 C 
ENDBRANCH   1  17
BRANCH   8  18
ATOM     18  C   UNL     1       0.369   9.211  21.055  0.00  0.00    +0.000 A 
ATOM     19  C   UNL     1       0.128   9.174  22.438  0.00  0.00    +0.000 A 
ATOM     20  C   UNL     1      -0.635  10.160  23.075  0.00  0.00    +0.000 A 
ATOM     21  C   UNL     1      -1.166  11.207  22.339  0.00  0.00    +0.000 A 
ATOM     22  C   UNL     1      -0.940  11.251  20.968  0.00  0.00    +0.000 A 
ATOM     23  F   UNL     1      -1.445  12.262  20.253  0.00  0.00    +0.000 F 
ATOM     24  C   UNL     1      -0.193  10.266  20.324  0.00  0.00    +0.000 A 
ENDBRANCH   8  18
BRANCH   5  25
ATOM     25  C   UNL     1       2.108   3.771  20.760  0.00  0.00    +0.000 C 
ATOM     26  F   UNL     1       2.626   2.545  20.472  0.00  0.00    +0.000 F 
ATOM     27  F   UNL     1       2.431   4.015  22.059  0.00  0.00    +0.000 F 
ATOM     28  F   UNL     1       0.756   3.619  20.728  0.00  0.00    +0.000 F 
ENDBRANCH   5  25
TORSDOF 3
ENDMDL
MODEL 2
REMARK VINA RESULT:      -8.7      0.997      1.489
REMARK  Name = 
REMARK  4 active torsions:
REMARK  status: ('A' for Active; 'I' for Inactive)
REMARK    1  A    between atoms: C_1  and  N_2
REMARK    2  A    between atoms: C_7  and  C_8
REMARK    3  A    between atoms: C_12  and  C_13
REMARK    4  A    between atoms: N_19  and  C_20
REMARK                            x       y       z     vdW  Elec       q    Type
REMARK                         _______ _______ _______ _____ _____    ______ ____
ROOT
ATOM      1  C   UNL     1       4.196   5.625  17.437  0.00  0.00    +0.000 A 
ATOM      2  C   UNL     1       3.655   6.910  17.460  0.00  0.00    +0.000 A 
ATOM      3  C   UNL     1       2.785   7.213  18.489  0.00  0.00    +0.000 A 
ATOM      4  C   UNL     1       2.411   6.302  19.474  0.00  0.00    +0.000 A 
ATOM      5  C   UNL     1       2.907   5.002  19.451  0.00  0.00    +0.000 A 
ATOM      6  C   UNL     1       3.813   4.680  18.418  0.00  0.00    +0.000 A 
ATOM      7  C   UNL     1       1.477   6.973  20.433  0.00  0.00    +0.000 C 
ATOM      8  N   UNL     1       1.369   8.329  19.914  0.00  0.00    +0.000 N 
ATOM      9  C   UNL     1       2.129   8.494  18.754  0.00  0.00    +0.000 C 
ATOM     10  O   UNL     1       2.281   9.453  18.021  0.00  0.00    +0.000 OA
ENDROOT
BRANCH   1  17
ATOM     11  C   UNL     1       6.970   6.506  17.638  0.00  0.00    +0.000 C 
ATOM     12  N   UNL     1       6.530   5.587  16.581  0.00  0.00    +0.000 N 
ATOM     13  C   UNL     1       7.458   5.079  15.678  0.00  0.00    +0.000 C 
ATOM     14  C   UNL     1       7.123   4.381  14.584  0.00  0.00    +0.000 C 
ATOM     15  C   UNL     1       5.682   4.123  14.246  0.00  0.00    +0.000 C 
ATOM     16  C   UNL     1       4.737   4.573  15.328  0.00  0.00    +0.000 C 
ATOM     17  C   UNL     1       5.176   5.255  16.404  0.00  0.00    +0.000 C 
ENDBRANCH   1  17
BRANCH   8  18
ATOM     18  C   UNL     1       0.582   9.334  20.539  0.00  0.00    +0.000 A 
ATOM     19  C   UNL     1       0.041  10.402  19.804  0.00  0.00    +0.000 A 
ATOM     20  C   UNL     1      -0.741  11.388  20.415  0.00  0.00    +0.000 A 
ATOM     21  C   UNL     1      -1.005  11.321  21.774  0.00  0.00    +0.000 A 
ATOM     22  C   UNL     1      -0.469  10.273  22.513  0.00  0.00    +0.000 A 
ATOM     23  F   UNL     1      -0.724  10.198  23.825  0.00  0.00    +0.000 F 
ATOM     24  C   UNL     1       0.323   9.293  21.915  0.00  0.00    +0.000 A 
ENDBRANCH   8  18
BRANCH   5  25
ATOM     25  C   UNL     1       2.520   3.955  20.460  0.00  0.00    +0.000 C 
ATOM     26  F   UNL     1       1.251   3.486  20.297  0.00  0.00    +0.000 F 
ATOM     27  F   UNL     1       3.328   2.862  20.411  0.00  0.00    +0.000 F 
ATOM     28  F   UNL     1       2.583   4.415  21.739  0.00  0.00    +0.000 F 
ENDBRANCH   5  25
TORSDOF 3
ENDMDL
MODEL 3
REMARK VINA RESULT:      -8.6      0.993      1.260
REMARK  Name = 
REMARK  4 active torsions:
REMARK  status: ('A' for Active; 'I' for Inactive)
REMARK    1  A    between atoms: C_1  and  N_2
REMARK    2  A    between atoms: C_7  and  C_8
REMARK    3  A    between atoms: C_12  and  C_13
REMARK    4  A    between atoms: N_19  and  C_20
REMARK                            x       y       z     vdW  Elec       q    Type
REMARK                         _______ _______ _______ _____ _____    ______ ____
ROOT
ATOM      1  C   UNL     1       4.111   5.924  17.552  0.00  0.00    +0.000 A 
ATOM      2  C   UNL     1       3.611   7.218  17.412  0.00  0.00    +0.000 A 
ATOM      3  C   UNL     1       2.684   7.643  18.343  0.00  0.00    +0.000 A 
ATOM      4  C   UNL     1       2.215   6.843  19.383  0.00  0.00    +0.000 A 
ATOM      5  C   UNL     1       2.671   5.535  19.521  0.00  0.00    +0.000 A 
ATOM      6  C   UNL     1       3.634   5.090  18.591  0.00  0.00    +0.000 A 
ATOM      7  C   UNL     1       1.240   7.629  20.204  0.00  0.00    +0.000 C 
ATOM      8  N   UNL     1       1.210   8.930  19.550  0.00  0.00    +0.000 N 
ATOM      9  C   UNL     1       2.052   8.960  18.435  0.00  0.00    +0.000 C 
ATOM     10  O   UNL     1       2.283   9.838  17.625  0.00  0.00    +0.000 OA
ENDROOT
BRANCH   1  17
ATOM     11  C   UNL     1       6.937   6.120  18.252  0.00  0.00    +0.000 C 
ATOM     12  N   UNL     1       6.492   5.424  17.038  0.00  0.00    +0.000 N 
ATOM     13  C   UNL     1       7.427   4.796  16.221  0.00  0.00    +0.000 C 
ATOM     14  C   UNL     1       7.137   4.292  15.013  0.00  0.00    +0.000 C 
ATOM     15  C   UNL     1       5.750   4.404  14.445  0.00  0.00    +0.000 C 
ATOM     16  C   UNL     1       4.757   4.965  15.429  0.00  0.00    +0.000 C 
ATOM     17  C   UNL     1       5.147   5.429  16.632  0.00  0.00    +0.000 C 
ENDBRANCH   1  17
BRANCH   8  18
ATOM     18  C   UNL     1       0.415  10.010  20.017  0.00  0.00    +0.000 A 
ATOM     19  C   UNL     1       0.697  10.653  21.234  0.00  0.00    +0.000 A 
ATOM     20  C   UNL     1      -0.079  11.723  21.694  0.00  0.00    +0.000 A 
ATOM     21  C   UNL     1      -1.150  12.176  20.940  0.00  0.00    +0.000 A 
ATOM     22  C   UNL     1      -1.444  11.543  19.739  0.00  0.00    +0.000 A 
ATOM     23  F   UNL     1      -2.474  11.978  19.003  0.00  0.00    +0.000 F 
ATOM     24  C   UNL     1      -0.685  10.467  19.280  0.00  0.00    +0.000 A 
ENDBRANCH   8  18
BRANCH   5  25
ATOM     25  C   UNL     1       2.183   4.603  20.598  0.00  0.00    +0.000 C 
ATOM     26  F   UNL     1       0.832   4.432  20.596  0.00  0.00    +0.000 F 
ATOM     27  F   UNL     1       2.716   3.357  20.485  0.00  0.00    +0.000 F 
ATOM     28  F   UNL     1       2.499   5.039  21.847  0.00  0.00    +0.000 F 
ENDBRANCH   5  25
TORSDOF 3
ENDMDL
MODEL 4
REMARK VINA RESULT:      -8.5      2.575      8.074
REMARK  Name = 
REMARK  4 active torsions:
REMARK  status: ('A' for Active; 'I' for Inactive)
REMARK    1  A    between atoms: C_1  and  N_2
REMARK    2  A    between atoms: C_7  and  C_8
REMARK    3  A    between atoms: C_12  and  C_13
REMARK    4  A    between atoms: N_19  and  C_20
REMARK                            x       y       z     vdW  Elec       q    Type
REMARK                         _______ _______ _______ _____ _____    ______ ____
ROOT
ATOM      1  C   UNL     1       2.573   6.822  18.997  0.00  0.00    +0.000 A 
ATOM      2  C   UNL     1       3.383   7.171  17.917  0.00  0.00    +0.000 A 
ATOM      3  C   UNL     1       3.923   6.141  17.172  0.00  0.00    +0.000 A 
ATOM      4  C   UNL     1       3.719   4.794  17.460  0.00  0.00    +0.000 A 
ATOM      5  C   UNL     1       2.945   4.421  18.555  0.00  0.00    +0.000 A 
ATOM      6  C   UNL     1       2.368   5.459  19.316  0.00  0.00    +0.000 A 
ATOM      7  C   UNL     1       4.433   3.960  16.440  0.00  0.00    +0.000 C 
ATOM      8  N   UNL     1       5.040   4.946  15.557  0.00  0.00    +0.000 N 
ATOM      9  C   UNL     1       4.760   6.249  15.977  0.00  0.00    +0.000 C 
ATOM     10  O   UNL     1       5.099   7.329  15.529  0.00  0.00    +0.000 OA
ENDROOT
BRANCH   1  17
ATOM     11  C   UNL     1       1.734   9.328  17.759  0.00  0.00    +0.000 C 
ATOM     12  N   UNL     1       1.413   9.016  19.158  0.00  0.00    +0.000 N 
ATOM     13  C   UNL     1       0.649   9.907  19.905  0.00  0.00    +0.000 C 
ATOM     14  C   UNL     1       0.457   9.791  21.227  0.00  0.00    +0.000 C 
ATOM     15  C   UNL     1       1.097   8.676  22.003  0.00  0.00    +0.000 C 
ATOM     16  C   UNL     1       1.792   7.671  21.122  0.00  0.00    +0.000 C 
ATOM     17  C   UNL     1       1.916   7.870  19.796  0.00  0.00    +0.000 C 
ENDBRANCH   1  17
BRANCH   8  18
ATOM     18  C   UNL     1       5.811   4.590  14.418  0.00  0.00    +0.000 A 
ATOM     19  C   UNL     1       7.070   5.166  14.177  0.00  0.00    +0.000 A 
ATOM     20  C   UNL     1       7.836   4.811  13.061  0.00  0.00    +0.000 A 
ATOM     21  C   UNL     1       7.359   3.866  12.167  0.00  0.00    +0.000 A 
ATOM     22  C   UNL     1       6.113   3.294  12.390  0.00  0.00    +0.000 A 
ATOM     23  F   UNL     1       5.649   2.376  11.534  0.00  0.00    +0.000 F 
ATOM     24  C   UNL     1       5.337   3.652  13.492  0.00  0.00    +0.000 A 
ENDBRANCH   8  18
BRANCH   5  25
ATOM     25  C   UNL     1       2.710   2.986  18.947  0.00  0.00    +0.000 C 
ATOM     26  F   UNL     1       1.842   2.843  19.987  0.00  0.00    +0.000 F 
ATOM     27  F   UNL     1       2.194   2.248  17.928  0.00  0.00    +0.000 F 
ATOM     28  F   UNL     1       3.854   2.356  19.330  0.00  0.00    +0.000 F 
ENDBRANCH   5  25
TORSDOF 3
ENDMDL
MODEL 5
REMARK VINA RESULT:      -8.5      2.596      8.010
REMARK  Name = 
REMARK  4 active torsions:
REMARK  status: ('A' for Active; 'I' for Inactive)
REMARK    1  A    between atoms: C_1  and  N_2
REMARK    2  A    between atoms: C_7  and  C_8
REMARK    3  A    between atoms: C_12  and  C_13
REMARK    4  A    between atoms: N_19  and  C_20
REMARK                            x       y       z     vdW  Elec       q    Type
REMARK                         _______ _______ _______ _____ _____    ______ ____
ROOT
ATOM      1  C   UNL     1       2.613   6.836  19.017  0.00  0.00    +0.000 A 
ATOM      2  C   UNL     1       3.383   7.202  17.913  0.00  0.00    +0.000 A 
ATOM      3  C   UNL     1       3.971   6.186  17.186  0.00  0.00    +0.000 A 
ATOM      4  C   UNL     1       3.853   4.838  17.513  0.00  0.00    +0.000 A 
ATOM      5  C   UNL     1       3.120   4.450  18.632  0.00  0.00    +0.000 A 
ATOM      6  C   UNL     1       2.496   5.473  19.376  0.00  0.00    +0.000 A 
ATOM      7  C   UNL     1       4.598   4.020  16.504  0.00  0.00    +0.000 C 
ATOM      8  N   UNL     1       5.131   5.016  15.584  0.00  0.00    +0.000 N 
ATOM      9  C   UNL     1       4.781   6.310  15.974  0.00  0.00    +0.000 C 
ATOM     10  O   UNL     1       5.047   7.396  15.492  0.00  0.00    +0.000 OA
ENDROOT
BRANCH   1  17
ATOM     11  C   UNL     1       1.815   9.356  17.781  0.00  0.00    +0.000 C 
ATOM     12  N   UNL     1       1.428   9.018  19.156  0.00  0.00    +0.000 N 
ATOM     13  C   UNL     1       0.619   9.889  19.879  0.00  0.00    +0.000 C 
ATOM     14  C   UNL     1       0.363   9.750  21.187  0.00  0.00    +0.000 C 
ATOM     15  C   UNL     1       0.974   8.626  21.976  0.00  0.00    +0.000 C 
ATOM     16  C   UNL     1       1.720   7.643  21.114  0.00  0.00    +0.000 C 
ATOM     17  C   UNL     1       1.908   7.865  19.799  0.00  0.00    +0.000 C 
ENDBRANCH   1  17
BRANCH   8  18
ATOM     18  C   UNL     1       5.903   4.674  14.441  0.00  0.00    +0.000 A 
ATOM     19  C   UNL     1       5.465   3.700  13.527  0.00  0.00    +0.000 A 
ATOM     20  C   UNL     1       6.219   3.367  12.396  0.00  0.00    +0.000 A 
ATOM     21  C   UNL     1       7.424   4.008  12.153  0.00  0.00    +0.000 A 
ATOM     22  C   UNL     1       7.870   4.968  13.053  0.00  0.00    +0.000 A 
ATOM     23  F   UNL     1       9.030   5.595  12.822  0.00  0.00    +0.000 F 
ATOM     24  C   UNL     1       7.133   5.296  14.190  0.00  0.00    +0.000 A 
ENDBRANCH   8  18
BRANCH   5  25
ATOM     25  C   UNL     1       2.978   3.015  19.066  0.00  0.00    +0.000 C 
ATOM     26  F   UNL     1       2.419   2.214  18.117  0.00  0.00    +0.000 F 
ATOM     27  F   UNL     1       4.174   2.446  19.375  0.00  0.00    +0.000 F 
ATOM     28  F   UNL     1       2.197   2.880  20.172  0.00  0.00    +0.000 F 
ENDBRANCH   5  25
TORSDOF 3
ENDMDL
MODEL 6
REMARK VINA RESULT:      -8.4      1.356      1.678
REMARK  Name = 
REMARK  4 active torsions:
REMARK  status: ('A' for Active; 'I' for Inactive)
REMARK    1  A    between atoms: C_1  and  N_2
REMARK    2  A    between atoms: C_7  and  C_8
REMARK    3  A    between atoms: C_12  and  C_13
REMARK    4  A    between atoms: N_19  and  C_20
REMARK                            x       y       z     vdW  Elec       q    Type
REMARK                         _______ _______ _______ _____ _____    ______ ____
ROOT
ATOM      1  C   UNL     1       4.124   6.083  17.559  0.00  0.00    +0.000 A 
ATOM      2  C   UNL     1       3.642   7.377  17.361  0.00  0.00    +0.000 A 
ATOM      3  C   UNL     1       2.696   7.843  18.251  0.00  0.00    +0.000 A 
ATOM      4  C   UNL     1       2.190   7.086  19.305  0.00  0.00    +0.000 A 
ATOM      5  C   UNL     1       2.628   5.778  19.500  0.00  0.00    +0.000 A 
ATOM      6  C   UNL     1       3.610   5.291  18.613  0.00  0.00    +0.000 A 
ATOM      7  C   UNL     1       1.203   7.910  20.072  0.00  0.00    +0.000 C 
ATOM      8  N   UNL     1       1.206   9.187  19.372  0.00  0.00    +0.000 N 
ATOM      9  C   UNL     1       2.077   9.169  18.280  0.00  0.00    +0.000 C 
ATOM     10  O   UNL     1       2.340  10.015  17.446  0.00  0.00    +0.000 OA
ENDROOT
BRANCH   1  17
ATOM     11  C   UNL     1       6.887   5.928  18.485  0.00  0.00    +0.000 C 
ATOM     12  N   UNL     1       6.478   5.368  17.191  0.00  0.00    +0.000 N 
ATOM     13  C   UNL     1       7.410   4.702  16.401  0.00  0.00    +0.000 C 
ATOM     14  C   UNL     1       7.172   4.317  15.139  0.00  0.00    +0.000 C 
ATOM     15  C   UNL     1       5.856   4.615  14.477  0.00  0.00    +0.000 C 
ATOM     16  C   UNL     1       4.846   5.209  15.423  0.00  0.00    +0.000 C 
ATOM     17  C   UNL     1       5.179   5.545  16.684  0.00  0.00    +0.000 C 
ENDBRANCH   1  17
BRANCH   8  18
ATOM     18  C   UNL     1       0.410  10.291  19.780  0.00  0.00    +0.000 A 
ATOM     19  C   UNL     1      -0.896  10.470  19.296  0.00  0.00    +0.000 A 
ATOM     20  C   UNL     1      -1.686  11.552  19.703  0.00  0.00    +0.000 A 
ATOM     21  C   UNL     1      -1.184  12.473  20.608  0.00  0.00    +0.000 A 
ATOM     22  C   UNL     1       0.110  12.311  21.088  0.00  0.00    +0.000 A 
ATOM     23  F   UNL     1       0.598  13.194  21.967  0.00  0.00    +0.000 F 
ATOM     24  C   UNL     1       0.908  11.244  20.678  0.00  0.00    +0.000 A 
ENDBRANCH   8  18
BRANCH   5  25
ATOM     25  C   UNL     1       2.101   4.890  20.595  0.00  0.00    +0.000 C 
ATOM     26  F   UNL     1       0.751   4.716  20.551  0.00  0.00    +0.000 F 
ATOM     27  F   UNL     1       2.638   3.641  20.554  0.00  0.00    +0.000 F 
ATOM     28  F   UNL     1       2.371   5.377  21.837  0.00  0.00    +0.000 F 
ENDBRANCH   5  25
TORSDOF 3
ENDMDL
MODEL 7
REMARK VINA RESULT:      -8.0      0.719      1.423
REMARK  Name = 
REMARK  4 active torsions:
REMARK  status: ('A' for Active; 'I' for Inactive)
REMARK    1  A    between atoms: C_1  and  N_2
REMARK    2  A    between atoms: C_7  and  C_8
REMARK    3  A    between atoms: C_12  and  C_13
REMARK    4  A    between atoms: N_19  and  C_20
REMARK                            x       y       z     vdW  Elec       q    Type
REMARK                         _______ _______ _______ _____ _____    ______ ____
ROOT
ATOM      1  C   UNL     1       3.949   5.568  18.111  0.00  0.00    +0.000 A 
ATOM      2  C   UNL     1       3.424   6.860  18.127  0.00  0.00    +0.000 A 
ATOM      3  C   UNL     1       2.528   7.167  19.131  0.00  0.00    +0.000 A 
ATOM      4  C   UNL     1       2.112   6.255  20.097  0.00  0.00    +0.000 A 
ATOM      5  C   UNL     1       2.593   4.948  20.080  0.00  0.00    +0.000 A 
ATOM      6  C   UNL     1       3.525   4.621  19.073  0.00  0.00    +0.000 A 
ATOM      7  C   UNL     1       1.158   6.931  21.033  0.00  0.00    +0.000 C 
ATOM      8  N   UNL     1       1.083   8.292  20.521  0.00  0.00    +0.000 N 
ATOM      9  C   UNL     1       1.880   8.455  19.385  0.00  0.00    +0.000 C 
ATOM     10  O   UNL     1       2.067   9.417  18.663  0.00  0.00    +0.000 OA
ENDROOT
BRANCH   1  17
ATOM     11  C   UNL     1       3.717   3.057  16.643  0.00  0.00    +0.000 C 
ATOM     12  N   UNL     1       4.762   4.039  16.326  0.00  0.00    +0.000 N 
ATOM     13  C   UNL     1       5.636   3.800  15.271  0.00  0.00    +0.000 C 
ATOM     14  C   UNL     1       6.720   4.548  15.022  0.00  0.00    +0.000 C 
ATOM     15  C   UNL     1       7.078   5.705  15.911  0.00  0.00    +0.000 C 
ATOM     16  C   UNL     1       6.024   5.997  16.946  0.00  0.00    +0.000 C 
ATOM     17  C   UNL     1       4.955   5.192  17.105  0.00  0.00    +0.000 C 
ENDBRANCH   1  17
BRANCH   8  18
ATOM     18  C   UNL     1       0.291   9.302  21.129  0.00  0.00    +0.000 A 
ATOM     19  C   UNL     1       0.051   9.309  22.513  0.00  0.00    +0.000 A 
ATOM     20  C   UNL     1      -0.722  10.308  23.117  0.00  0.00    +0.000 A 
ATOM     21  C   UNL     1      -1.265  11.324  22.347  0.00  0.00    +0.000 A 
ATOM     22  C   UNL     1      -1.041  11.324  20.975  0.00  0.00    +0.000 A 
ATOM     23  F   UNL     1      -1.557  12.305  20.227  0.00  0.00    +0.000 F 
ATOM     24  C   UNL     1      -0.283  10.326  20.364  0.00  0.00    +0.000 A 
ENDBRANCH   8  18
BRANCH   5  25
ATOM     25  C   UNL     1       2.161   3.899  21.070  0.00  0.00    +0.000 C 
ATOM     26  F   UNL     1       0.821   3.655  21.053  0.00  0.00    +0.000 F 
ATOM     27  F   UNL     1       2.761   2.699  20.848  0.00  0.00    +0.000 F 
ATOM     28  F   UNL     1       2.459   4.240  22.353  0.00  0.00    +0.000 F 
ENDBRANCH   5  25
TORSDOF 3
ENDMDL
MODEL 8
REMARK VINA RESULT:      -7.9      1.025      1.127
REMARK  Name = 
REMARK  4 active torsions:
REMARK  status: ('A' for Active; 'I' for Inactive)
REMARK    1  A    between atoms: C_1  and  N_2
REMARK    2  A    between atoms: C_7  and  C_8
REMARK    3  A    between atoms: C_12  and  C_13
REMARK    4  A    between atoms: N_19  and  C_20
REMARK                            x       y       z     vdW  Elec       q    Type
REMARK                         _______ _______ _______ _____ _____    ______ ____
ROOT
ATOM      1  C   UNL     1       4.095   5.943  17.439  0.00  0.00    +0.000 A 
ATOM      2  C   UNL     1       3.626   7.254  17.356  0.00  0.00    +0.000 A 
ATOM      3  C   UNL     1       2.769   7.683  18.350  0.00  0.00    +0.000 A 
ATOM      4  C   UNL     1       2.339   6.874  19.399  0.00  0.00    +0.000 A 
ATOM      5  C   UNL     1       2.764   5.550  19.482  0.00  0.00    +0.000 A 
ATOM      6  C   UNL     1       3.657   5.100  18.487  0.00  0.00    +0.000 A 
ATOM      7  C   UNL     1       1.439   7.668  20.294  0.00  0.00    +0.000 C 
ATOM      8  N   UNL     1       1.408   8.983  19.670  0.00  0.00    +0.000 N 
ATOM      9  C   UNL     1       2.182   9.014  18.508  0.00  0.00    +0.000 C 
ATOM     10  O   UNL     1       2.391   9.904  17.703  0.00  0.00    +0.000 OA
ENDROOT
BRANCH   1  17
ATOM     11  C   UNL     1       6.919   6.653  17.620  0.00  0.00    +0.000 C 
ATOM     12  N   UNL     1       6.430   5.695  16.621  0.00  0.00    +0.000 N 
ATOM     13  C   UNL     1       7.332   5.067  15.767  0.00  0.00    +0.000 C 
ATOM     14  C   UNL     1       6.963   4.319  14.718  0.00  0.00    +0.000 C 
ATOM     15  C   UNL     1       5.511   4.133  14.378  0.00  0.00    +0.000 C 
ATOM     16  C   UNL     1       4.587   4.717  15.413  0.00  0.00    +0.000 C 
ATOM     17  C   UNL     1       5.060   5.440  16.447  0.00  0.00    +0.000 C 
ENDBRANCH   1  17
BRANCH   8  18
ATOM     18  C   UNL     1       0.674  10.075  20.207  0.00  0.00    +0.000 A 
ATOM     19  C   UNL     1      -0.329   9.878  21.171  0.00  0.00    +0.000 A 
ATOM     20  C   UNL     1      -1.048  10.951  21.708  0.00  0.00    +0.000 A 
ATOM     21  C   UNL     1      -0.772  12.246  21.296  0.00  0.00    +0.000 A 
ATOM     22  C   UNL     1       0.213  12.452  20.338  0.00  0.00    +0.000 A 
ATOM     23  F   UNL     1       0.489  13.700  19.940  0.00  0.00    +0.000 F 
ATOM     24  C   UNL     1       0.925  11.388  19.788  0.00  0.00    +0.000 A 
ENDBRANCH   8  18
BRANCH   5  25
ATOM     25  C   UNL     1       2.315   4.609  20.567  0.00  0.00    +0.000 C 
ATOM     26  F   UNL     1       2.923   3.391  20.515  0.00  0.00    +0.000 F 
ATOM     27  F   UNL     1       2.563   5.095  21.812  0.00  0.00    +0.000 F 
ATOM     28  F   UNL     1       0.978   4.357  20.518  0.00  0.00    +0.000 F 
ENDBRANCH   5  25
TORSDOF 3
ENDMDL
MODEL 9
REMARK VINA RESULT:      -7.9      2.107      7.677
REMARK  Name = 
REMARK  4 active torsions:
REMARK  status: ('A' for Active; 'I' for Inactive)
REMARK    1  A    between atoms: C_1  and  N_2
REMARK    2  A    between atoms: C_7  and  C_8
REMARK    3  A    between atoms: C_12  and  C_13
REMARK    4  A    between atoms: N_19  and  C_20
REMARK                            x       y       z     vdW  Elec       q    Type
REMARK                         _______ _______ _______ _____ _____    ______ ____
ROOT
ATOM      1  C   UNL     1       1.712   7.488  20.143  0.00  0.00    +0.000 A 
ATOM      2  C   UNL     1       2.608   7.791  19.117  0.00  0.00    +0.000 A 
ATOM      3  C   UNL     1       3.194   6.731  18.455  0.00  0.00    +0.000 A 
ATOM      4  C   UNL     1       2.957   5.397  18.776  0.00  0.00    +0.000 A 
ATOM      5  C   UNL     1       2.096   5.070  19.821  0.00  0.00    +0.000 A 
ATOM      6  C   UNL     1       1.472   6.139  20.495  0.00  0.00    +0.000 A 
ATOM      7  C   UNL     1       3.740   4.522  17.847  0.00  0.00    +0.000 C 
ATOM      8  N   UNL     1       4.423   5.470  16.978  0.00  0.00    +0.000 N 
ATOM      9  C   UNL     1       4.123   6.789  17.326  0.00  0.00    +0.000 C 
ATOM     10  O   UNL     1       4.505   7.850  16.867  0.00  0.00    +0.000 OA
ENDROOT
BRANCH   1  17
ATOM     11  C   UNL     1       0.614   9.754  18.670  0.00  0.00    +0.000 C 
ATOM     12  N   UNL     1       0.381   9.588  20.110  0.00  0.00    +0.000 N 
ATOM     13  C   UNL     1      -0.423  10.499  20.788  0.00  0.00    +0.000 C 
ATOM     14  C   UNL     1      -0.548  10.527  22.123  0.00  0.00    +0.000 C 
ATOM     15  C   UNL     1       0.217   9.566  22.988  0.00  0.00    +0.000 C 
ATOM     16  C   UNL     1       0.955   8.521  22.194  0.00  0.00    +0.000 C 
ATOM     17  C   UNL     1       1.005   8.569  20.849  0.00  0.00    +0.000 C 
ENDBRANCH   1  17
BRANCH   8  18
ATOM     18  C   UNL     1       5.277   5.067  15.916  0.00  0.00    +0.000 A 
ATOM     19  C   UNL     1       6.665   5.273  15.976  0.00  0.00    +0.000 A 
ATOM     20  C   UNL     1       7.511   4.869  14.936  0.00  0.00    +0.000 A 
ATOM     21  C   UNL     1       6.983   4.243  13.818  0.00  0.00    +0.000 A 
ATOM     22  C   UNL     1       5.610   4.040  13.744  0.00  0.00    +0.000 A 
ATOM     23  F   UNL     1       5.095   3.430  12.670  0.00  0.00    +0.000 F 
ATOM     24  C   UNL     1       4.759   4.451  14.769  0.00  0.00    +0.000 A 
ENDBRANCH   8  18
BRANCH   5  25
ATOM     25  C   UNL     1       1.819   3.652  20.245  0.00  0.00    +0.000 C 
ATOM     26  F   UNL     1       2.939   2.964  20.603  0.00  0.00    +0.000 F 
ATOM     27  F   UNL     1       0.985   3.586  21.317  0.00  0.00    +0.000 F 
ATOM     28  F   UNL     1       1.232   2.919  19.261  0.00  0.00    +0.000 F 
ENDBRANCH   5  25
TORSDOF 3
ENDMDL
