MODEL 1
REMARK VINA RESULT:      -8.6      0.000      0.000
REMARK  Name = 
REMARK  6 active torsions:
REMARK  status: ('A' for Active; 'I' for Inactive)
REMARK    1  A    between atoms: C_1  and  C_2
REMARK    2  A    between atoms: C_5  and  C_6
REMARK    3  A    between atoms: N_8  and  C_9
REMARK    4  A    between atoms: C_11  and  C_12
REMARK    5  A    between atoms: C_19  and  S_20
REMARK    6  A    between atoms: S_20  and  N_23
REMARK                            x       y       z     vdW  Elec       q    Type
REMARK                         _______ _______ _______ _____ _____    ______ ____
ROOT
ATOM      1  C   UNL     1       2.686   3.302  21.388  0.00  0.00    +0.000 C 
ATOM      2  C   UNL     1       2.493   4.470  20.461  0.00  0.00    +0.000 A 
ATOM      3  C   UNL     1       1.605   5.484  20.881  0.00  0.00    +0.000 A 
ATOM      4  C   UNL     1       1.465   6.678  20.169  0.00  0.00    +0.000 A 
ATOM      5  C   UNL     1       2.236   6.893  19.028  0.00  0.00    +0.000 A 
ATOM      6  C   UNL     1       3.056   5.865  18.549  0.00  0.00    +0.000 A 
ATOM      7  C   UNL     1       3.180   4.649  19.244  0.00  0.00    +0.000 A 
ENDROOT
BRANCH   5   8
ATOM      8  C   UNL     1       2.236   8.238  18.380  0.00  0.00    +0.000 C 
ATOM      9  O   UNL     1       2.771   8.395  17.287  0.00  0.00    +0.000 OA
ATOM     10  N   UNL     1       1.520   9.211  19.049  0.00  0.00    +0.000 N 
ATOM     11  H   UNL     1       0.951   8.918  19.836  0.00  0.00    +0.000 HD
BRANCH  10  12
ATOM     12  C   UNL     1       1.128  10.465  18.465  0.00  0.00    +0.000 C 
ATOM     13  C   UNL     1       1.588  11.775  19.031  0.00  0.00    +0.000 C 
ATOM     14  C   UNL     1       0.145  11.358  19.222  0.00  0.00    +0.000 C 
BRANCH  14  15
ATOM     15  C   UNL     1      -0.323  10.994  20.621  0.00  0.00    +0.000 A 
ATOM     16  C   UNL     1      -0.818  11.971  21.504  0.00  0.00    +0.000 A 
ATOM     17  C   UNL     1      -1.118  11.674  22.834  0.00  0.00    +0.000 A 
ATOM     18  C   UNL     1      -0.966  10.375  23.305  0.00  0.00    +0.000 A 
ATOM     19  C   UNL     1      -0.545   9.371  22.437  0.00  0.00    +0.000 A 
ATOM     20  C   UNL     1      -0.232   9.679  21.108  0.00  0.00    +0.000 A 
ENDBRANCH  14  15
ENDBRANCH  10  12
ENDBRANCH   5   8
BRANCH   7  21
ATOM     21  S   UNL     1       4.366   3.467  18.557  0.00  0.00    +0.000 S 
ATOM     22  O   UNL     1       5.354   3.225  19.591  0.00  0.00    +0.000 OA
ATOM     23  O   UNL     1       3.631   2.367  17.978  0.00  0.00    +0.000 OA
BRANCH  21  24
ATOM     24  N   UNL     1       5.146   4.316  17.276  0.00  0.00    +0.000 NA
ATOM     25  C   UNL     1       6.518   4.772  17.593  0.00  0.00    +0.000 C 
ATOM     26  C   UNL     1       7.253   5.427  16.435  0.00  0.00    +0.000 C 
ATOM     27  C   UNL     1       7.108   4.640  15.148  0.00  0.00    +0.000 C 
ATOM     28  C   UNL     1       5.634   4.532  14.806  0.00  0.00    +0.000 C 
ATOM     29  C   UNL     1       4.836   3.842  15.905  0.00  0.00    +0.000 C 
ENDBRANCH  21  24
ENDBRANCH   7  21
TORSDOF 5
ENDMDL
MODEL 2
REMARK VINA RESULT:      -8.5      0.753      1.363
REMARK  Name = 
REMARK  6 active torsions:
REMARK  status: ('A' for Active; 'I' for Inactive)
REMARK    1  A    between atoms: C_1  and  C_2
REMARK    2  A    between atoms: C_5  and  C_6
REMARK    3  A    between atoms: N_8  and  C_9
REMARK    4  A    between atoms: C_11  and  C_12
REMARK    5  A    between atoms: C_19  and  S_20
REMARK    6  A    between atoms: S_20  and  N_23
REMARK                            x       y       z     vdW  Elec       q    Type
REMARK                         _______ _______ _______ _____ _____    ______ ____
ROOT
ATOM      1  C   UNL     1       2.653   2.961  21.514  0.00  0.00    +0.000 C 
ATOM      2  C   UNL     1       2.535   4.133  20.579  0.00  0.00    +0.000 A 
ATOM      3  C   UNL     1       1.600   5.135  20.919  0.00  0.00    +0.000 A 
ATOM      4  C   UNL     1       1.514   6.331  20.204  0.00  0.00    +0.000 A 
ATOM      5  C   UNL     1       2.387   6.562  19.142  0.00  0.00    +0.000 A 
ATOM      6  C   UNL     1       3.260   5.547  18.737  0.00  0.00    +0.000 A 
ATOM      7  C   UNL     1       3.332   4.327  19.433  0.00  0.00    +0.000 A 
ENDROOT
BRANCH   5   8
ATOM      8  C   UNL     1       2.433   7.912  18.504  0.00  0.00    +0.000 C 
ATOM      9  O   UNL     1       3.174   8.116  17.548  0.00  0.00    +0.000 OA
ATOM     10  N   UNL     1       1.529   8.828  19.004  0.00  0.00    +0.000 N 
ATOM     11  H   UNL     1       0.828   8.488  19.654  0.00  0.00    +0.000 HD
BRANCH  10  12
ATOM     12  C   UNL     1       1.185  10.059  18.347  0.00  0.00    +0.000 C 
ATOM     13  C   UNL     1       1.706  11.379  18.826  0.00  0.00    +0.000 C 
ATOM     14  C   UNL     1       0.248  11.038  19.054  0.00  0.00    +0.000 C 
BRANCH  14  15
ATOM     15  C   UNL     1      -0.220  10.782  20.477  0.00  0.00    +0.000 A 
ATOM     16  C   UNL     1      -0.641  11.835  21.309  0.00  0.00    +0.000 A 
ATOM     17  C   UNL     1      -0.939  11.631  22.657  0.00  0.00    +0.000 A 
ATOM     18  C   UNL     1      -0.859  10.354  23.198  0.00  0.00    +0.000 A 
ATOM     19  C   UNL     1      -0.512   9.280  22.384  0.00  0.00    +0.000 A 
ATOM     20  C   UNL     1      -0.201   9.493  21.036  0.00  0.00    +0.000 A 
ENDBRANCH  14  15
ENDBRANCH  10  12
ENDBRANCH   5   8
BRANCH   7  21
ATOM     21  S   UNL     1       4.590   3.163  18.855  0.00  0.00    +0.000 S 
ATOM     22  O   UNL     1       5.045   2.432  20.022  0.00  0.00    +0.000 OA
ATOM     23  O   UNL     1       4.066   2.456  17.710  0.00  0.00    +0.000 OA
BRANCH  21  24
ATOM     24  N   UNL     1       5.895   4.152  18.316  0.00  0.00    +0.000 NA
ATOM     25  C   UNL     1       5.863   4.471  16.872  0.00  0.00    +0.000 C 
ATOM     26  C   UNL     1       6.949   5.429  16.409  0.00  0.00    +0.000 C 
ATOM     27  C   UNL     1       7.094   6.619  17.336  0.00  0.00    +0.000 C 
ATOM     28  C   UNL     1       7.433   6.115  18.726  0.00  0.00    +0.000 C 
ATOM     29  C   UNL     1       6.364   5.181  19.277  0.00  0.00    +0.000 C 
ENDBRANCH  21  24
ENDBRANCH   7  21
TORSDOF 5
ENDMDL
MODEL 3
REMARK VINA RESULT:      -8.4      3.197      8.331
REMARK  Name = 
REMARK  6 active torsions:
REMARK  status: ('A' for Active; 'I' for Inactive)
REMARK    1  A    between atoms: C_1  and  C_2
REMARK    2  A    between atoms: C_5  and  C_6
REMARK    3  A    between atoms: N_8  and  C_9
REMARK    4  A    between atoms: C_11  and  C_12
REMARK    5  A    between atoms: C_19  and  S_20
REMARK    6  A    between atoms: S_20  and  N_23
REMARK                            x       y       z     vdW  Elec       q    Type
REMARK                         _______ _______ _______ _____ _____    ______ ____
ROOT
ATOM      1  C   UNL     1      -0.699   9.318  22.054  0.00  0.00    +0.000 C 
ATOM      2  C   UNL     1       0.378   9.045  21.040  0.00  0.00    +0.000 A 
ATOM      3  C   UNL     1       1.104   7.842  21.181  0.00  0.00    +0.000 A 
ATOM      4  C   UNL     1       2.020   7.420  20.214  0.00  0.00    +0.000 A 
ATOM      5  C   UNL     1       2.210   8.187  19.066  0.00  0.00    +0.000 A 
ATOM      6  C   UNL     1       1.564   9.423  18.950  0.00  0.00    +0.000 A 
ATOM      7  C   UNL     1       0.663   9.870  19.933  0.00  0.00    +0.000 A 
ENDROOT
BRANCH   5   8
ATOM      8  C   UNL     1       3.035   7.646  17.945  0.00  0.00    +0.000 C 
ATOM      9  O   UNL     1       2.988   8.170  16.837  0.00  0.00    +0.000 OA
ATOM     10  N   UNL     1       3.887   6.615  18.289  0.00  0.00    +0.000 N 
ATOM     11  H   UNL     1       3.988   6.399  19.275  0.00  0.00    +0.000 HD
BRANCH  10  12
ATOM     12  C   UNL     1       4.975   6.163  17.466  0.00  0.00    +0.000 C 
ATOM     13  C   UNL     1       4.739   5.466  16.161  0.00  0.00    +0.000 C 
ATOM     14  C   UNL     1       5.236   4.662  17.343  0.00  0.00    +0.000 C 
BRANCH  14  15
ATOM     15  C   UNL     1       4.295   3.652  17.977  0.00  0.00    +0.000 A 
ATOM     16  C   UNL     1       3.169   3.167  17.287  0.00  0.00    +0.000 A 
ATOM     17  C   UNL     1       2.224   2.349  17.907  0.00  0.00    +0.000 A 
ATOM     18  C   UNL     1       2.404   1.963  19.230  0.00  0.00    +0.000 A 
ATOM     19  C   UNL     1       3.544   2.369  19.919  0.00  0.00    +0.000 A 
ATOM     20  C   UNL     1       4.480   3.201  19.296  0.00  0.00    +0.000 A 
ENDBRANCH  14  15
ENDBRANCH  10  12
ENDBRANCH   5   8
BRANCH   7  21
ATOM     21  S   UNL     1      -0.175  11.434  19.581  0.00  0.00    +0.000 S 
ATOM     22  O   UNL     1      -0.377  12.092  20.858  0.00  0.00    +0.000 OA
ATOM     23  O   UNL     1       0.539  12.105  18.520  0.00  0.00    +0.000 OA
BRANCH  21  24
ATOM     24  N   UNL     1      -1.723  10.981  18.975  0.00  0.00    +0.000 NA
ATOM     25  C   UNL     1      -2.778  12.001  19.170  0.00  0.00    +0.000 C 
ATOM     26  C   UNL     1      -4.119  11.655  18.545  0.00  0.00    +0.000 C 
ATOM     27  C   UNL     1      -3.972  11.131  17.130  0.00  0.00    +0.000 C 
ATOM     28  C   UNL     1      -3.101   9.889  17.159  0.00  0.00    +0.000 C 
ATOM     29  C   UNL     1      -1.718  10.169  17.734  0.00  0.00    +0.000 C 
ENDBRANCH  21  24
ENDBRANCH   7  21
TORSDOF 5
ENDMDL
MODEL 4
REMARK VINA RESULT:      -8.4      3.360      8.536
REMARK  Name = 
REMARK  6 active torsions:
REMARK  status: ('A' for Active; 'I' for Inactive)
REMARK    1  A    between atoms: C_1  and  C_2
REMARK    2  A    between atoms: C_5  and  C_6
REMARK    3  A    between atoms: N_8  and  C_9
REMARK    4  A    between atoms: C_11  and  C_12
REMARK    5  A    between atoms: C_19  and  S_20
REMARK    6  A    between atoms: S_20  and  N_23
REMARK                            x       y       z     vdW  Elec       q    Type
REMARK                         _______ _______ _______ _____ _____    ______ ____
ROOT
ATOM      1  C   UNL     1      -1.048  10.560  22.527  0.00  0.00    +0.000 C 
ATOM      2  C   UNL     1      -0.059  10.068  21.505  0.00  0.00    +0.000 A 
ATOM      3  C   UNL     1       0.648   8.886  21.812  0.00  0.00    +0.000 A 
ATOM      4  C   UNL     1       1.477   8.263  20.875  0.00  0.00    +0.000 A 
ATOM      5  C   UNL     1       1.595   8.802  19.595  0.00  0.00    +0.000 A 
ATOM      6  C   UNL     1       0.971  10.019  19.302  0.00  0.00    +0.000 A 
ATOM      7  C   UNL     1       0.159  10.668  20.249  0.00  0.00    +0.000 A 
ENDROOT
BRANCH   5   8
ATOM      8  C   UNL     1       2.318   8.037  18.536  0.00  0.00    +0.000 C 
ATOM      9  O   UNL     1       2.472   8.524  17.421  0.00  0.00    +0.000 OA
ATOM     10  N   UNL     1       2.858   6.834  18.947  0.00  0.00    +0.000 N 
ATOM     11  H   UNL     1       2.843   6.627  19.940  0.00  0.00    +0.000 HD
BRANCH  10  12
ATOM     12  C   UNL     1       3.841   6.098  18.201  0.00  0.00    +0.000 C 
ATOM     13  C   UNL     1       3.451   5.133  17.122  0.00  0.00    +0.000 C 
ATOM     14  C   UNL     1       3.975   4.593  18.437  0.00  0.00    +0.000 C 
BRANCH  14  15
ATOM     15  C   UNL     1       3.010   3.857  19.352  0.00  0.00    +0.000 A 
ATOM     16  C   UNL     1       1.712   3.520  18.927  0.00  0.00    +0.000 A 
ATOM     17  C   UNL     1       0.773   2.971  19.802  0.00  0.00    +0.000 A 
ATOM     18  C   UNL     1       1.125   2.711  21.120  0.00  0.00    +0.000 A 
ATOM     19  C   UNL     1       2.422   2.970  21.553  0.00  0.00    +0.000 A 
ATOM     20  C   UNL     1       3.355   3.533  20.675  0.00  0.00    +0.000 A 
ENDBRANCH  14  15
ENDBRANCH  10  12
ENDBRANCH   5   8
BRANCH   7  21
ATOM     21  S   UNL     1      -0.668  12.173  19.678  0.00  0.00    +0.000 S 
ATOM     22  O   UNL     1      -0.677  13.092  20.800  0.00  0.00    +0.000 OA
ATOM     23  O   UNL     1      -0.082  12.566  18.417  0.00  0.00    +0.000 OA
BRANCH  21  24
ATOM     24  N   UNL     1      -2.298  11.697  19.380  0.00  0.00    +0.000 NA
ATOM     25  C   UNL     1      -3.314  12.627  19.921  0.00  0.00    +0.000 C 
ATOM     26  C   UNL     1      -4.750  12.272  19.571  0.00  0.00    +0.000 C 
ATOM     27  C   UNL     1      -4.909  11.912  18.107  0.00  0.00    +0.000 C 
ATOM     28  C   UNL     1      -4.013  10.728  17.796  0.00  0.00    +0.000 C 
ATOM     29  C   UNL     1      -2.546  11.025  18.080  0.00  0.00    +0.000 C 
ENDBRANCH  21  24
ENDBRANCH   7  21
TORSDOF 5
ENDMDL
MODEL 5
REMARK VINA RESULT:      -8.4      2.571      8.132
REMARK  Name = 
REMARK  6 active torsions:
REMARK  status: ('A' for Active; 'I' for Inactive)
REMARK    1  A    between atoms: C_1  and  C_2
REMARK    2  A    between atoms: C_5  and  C_6
REMARK    3  A    between atoms: N_8  and  C_9
REMARK    4  A    between atoms: C_11  and  C_12
REMARK    5  A    between atoms: C_19  and  S_20
REMARK    6  A    between atoms: S_20  and  N_23
REMARK                            x       y       z     vdW  Elec       q    Type
REMARK                         _______ _______ _______ _____ _____    ______ ____
ROOT
ATOM      1  C   UNL     1       0.409   9.219  21.877  0.00  0.00    +0.000 C 
ATOM      2  C   UNL     1       1.115   8.339  20.882  0.00  0.00    +0.000 A 
ATOM      3  C   UNL     1       1.404   7.017  21.284  0.00  0.00    +0.000 A 
ATOM      4  C   UNL     1       1.921   6.075  20.391  0.00  0.00    +0.000 A 
ATOM      5  C   UNL     1       2.136   6.434  19.061  0.00  0.00    +0.000 A 
ATOM      6  C   UNL     1       1.937   7.761  18.667  0.00  0.00    +0.000 A 
ATOM      7  C   UNL     1       1.446   8.723  19.567  0.00  0.00    +0.000 A 
ENDROOT
BRANCH   5   8
ATOM      8  C   UNL     1       2.499   5.383  18.063  0.00  0.00    +0.000 C 
ATOM      9  O   UNL     1       1.622   4.709  17.533  0.00  0.00    +0.000 OA
ATOM     10  N   UNL     1       3.839   5.324  17.736  0.00  0.00    +0.000 N 
ATOM     11  H   UNL     1       4.441   6.063  18.083  0.00  0.00    +0.000 HD
BRANCH  10  12
ATOM     12  C   UNL     1       4.357   4.622  16.594  0.00  0.00    +0.000 C 
ATOM     13  C   UNL     1       5.352   3.511  16.737  0.00  0.00    +0.000 C 
ATOM     14  C   UNL     1       5.814   4.844  16.187  0.00  0.00    +0.000 C 
BRANCH  14  15
ATOM     15  C   UNL     1       6.742   5.695  17.039  0.00  0.00    +0.000 A 
ATOM     16  C   UNL     1       7.332   5.185  18.210  0.00  0.00    +0.000 A 
ATOM     17  C   UNL     1       8.071   5.996  19.072  0.00  0.00    +0.000 A 
ATOM     18  C   UNL     1       8.269   7.336  18.762  0.00  0.00    +0.000 A 
ATOM     19  C   UNL     1       7.756   7.854  17.576  0.00  0.00    +0.000 A 
ATOM     20  C   UNL     1       7.004   7.038  16.723  0.00  0.00    +0.000 A 
ENDBRANCH  14  15
ENDBRANCH  10  12
ENDBRANCH   5   8
BRANCH   7  21
ATOM     21  S   UNL     1       1.136  10.365  18.873  0.00  0.00    +0.000 S 
ATOM     22  O   UNL     1       1.510  11.324  19.895  0.00  0.00    +0.000 OA
ATOM     23  O   UNL     1       1.735  10.427  17.560  0.00  0.00    +0.000 OA
BRANCH  21  24
ATOM     24  N   UNL     1      -0.575  10.448  18.680  0.00  0.00    +0.000 NA
ATOM     25  C   UNL     1      -1.186  11.699  19.183  0.00  0.00    +0.000 C 
ATOM     26  C   UNL     1      -2.677  11.827  18.920  0.00  0.00    +0.000 C 
ATOM     27  C   UNL     1      -3.042  11.449  17.498  0.00  0.00    +0.000 C 
ATOM     28  C   UNL     1      -2.614  10.016  17.250  0.00  0.00    +0.000 C 
ATOM     29  C   UNL     1      -1.117   9.818  17.451  0.00  0.00    +0.000 C 
ENDBRANCH  21  24
ENDBRANCH   7  21
TORSDOF 5
ENDMDL
MODEL 6
REMARK VINA RESULT:      -8.3      2.961      9.012
REMARK  Name = 
REMARK  6 active torsions:
REMARK  status: ('A' for Active; 'I' for Inactive)
REMARK    1  A    between atoms: C_1  and  C_2
REMARK    2  A    between atoms: C_5  and  C_6
REMARK    3  A    between atoms: N_8  and  C_9
REMARK    4  A    between atoms: C_11  and  C_12
REMARK    5  A    between atoms: C_19  and  S_20
REMARK    6  A    between atoms: S_20  and  N_23
REMARK                            x       y       z     vdW  Elec       q    Type
REMARK                         _______ _______ _______ _____ _____    ______ ____
ROOT
ATOM      1  C   UNL     1       1.805  11.764  18.322  0.00  0.00    +0.000 C 
ATOM      2  C   UNL     1       1.714  10.304  18.675  0.00  0.00    +0.000 A 
ATOM      3  C   UNL     1       2.372   9.394  17.821  0.00  0.00    +0.000 A 
ATOM      4  C   UNL     1       2.476   8.036  18.135  0.00  0.00    +0.000 A 
ATOM      5  C   UNL     1       1.941   7.565  19.332  0.00  0.00    +0.000 A 
ATOM      6  C   UNL     1       1.211   8.435  20.149  0.00  0.00    +0.000 A 
ATOM      7  C   UNL     1       1.076   9.797  19.825  0.00  0.00    +0.000 A 
ENDROOT
BRANCH   5   8
ATOM      8  C   UNL     1       2.221   6.162  19.764  0.00  0.00    +0.000 C 
ATOM      9  O   UNL     1       1.837   5.768  20.860  0.00  0.00    +0.000 OA
ATOM     10  N   UNL     1       2.829   5.367  18.814  0.00  0.00    +0.000 N 
ATOM     11  H   UNL     1       2.916   5.741  17.874  0.00  0.00    +0.000 HD
BRANCH  10  12
ATOM     12  C   UNL     1       2.905   3.934  18.893  0.00  0.00    +0.000 C 
ATOM     13  C   UNL     1       4.034   3.242  19.596  0.00  0.00    +0.000 C 
ATOM     14  C   UNL     1       3.975   3.203  18.084  0.00  0.00    +0.000 C 
BRANCH  14  15
ATOM     15  C   UNL     1       5.024   3.974  17.300  0.00  0.00    +0.000 A 
ATOM     16  C   UNL     1       4.867   4.231  15.925  0.00  0.00    +0.000 A 
ATOM     17  C   UNL     1       5.884   4.814  15.167  0.00  0.00    +0.000 A 
ATOM     18  C   UNL     1       7.074   5.190  15.777  0.00  0.00    +0.000 A 
ATOM     19  C   UNL     1       7.233   5.012  17.149  0.00  0.00    +0.000 A 
ATOM     20  C   UNL     1       6.215   4.415  17.901  0.00  0.00    +0.000 A 
ENDBRANCH  14  15
ENDBRANCH  10  12
ENDBRANCH   5   8
BRANCH   7  21
ATOM     21  S   UNL     1       0.201  10.812  21.040  0.00  0.00    +0.000 S 
ATOM     22  O   UNL     1      -0.422   9.895  21.975  0.00  0.00    +0.000 OA
ATOM     23  O   UNL     1       1.102  11.837  21.514  0.00  0.00    +0.000 OA
BRANCH  21  24
ATOM     24  N   UNL     1      -1.057  11.584  20.148  0.00  0.00    +0.000 NA
ATOM     25  C   UNL     1      -1.577  10.789  19.013  0.00  0.00    +0.000 C 
ATOM     26  C   UNL     1      -2.757  11.414  18.288  0.00  0.00    +0.000 C 
ATOM     27  C   UNL     1      -3.804  11.942  19.249  0.00  0.00    +0.000 C 
ATOM     28  C   UNL     1      -3.162  12.983  20.146  0.00  0.00    +0.000 C 
ATOM     29  C   UNL     1      -1.994  12.416  20.943  0.00  0.00    +0.000 C 
ENDBRANCH  21  24
ENDBRANCH   7  21
TORSDOF 5
ENDMDL
MODEL 7
REMARK VINA RESULT:      -8.2      3.236      8.211
REMARK  Name = 
REMARK  6 active torsions:
REMARK  status: ('A' for Active; 'I' for Inactive)
REMARK    1  A    between atoms: C_1  and  C_2
REMARK    2  A    between atoms: C_5  and  C_6
REMARK    3  A    between atoms: N_8  and  C_9
REMARK    4  A    between atoms: C_11  and  C_12
REMARK    5  A    between atoms: C_19  and  S_20
REMARK    6  A    between atoms: S_20  and  N_23
REMARK                            x       y       z     vdW  Elec       q    Type
REMARK                         _______ _______ _______ _____ _____    ______ ____
ROOT
ATOM      1  C   UNL     1      -0.910  10.574  22.321  0.00  0.00    +0.000 C 
ATOM      2  C   UNL     1       0.099  10.030  21.347  0.00  0.00    +0.000 A 
ATOM      3  C   UNL     1       0.709   8.800  21.674  0.00  0.00    +0.000 A 
ATOM      4  C   UNL     1       1.546   8.134  20.775  0.00  0.00    +0.000 A 
ATOM      5  C   UNL     1       1.770   8.678  19.512  0.00  0.00    +0.000 A 
ATOM      6  C   UNL     1       1.245   9.938  19.203  0.00  0.00    +0.000 A 
ATOM      7  C   UNL     1       0.426  10.629  20.114  0.00  0.00    +0.000 A 
ENDROOT
BRANCH   5   8
ATOM      8  C   UNL     1       2.500   7.879  18.482  0.00  0.00    +0.000 C 
ATOM      9  O   UNL     1       2.680   8.339  17.360  0.00  0.00    +0.000 OA
ATOM     10  N   UNL     1       3.014   6.678  18.929  0.00  0.00    +0.000 N 
ATOM     11  H   UNL     1       2.979   6.494  19.926  0.00  0.00    +0.000 HD
BRANCH  10  12
ATOM     12  C   UNL     1       3.998   5.910  18.217  0.00  0.00    +0.000 C 
ATOM     13  C   UNL     1       3.614   4.954  17.128  0.00  0.00    +0.000 C 
ATOM     14  C   UNL     1       4.079   4.403  18.460  0.00  0.00    +0.000 C 
BRANCH  14  15
ATOM     15  C   UNL     1       3.064   3.699  19.345  0.00  0.00    +0.000 A 
ATOM     16  C   UNL     1       1.784   3.364  18.866  0.00  0.00    +0.000 A 
ATOM     17  C   UNL     1       0.798   2.845  19.707  0.00  0.00    +0.000 A 
ATOM     18  C   UNL     1       1.083   2.614  21.047  0.00  0.00    +0.000 A 
ATOM     19  C   UNL     1       2.361   2.871  21.536  0.00  0.00    +0.000 A 
ATOM     20  C   UNL     1       3.341   3.404  20.690  0.00  0.00    +0.000 A 
ENDBRANCH  14  15
ENDBRANCH  10  12
ENDBRANCH   5   8
BRANCH   7  21
ATOM     21  S   UNL     1      -0.267  12.191  19.521  0.00  0.00    +0.000 S 
ATOM     22  O   UNL     1      -0.756  12.897  20.690  0.00  0.00    +0.000 OA
ATOM     23  O   UNL     1       0.695  12.813  18.642  0.00  0.00    +0.000 OA
BRANCH  21  24
ATOM     24  N   UNL     1      -1.635  11.739  18.575  0.00  0.00    +0.000 NA
ATOM     25  C   UNL     1      -1.470  10.470  17.831  0.00  0.00    +0.000 C 
ATOM     26  C   UNL     1      -2.708  10.009  17.079  0.00  0.00    +0.000 C 
ATOM     27  C   UNL     1      -3.961  10.110  17.926  0.00  0.00    +0.000 C 
ATOM     28  C   UNL     1      -4.146  11.554  18.352  0.00  0.00    +0.000 C 
ATOM     29  C   UNL     1      -2.959  12.075  19.153  0.00  0.00    +0.000 C 
ENDBRANCH  21  24
ENDBRANCH   7  21
TORSDOF 5
ENDMDL
MODEL 8
REMARK VINA RESULT:      -8.1      0.647      1.458
REMARK  Name = 
REMARK  6 active torsions:
REMARK  status: ('A' for Active; 'I' for Inactive)
REMARK    1  A    between atoms: C_1  and  C_2
REMARK    2  A    between atoms: C_5  and  C_6
REMARK    3  A    between atoms: N_8  and  C_9
REMARK    4  A    between atoms: C_11  and  C_12
REMARK    5  A    between atoms: C_19  and  S_20
REMARK    6  A    between atoms: S_20  and  N_23
REMARK                            x       y       z     vdW  Elec       q    Type
REMARK                         _______ _______ _______ _____ _____    ______ ____
ROOT
ATOM      1  C   UNL     1       2.469   2.897  21.570  0.00  0.00    +0.000 C 
ATOM      2  C   UNL     1       2.372   4.073  20.637  0.00  0.00    +0.000 A 
ATOM      3  C   UNL     1       1.522   5.132  21.025  0.00  0.00    +0.000 A 
ATOM      4  C   UNL     1       1.472   6.331  20.310  0.00  0.00    +0.000 A 
ATOM      5  C   UNL     1       2.296   6.505  19.200  0.00  0.00    +0.000 A 
ATOM      6  C   UNL     1       3.079   5.436  18.751  0.00  0.00    +0.000 A 
ATOM      7  C   UNL     1       3.114   4.215  19.447  0.00  0.00    +0.000 A 
ENDROOT
BRANCH   5   8
ATOM      8  C   UNL     1       2.391   7.849  18.554  0.00  0.00    +0.000 C 
ATOM      9  O   UNL     1       3.179   8.035  17.633  0.00  0.00    +0.000 OA
ATOM     10  N   UNL     1       1.477   8.781  19.004  0.00  0.00    +0.000 N 
ATOM     11  H   UNL     1       0.741   8.457  19.623  0.00  0.00    +0.000 HD
BRANCH  10  12
ATOM     12  C   UNL     1       1.181  10.011  18.322  0.00  0.00    +0.000 C 
ATOM     13  C   UNL     1       1.832  11.304  18.712  0.00  0.00    +0.000 C 
ATOM     14  C   UNL     1       0.372  11.084  19.049  0.00  0.00    +0.000 C 
BRANCH  14  15
ATOM     15  C   UNL     1      -0.015  10.915  20.509  0.00  0.00    +0.000 A 
ATOM     16  C   UNL     1       0.468   9.838  21.274  0.00  0.00    +0.000 A 
ATOM     17  C   UNL     1       0.011   9.594  22.570  0.00  0.00    +0.000 A 
ATOM     18  C   UNL     1      -0.918  10.451  23.149  0.00  0.00    +0.000 A 
ATOM     19  C   UNL     1      -1.364  11.565  22.443  0.00  0.00    +0.000 A 
ATOM     20  C   UNL     1      -0.912  11.795  21.139  0.00  0.00    +0.000 A 
ENDBRANCH  14  15
ENDBRANCH  10  12
ENDBRANCH   5   8
BRANCH   7  21
ATOM     21  S   UNL     1       4.262   2.974  18.804  0.00  0.00    +0.000 S 
ATOM     22  O   UNL     1       5.053   2.518  19.932  0.00  0.00    +0.000 OA
ATOM     23  O   UNL     1       3.513   2.029  18.009  0.00  0.00    +0.000 OA
BRANCH  21  24
ATOM     24  N   UNL     1       5.309   3.844  17.748  0.00  0.00    +0.000 NA
ATOM     25  C   UNL     1       4.712   4.181  16.437  0.00  0.00    +0.000 C 
ATOM     26  C   UNL     1       5.589   5.040  15.541  0.00  0.00    +0.000 C 
ATOM     27  C   UNL     1       6.211   6.200  16.293  0.00  0.00    +0.000 C 
ATOM     28  C   UNL     1       7.048   5.651  17.432  0.00  0.00    +0.000 C 
ATOM     29  C   UNL     1       6.224   4.813  18.401  0.00  0.00    +0.000 C 
ENDBRANCH  21  24
ENDBRANCH   7  21
TORSDOF 5
ENDMDL
MODEL 9
REMARK VINA RESULT:      -8.0      3.164      8.995
REMARK  Name = 
REMARK  6 active torsions:
REMARK  status: ('A' for Active; 'I' for Inactive)
REMARK    1  A    between atoms: C_1  and  C_2
REMARK    2  A    between atoms: C_5  and  C_6
REMARK    3  A    between atoms: N_8  and  C_9
REMARK    4  A    between atoms: C_11  and  C_12
REMARK    5  A    between atoms: C_19  and  S_20
REMARK    6  A    between atoms: S_20  and  N_23
REMARK                            x       y       z     vdW  Elec       q    Type
REMARK                         _______ _______ _______ _____ _____    ______ ____
ROOT
ATOM      1  C   UNL     1       1.518  12.402  18.460  0.00  0.00    +0.000 C 
ATOM      2  C   UNL     1       1.475  10.928  18.755  0.00  0.00    +0.000 A 
ATOM      3  C   UNL     1       2.114  10.069  17.835  0.00  0.00    +0.000 A 
ATOM      4  C   UNL     1       2.261   8.703  18.088  0.00  0.00    +0.000 A 
ATOM      5  C   UNL     1       1.790   8.170  19.286  0.00  0.00    +0.000 A 
ATOM      6  C   UNL     1       1.078   8.988  20.169  0.00  0.00    +0.000 A 
ATOM      7  C   UNL     1       0.899  10.359  19.909  0.00  0.00    +0.000 A 
ENDROOT
BRANCH   5   8
ATOM      8  C   UNL     1       2.119   6.758  19.646  0.00  0.00    +0.000 C 
ATOM      9  O   UNL     1       1.634   6.250  20.652  0.00  0.00    +0.000 OA
ATOM     10  N   UNL     1       2.898   6.084  18.726  0.00  0.00    +0.000 N 
ATOM     11  H   UNL     1       3.072   6.539  17.836  0.00  0.00    +0.000 HD
BRANCH  10  12
ATOM     12  C   UNL     1       3.070   4.658  18.710  0.00  0.00    +0.000 C 
ATOM     13  C   UNL     1       3.875   3.950  19.757  0.00  0.00    +0.000 C 
ATOM     14  C   UNL     1       4.442   4.082  18.359  0.00  0.00    +0.000 C 
BRANCH  14  15
ATOM     15  C   UNL     1       5.641   4.993  18.149  0.00  0.00    +0.000 A 
ATOM     16  C   UNL     1       6.602   5.182  19.159  0.00  0.00    +0.000 A 
ATOM     17  C   UNL     1       7.627   6.120  19.031  0.00  0.00    +0.000 A 
ATOM     18  C   UNL     1       7.738   6.868  17.865  0.00  0.00    +0.000 A 
ATOM     19  C   UNL     1       6.844   6.656  16.820  0.00  0.00    +0.000 A 
ATOM     20  C   UNL     1       5.809   5.724  16.961  0.00  0.00    +0.000 A 
ENDBRANCH  14  15
ENDBRANCH  10  12
ENDBRANCH   5   8
BRANCH   7  21
ATOM     21  S   UNL     1       0.056  11.302  21.202  0.00  0.00    +0.000 S 
ATOM     22  O   UNL     1      -0.468  10.334  22.146  0.00  0.00    +0.000 OA
ATOM     23  O   UNL     1       0.939  12.354  21.649  0.00  0.00    +0.000 OA
BRANCH  21  24
ATOM     24  N   UNL     1      -1.286  12.038  20.409  0.00  0.00    +0.000 NA
ATOM     25  C   UNL     1      -1.859  11.235  19.305  0.00  0.00    +0.000 C 
ATOM     26  C   UNL     1      -3.107  11.827  18.671  0.00  0.00    +0.000 C 
ATOM     27  C   UNL     1      -4.100  12.311  19.709  0.00  0.00    +0.000 C 
ATOM     28  C   UNL     1      -3.432  13.365  20.569  0.00  0.00    +0.000 C 
ATOM     29  C   UNL     1      -2.192  12.831  21.276  0.00  0.00    +0.000 C 
ENDBRANCH  21  24
ENDBRANCH   7  21
TORSDOF 5
ENDMDL
