MODEL 1
REMARK VINA RESULT:      -8.3      0.000      0.000
REMARK  Name = 
REMARK  5 active torsions:
REMARK  status: ('A' for Active; 'I' for Inactive)
REMARK    1  A    between atoms: C_2  and  C_3
REMARK    2  A    between atoms: C_3  and  C_4
REMARK    3  A    between atoms: N_14  and  C_15
REMARK    4  A    between atoms: N_19  and  C_20
REMARK    5  A    between atoms: C_20  and  C_21
REMARK                            x       y       z     vdW  Elec       q    Type
REMARK                         _______ _______ _______ _____ _____    ______ ____
ROOT
ATOM      1  C   UNL     1       2.651   5.923  19.923  0.00  0.00    +0.000 C 
ATOM      2  C   UNL     1       1.487   4.938  20.032  0.00  0.00    +0.000 C 
ATOM      3  C   UNL     1       1.438   4.025  18.817  0.00  0.00    +0.000 C 
ATOM      4  C   UNL     1       2.728   3.231  18.732  0.00  0.00    +0.000 C 
ATOM      5  N   UNL     1       3.931   4.050  18.814  0.00  0.00    +0.000 N 
ATOM      6  C   UNL     1       3.987   5.232  19.550  0.00  0.00    +0.000 C 
ATOM      7  O   UNL     1       5.055   5.818  19.747  0.00  0.00    +0.000 OA
ENDROOT
BRANCH   1  10
ATOM      8  O   UNL     1       1.458   8.464  20.438  0.00  0.00    +0.000 OA
ATOM      9  C   UNL     1       1.863   8.215  19.303  0.00  0.00    +0.000 C 
ATOM     10  N   UNL     1       2.411   6.994  18.949  0.00  0.00    +0.000 N 
ATOM     11  H   UNL     1       3.024   7.008  18.140  0.00  0.00    +0.000 HD
BRANCH   9  12
ATOM     12  C   UNL     1       1.675   9.164  18.131  0.00  0.00    +0.000 C 
BRANCH  12  13
ATOM     13  C   UNL     1       0.485  10.098  18.200  0.00  0.00    +0.000 A 
ATOM     14  C   UNL     1      -0.768   9.652  17.739  0.00  0.00    +0.000 A 
ATOM     15  C   UNL     1      -1.841  10.532  17.628  0.00  0.00    +0.000 A 
ATOM     16  C   UNL     1      -1.670  11.868  17.971  0.00  0.00    +0.000 A 
ATOM     17  C   UNL     1      -0.439  12.315  18.473  0.00  0.00    +0.000 A 
ATOM     18  C   UNL     1      -0.258  13.660  18.821  0.00  0.00    +0.000 A 
ATOM     19  C   UNL     1       0.952  14.079  19.351  0.00  0.00    +0.000 A 
ATOM     20  C   UNL     1       1.949  13.137  19.501  0.00  0.00    +0.000 A 
ATOM     21  N   UNL     1       1.832  11.841  19.127  0.00  0.00    +0.000 NA
ATOM     22  C   UNL     1       0.653  11.423  18.623  0.00  0.00    +0.000 A 
ENDBRANCH  12  13
ENDBRANCH   9  12
ENDBRANCH   1  10
BRANCH   5  23
ATOM     23  C   UNL     1       5.182   3.415  18.391  0.00  0.00    +0.000 C 
BRANCH  23  24
ATOM     24  C   UNL     1       5.683   3.953  17.074  0.00  0.00    +0.000 A 
ATOM     25  C   UNL     1       4.849   3.977  15.944  0.00  0.00    +0.000 A 
ATOM     26  C   UNL     1       5.324   4.470  14.725  0.00  0.00    +0.000 A 
ATOM     27  C   UNL     1       6.629   4.945  14.635  0.00  0.00    +0.000 A 
ATOM     28  F   UNL     1       7.081   5.410  13.464  0.00  0.00    +0.000 F 
ATOM     29  C   UNL     1       7.465   4.950  15.743  0.00  0.00    +0.000 A 
ATOM     30  C   UNL     1       6.987   4.458  16.952  0.00  0.00    +0.000 A 
ATOM     31  F   UNL     1       7.800   4.465  18.017  0.00  0.00    +0.000 F 
ENDBRANCH  23  24
ENDBRANCH   5  23
TORSDOF 5
ENDMDL
MODEL 2
REMARK VINA RESULT:      -8.2      0.933      2.023
REMARK  Name = 
REMARK  5 active torsions:
REMARK  status: ('A' for Active; 'I' for Inactive)
REMARK    1  A    between atoms: C_2  and  C_3
REMARK    2  A    between atoms: C_3  and  C_4
REMARK    3  A    between atoms: N_14  and  C_15
REMARK    4  A    between atoms: N_19  and  C_20
REMARK    5  A    between atoms: C_20  and  C_21
REMARK                            x       y       z     vdW  Elec       q    Type
REMARK                         _______ _______ _______ _____ _____    ______ ____
ROOT
ATOM      1  C   UNL     1       2.495   5.829  19.603  0.00  0.00    +0.000 C 
ATOM      2  C   UNL     1       1.362   4.808  19.498  0.00  0.00    +0.000 C 
ATOM      3  C   UNL     1       1.489   3.991  18.223  0.00  0.00    +0.000 C 
ATOM      4  C   UNL     1       2.807   3.239  18.235  0.00  0.00    +0.000 C 
ATOM      5  N   UNL     1       3.962   4.082  18.521  0.00  0.00    +0.000 N 
ATOM      6  C   UNL     1       3.889   5.204  19.343  0.00  0.00    +0.000 C 
ATOM      7  O   UNL     1       4.905   5.801  19.710  0.00  0.00    +0.000 OA
ENDROOT
BRANCH   1  10
ATOM      8  O   UNL     1       1.464   8.410  20.251  0.00  0.00    +0.000 OA
ATOM      9  C   UNL     1       1.862   8.198  19.107  0.00  0.00    +0.000 C 
ATOM     10  N   UNL     1       2.333   6.965  18.688  0.00  0.00    +0.000 N 
ATOM     11  H   UNL     1       2.954   6.983  17.885  0.00  0.00    +0.000 HD
BRANCH   9  12
ATOM     12  C   UNL     1       1.747   9.220  17.988  0.00  0.00    +0.000 C 
BRANCH  12  13
ATOM     13  C   UNL     1       1.065  10.527  18.332  0.00  0.00    +0.000 A 
ATOM     14  C   UNL     1       1.823  11.574  18.890  0.00  0.00    +0.000 A 
ATOM     15  C   UNL     1       1.204  12.723  19.375  0.00  0.00    +0.000 A 
ATOM     16  C   UNL     1      -0.180  12.834  19.312  0.00  0.00    +0.000 A 
ATOM     17  C   UNL     1      -0.942  11.818  18.718  0.00  0.00    +0.000 A 
ATOM     18  C   UNL     1      -2.338  11.922  18.651  0.00  0.00    +0.000 A 
ATOM     19  C   UNL     1      -3.075  10.926  18.028  0.00  0.00    +0.000 A 
ATOM     20  C   UNL     1      -2.389   9.850  17.505  0.00  0.00    +0.000 A 
ATOM     21  N   UNL     1      -1.047   9.686  17.597  0.00  0.00    +0.000 NA
ATOM     22  C   UNL     1      -0.323  10.657  18.190  0.00  0.00    +0.000 A 
ENDBRANCH  12  13
ENDBRANCH   9  12
ENDBRANCH   1  10
BRANCH   5  23
ATOM     23  C   UNL     1       5.277   3.515  18.206  0.00  0.00    +0.000 C 
BRANCH  23  24
ATOM     24  C   UNL     1       5.810   4.001  16.881  0.00  0.00    +0.000 A 
ATOM     25  C   UNL     1       5.017   3.944  15.724  0.00  0.00    +0.000 A 
ATOM     26  C   UNL     1       5.522   4.389  14.498  0.00  0.00    +0.000 A 
ATOM     27  C   UNL     1       6.815   4.898  14.430  0.00  0.00    +0.000 A 
ATOM     28  F   UNL     1       7.297   5.317  13.252  0.00  0.00    +0.000 F 
ATOM     29  C   UNL     1       7.610   4.982  15.564  0.00  0.00    +0.000 A 
ATOM     30  C   UNL     1       7.103   4.537  16.780  0.00  0.00    +0.000 A 
ATOM     31  F   UNL     1       7.876   4.621  17.870  0.00  0.00    +0.000 F 
ENDBRANCH  23  24
ENDBRANCH   5  23
TORSDOF 5
ENDMDL
MODEL 3
REMARK VINA RESULT:      -8.1      2.291      3.344
REMARK  Name = 
REMARK  5 active torsions:
REMARK  status: ('A' for Active; 'I' for Inactive)
REMARK    1  A    between atoms: C_2  and  C_3
REMARK    2  A    between atoms: C_3  and  C_4
REMARK    3  A    between atoms: N_14  and  C_15
REMARK    4  A    between atoms: N_19  and  C_20
REMARK    5  A    between atoms: C_20  and  C_21
REMARK                            x       y       z     vdW  Elec       q    Type
REMARK                         _______ _______ _______ _____ _____    ______ ____
ROOT
ATOM      1  C   UNL     1       3.319   3.886  19.783  0.00  0.00    +0.000 C 
ATOM      2  C   UNL     1       2.353   3.324  18.739  0.00  0.00    +0.000 C 
ATOM      3  C   UNL     1       2.549   4.013  17.398  0.00  0.00    +0.000 C 
ATOM      4  C   UNL     1       3.966   3.774  16.912  0.00  0.00    +0.000 C 
ATOM      5  N   UNL     1       4.989   4.093  17.901  0.00  0.00    +0.000 N 
ATOM      6  C   UNL     1       4.779   3.952  19.271  0.00  0.00    +0.000 C 
ATOM      7  O   UNL     1       5.706   4.061  20.079  0.00  0.00    +0.000 OA
ENDROOT
BRANCH   1  10
ATOM      8  O   UNL     1       0.713   4.760  20.550  0.00  0.00    +0.000 OA
ATOM      9  C   UNL     1       1.656   5.543  20.646  0.00  0.00    +0.000 C 
ATOM     10  N   UNL     1       2.944   5.225  20.253  0.00  0.00    +0.000 N 
ATOM     11  H   UNL     1       3.683   5.766  20.692  0.00  0.00    +0.000 HD
BRANCH   9  12
ATOM     12  C   UNL     1       1.487   6.993  21.069  0.00  0.00    +0.000 C 
BRANCH  12  13
ATOM     13  C   UNL     1       1.479   8.026  19.960  0.00  0.00    +0.000 A 
ATOM     14  C   UNL     1       2.184   7.764  18.770  0.00  0.00    +0.000 A 
ATOM     15  C   UNL     1       2.340   8.753  17.803  0.00  0.00    +0.000 A 
ATOM     16  C   UNL     1       1.798  10.014  18.018  0.00  0.00    +0.000 A 
ATOM     17  C   UNL     1       1.056  10.273  19.179  0.00  0.00    +0.000 A 
ATOM     18  C   UNL     1       0.507  11.543  19.404  0.00  0.00    +0.000 A 
ATOM     19  C   UNL     1      -0.256  11.774  20.539  0.00  0.00    +0.000 A 
ATOM     20  C   UNL     1      -0.430  10.727  21.420  0.00  0.00    +0.000 A 
ATOM     21  N   UNL     1       0.128   9.502  21.266  0.00  0.00    +0.000 NA
ATOM     22  C   UNL     1       0.860   9.267  20.158  0.00  0.00    +0.000 A 
ENDBRANCH  12  13
ENDBRANCH   9  12
ENDBRANCH   1  10
BRANCH   5  23
ATOM     23  C   UNL     1       6.360   4.227  17.400  0.00  0.00    +0.000 C 
BRANCH  23  24
ATOM     24  C   UNL     1       6.918   5.612  17.614  0.00  0.00    +0.000 A 
ATOM     25  C   UNL     1       7.894   5.849  18.596  0.00  0.00    +0.000 A 
ATOM     26  C   UNL     1       8.399   7.138  18.792  0.00  0.00    +0.000 A 
ATOM     27  C   UNL     1       7.936   8.187  18.005  0.00  0.00    +0.000 A 
ATOM     28  F   UNL     1       8.419   9.421  18.202  0.00  0.00    +0.000 F 
ATOM     29  C   UNL     1       6.987   7.973  17.016  0.00  0.00    +0.000 A 
ATOM     30  C   UNL     1       6.487   6.690  16.825  0.00  0.00    +0.000 A 
ATOM     31  F   UNL     1       5.571   6.490  15.869  0.00  0.00    +0.000 F 
ENDBRANCH  23  24
ENDBRANCH   5  23
TORSDOF 5
ENDMDL
MODEL 4
REMARK VINA RESULT:      -8.0      3.842      9.076
REMARK  Name = 
REMARK  5 active torsions:
REMARK  status: ('A' for Active; 'I' for Inactive)
REMARK    1  A    between atoms: C_2  and  C_3
REMARK    2  A    between atoms: C_3  and  C_4
REMARK    3  A    between atoms: N_14  and  C_15
REMARK    4  A    between atoms: N_19  and  C_20
REMARK    5  A    between atoms: C_20  and  C_21
REMARK                            x       y       z     vdW  Elec       q    Type
REMARK                         _______ _______ _______ _____ _____    ______ ____
ROOT
ATOM      1  C   UNL     1       0.721  10.637  18.622  0.00  0.00    +0.000 C 
ATOM      2  C   UNL     1      -0.610  10.974  19.294  0.00  0.00    +0.000 C 
ATOM      3  C   UNL     1      -0.384  11.501  20.702  0.00  0.00    +0.000 C 
ATOM      4  C   UNL     1       0.452  12.766  20.639  0.00  0.00    +0.000 C 
ATOM      5  N   UNL     1       1.671  12.627  19.851  0.00  0.00    +0.000 N 
ATOM      6  C   UNL     1       1.763  11.776  18.752  0.00  0.00    +0.000 C 
ATOM      7  O   UNL     1       2.740  11.801  17.999  0.00  0.00    +0.000 OA
ENDROOT
BRANCH   1  10
ATOM      8  O   UNL     1       2.165   8.685  17.121  0.00  0.00    +0.000 OA
ATOM      9  C   UNL     1       2.054   8.539  18.337  0.00  0.00    +0.000 C 
ATOM     10  N   UNL     1       1.332   9.406  19.138  0.00  0.00    +0.000 N 
ATOM     11  H   UNL     1       1.593   9.416  20.120  0.00  0.00    +0.000 HD
BRANCH   9  12
ATOM     12  C   UNL     1       2.572   7.315  19.073  0.00  0.00    +0.000 C 
BRANCH  12  13
ATOM     13  C   UNL     1       2.745   6.053  18.252  0.00  0.00    +0.000 A 
ATOM     14  C   UNL     1       1.717   5.091  18.244  0.00  0.00    +0.000 A 
ATOM     15  C   UNL     1       1.909   3.850  17.642  0.00  0.00    +0.000 A 
ATOM     16  C   UNL     1       3.131   3.557  17.049  0.00  0.00    +0.000 A 
ATOM     17  C   UNL     1       4.146   4.523  17.013  0.00  0.00    +0.000 A 
ATOM     18  C   UNL     1       5.382   4.235  16.417  0.00  0.00    +0.000 A 
ATOM     19  C   UNL     1       6.363   5.213  16.356  0.00  0.00    +0.000 A 
ATOM     20  C   UNL     1       6.078   6.445  16.909  0.00  0.00    +0.000 A 
ATOM     21  N   UNL     1       4.918   6.745  17.540  0.00  0.00    +0.000 NA
ATOM     22  C   UNL     1       3.955   5.803  17.591  0.00  0.00    +0.000 A 
ENDBRANCH  12  13
ENDBRANCH   9  12
ENDBRANCH   1  10
BRANCH   5  23
ATOM     23  C   UNL     1       2.686  13.669  20.032  0.00  0.00    +0.000 C 
BRANCH  23  24
ATOM     24  C   UNL     1       2.437  14.871  19.155  0.00  0.00    +0.000 A 
ATOM     25  C   UNL     1       1.321  15.696  19.368  0.00  0.00    +0.000 A 
ATOM     26  C   UNL     1       1.095  16.804  18.545  0.00  0.00    +0.000 A 
ATOM     27  C   UNL     1       1.985  17.092  17.516  0.00  0.00    +0.000 A 
ATOM     28  F   UNL     1       1.760  18.151  16.727  0.00  0.00    +0.000 F 
ATOM     29  C   UNL     1       3.106  16.303  17.300  0.00  0.00    +0.000 A 
ATOM     30  C   UNL     1       3.326  15.203  18.121  0.00  0.00    +0.000 A 
ATOM     31  F   UNL     1       4.409  14.445  17.906  0.00  0.00    +0.000 F 
ENDBRANCH  23  24
ENDBRANCH   5  23
TORSDOF 5
ENDMDL
MODEL 5
REMARK VINA RESULT:      -8.0      2.358      3.308
REMARK  Name = 
REMARK  5 active torsions:
REMARK  status: ('A' for Active; 'I' for Inactive)
REMARK    1  A    between atoms: C_2  and  C_3
REMARK    2  A    between atoms: C_3  and  C_4
REMARK    3  A    between atoms: N_14  and  C_15
REMARK    4  A    between atoms: N_19  and  C_20
REMARK    5  A    between atoms: C_20  and  C_21
REMARK                            x       y       z     vdW  Elec       q    Type
REMARK                         _______ _______ _______ _____ _____    ______ ____
ROOT
ATOM      1  C   UNL     1       3.491   4.016  19.708  0.00  0.00    +0.000 C 
ATOM      2  C   UNL     1       2.624   3.448  18.584  0.00  0.00    +0.000 C 
ATOM      3  C   UNL     1       2.899   4.169  17.274  0.00  0.00    +0.000 C 
ATOM      4  C   UNL     1       4.355   3.983  16.893  0.00  0.00    +0.000 C 
ATOM      5  N   UNL     1       5.290   4.312  17.962  0.00  0.00    +0.000 N 
ATOM      6  C   UNL     1       4.983   4.137  19.309  0.00  0.00    +0.000 C 
ATOM      7  O   UNL     1       5.842   4.257  20.187  0.00  0.00    +0.000 OA
ENDROOT
BRANCH   1  10
ATOM      8  O   UNL     1       0.869   4.708  20.599  0.00  0.00    +0.000 OA
ATOM      9  C   UNL     1       1.753   5.563  20.629  0.00  0.00    +0.000 C 
ATOM     10  N   UNL     1       3.040   5.333  20.173  0.00  0.00    +0.000 N 
ATOM     11  H   UNL     1       3.757   5.939  20.561  0.00  0.00    +0.000 HD
BRANCH   9  12
ATOM     12  C   UNL     1       1.496   7.005  21.033  0.00  0.00    +0.000 C 
BRANCH  12  13
ATOM     13  C   UNL     1       1.494   8.031  19.919  0.00  0.00    +0.000 A 
ATOM     14  C   UNL     1       2.198   7.758  18.730  0.00  0.00    +0.000 A 
ATOM     15  C   UNL     1       2.361   8.740  17.757  0.00  0.00    +0.000 A 
ATOM     16  C   UNL     1       1.826  10.006  17.965  0.00  0.00    +0.000 A 
ATOM     17  C   UNL     1       1.085  10.276  19.124  0.00  0.00    +0.000 A 
ATOM     18  C   UNL     1       0.543  11.550  19.341  0.00  0.00    +0.000 A 
ATOM     19  C   UNL     1      -0.218  11.792  20.475  0.00  0.00    +0.000 A 
ATOM     20  C   UNL     1      -0.399  10.751  21.362  0.00  0.00    +0.000 A 
ATOM     21  N   UNL     1       0.152   9.523  21.215  0.00  0.00    +0.000 NA
ATOM     22  C   UNL     1       0.883   9.277  20.109  0.00  0.00    +0.000 A 
ENDBRANCH  12  13
ENDBRANCH   9  12
ENDBRANCH   1  10
BRANCH   5  23
ATOM     23  C   UNL     1       6.690   4.497  17.569  0.00  0.00    +0.000 C 
BRANCH  23  24
ATOM     24  C   UNL     1       7.149   5.925  17.730  0.00  0.00    +0.000 A 
ATOM     25  C   UNL     1       6.643   6.939  16.900  0.00  0.00    +0.000 A 
ATOM     26  C   UNL     1       7.079   8.259  17.051  0.00  0.00    +0.000 A 
ATOM     27  C   UNL     1       8.014   8.568  18.034  0.00  0.00    +0.000 A 
ATOM     28  F   UNL     1       8.433   9.833  18.171  0.00  0.00    +0.000 F 
ATOM     29  C   UNL     1       8.512   7.586  18.879  0.00  0.00    +0.000 A 
ATOM     30  C   UNL     1       8.075   6.275  18.724  0.00  0.00    +0.000 A 
ATOM     31  F   UNL     1       8.561   5.333  19.543  0.00  0.00    +0.000 F 
ENDBRANCH  23  24
ENDBRANCH   5  23
TORSDOF 5
ENDMDL
MODEL 6
REMARK VINA RESULT:      -8.0      3.848      9.258
REMARK  Name = 
REMARK  5 active torsions:
REMARK  status: ('A' for Active; 'I' for Inactive)
REMARK    1  A    between atoms: C_2  and  C_3
REMARK    2  A    between atoms: C_3  and  C_4
REMARK    3  A    between atoms: N_14  and  C_15
REMARK    4  A    between atoms: N_19  and  C_20
REMARK    5  A    between atoms: C_20  and  C_21
REMARK                            x       y       z     vdW  Elec       q    Type
REMARK                         _______ _______ _______ _____ _____    ______ ____
ROOT
ATOM      1  C   UNL     1       0.647  10.768  18.743  0.00  0.00    +0.000 C 
ATOM      2  C   UNL     1      -0.658  11.168  19.432  0.00  0.00    +0.000 C 
ATOM      3  C   UNL     1      -0.384  11.734  20.816  0.00  0.00    +0.000 C 
ATOM      4  C   UNL     1       0.486  12.971  20.691  0.00  0.00    +0.000 C 
ATOM      5  N   UNL     1       1.682  12.769  19.882  0.00  0.00    +0.000 N 
ATOM      6  C   UNL     1       1.724  11.880  18.811  0.00  0.00    +0.000 C 
ATOM      7  O   UNL     1       2.684  11.849  18.037  0.00  0.00    +0.000 OA
ENDROOT
BRANCH   1  10
ATOM      8  O   UNL     1       1.994   8.723  17.278  0.00  0.00    +0.000 OA
ATOM      9  C   UNL     1       1.909   8.622  18.500  0.00  0.00    +0.000 C 
ATOM     10  N   UNL     1       1.233   9.538  19.288  0.00  0.00    +0.000 N 
ATOM     11  H   UNL     1       1.519   9.574  20.262  0.00  0.00    +0.000 HD
BRANCH   9  12
ATOM     12  C   UNL     1       2.408   7.408  19.267  0.00  0.00    +0.000 C 
BRANCH  12  13
ATOM     13  C   UNL     1       3.105   6.335  18.457  0.00  0.00    +0.000 A 
ATOM     14  C   UNL     1       4.171   6.694  17.610  0.00  0.00    +0.000 A 
ATOM     15  C   UNL     1       4.722   5.769  16.727  0.00  0.00    +0.000 A 
ATOM     16  C   UNL     1       4.208   4.479  16.678  0.00  0.00    +0.000 A 
ATOM     17  C   UNL     1       3.177   4.097  17.547  0.00  0.00    +0.000 A 
ATOM     18  C   UNL     1       2.654   2.797  17.503  0.00  0.00    +0.000 A 
ATOM     19  C   UNL     1       1.659   2.424  18.394  0.00  0.00    +0.000 A 
ATOM     20  C   UNL     1       1.210   3.371  19.291  0.00  0.00    +0.000 A 
ATOM     21  N   UNL     1       1.652   4.651  19.330  0.00  0.00    +0.000 NA
ATOM     22  C   UNL     1       2.628   5.017  18.475  0.00  0.00    +0.000 A 
ENDBRANCH  12  13
ENDBRANCH   9  12
ENDBRANCH   1  10
BRANCH   5  23
ATOM     23  C   UNL     1       2.731  13.786  20.005  0.00  0.00    +0.000 C 
BRANCH  23  24
ATOM     24  C   UNL     1       2.487  14.974  19.108  0.00  0.00    +0.000 A 
ATOM     25  C   UNL     1       1.378  15.811  19.310  0.00  0.00    +0.000 A 
ATOM     26  C   UNL     1       1.156  16.905  18.469  0.00  0.00    +0.000 A 
ATOM     27  C   UNL     1       2.044  17.168  17.431  0.00  0.00    +0.000 A 
ATOM     28  F   UNL     1       1.823  18.215  16.624  0.00  0.00    +0.000 F 
ATOM     29  C   UNL     1       3.158  16.368  17.224  0.00  0.00    +0.000 A 
ATOM     30  C   UNL     1       3.373  15.280  18.063  0.00  0.00    +0.000 A 
ATOM     31  F   UNL     1       4.450  14.511  17.858  0.00  0.00    +0.000 F 
ENDBRANCH  23  24
ENDBRANCH   5  23
TORSDOF 5
ENDMDL
MODEL 7
REMARK VINA RESULT:      -7.9      3.958      9.225
REMARK  Name = 
REMARK  5 active torsions:
REMARK  status: ('A' for Active; 'I' for Inactive)
REMARK    1  A    between atoms: C_2  and  C_3
REMARK    2  A    between atoms: C_3  and  C_4
REMARK    3  A    between atoms: N_14  and  C_15
REMARK    4  A    between atoms: N_19  and  C_20
REMARK    5  A    between atoms: C_20  and  C_21
REMARK                            x       y       z     vdW  Elec       q    Type
REMARK                         _______ _______ _______ _____ _____    ______ ____
ROOT
ATOM      1  C   UNL     1       1.277  10.739  19.681  0.00  0.00    +0.000 C 
ATOM      2  C   UNL     1       1.849  12.154  19.584  0.00  0.00    +0.000 C 
ATOM      3  C   UNL     1       1.162  12.938  18.479  0.00  0.00    +0.000 C 
ATOM      4  C   UNL     1      -0.320  13.045  18.782  0.00  0.00    +0.000 C 
ATOM      5  N   UNL     1      -0.951  11.766  19.087  0.00  0.00    +0.000 N 
ATOM      6  C   UNL     1      -0.272  10.722  19.710  0.00  0.00    +0.000 C 
ATOM      7  O   UNL     1      -0.865   9.717  20.113  0.00  0.00    +0.000 OA
ENDROOT
BRANCH   1  10
ATOM      8  O   UNL     1       2.048   8.000  19.894  0.00  0.00    +0.000 OA
ATOM      9  C   UNL     1       2.031   8.529  18.784  0.00  0.00    +0.000 C 
ATOM     10  N   UNL     1       1.718   9.864  18.589  0.00  0.00    +0.000 N 
ATOM     11  H   UNL     1       1.382  10.104  17.661  0.00  0.00    +0.000 HD
BRANCH   9  12
ATOM     12  C   UNL     1       2.491   7.819  17.521  0.00  0.00    +0.000 C 
BRANCH  12  13
ATOM     13  C   UNL     1       3.530   6.731  17.697  0.00  0.00    +0.000 A 
ATOM     14  C   UNL     1       4.896   7.072  17.673  0.00  0.00    +0.000 A 
ATOM     15  C   UNL     1       5.876   6.083  17.660  0.00  0.00    +0.000 A 
ATOM     16  C   UNL     1       5.501   4.745  17.665  0.00  0.00    +0.000 A 
ATOM     17  C   UNL     1       4.146   4.394  17.734  0.00  0.00    +0.000 A 
ATOM     18  C   UNL     1       3.759   3.047  17.739  0.00  0.00    +0.000 A 
ATOM     19  C   UNL     1       2.417   2.714  17.844  0.00  0.00    +0.000 A 
ATOM     20  C   UNL     1       1.504   3.746  17.926  0.00  0.00    +0.000 A 
ATOM     21  N   UNL     1       1.832   5.058  17.870  0.00  0.00    +0.000 NA
ATOM     22  C   UNL     1       3.137   5.388  17.781  0.00  0.00    +0.000 A 
ENDBRANCH  12  13
ENDBRANCH   9  12
ENDBRANCH   1  10
BRANCH   5  23
ATOM     23  C   UNL     1      -2.416  11.736  19.042  0.00  0.00    +0.000 C 
BRANCH  23  24
ATOM     24  C   UNL     1      -2.940  11.242  17.716  0.00  0.00    +0.000 A 
ATOM     25  C   UNL     1      -2.152  10.422  16.893  0.00  0.00    +0.000 A 
ATOM     26  C   UNL     1      -2.643   9.975  15.662  0.00  0.00    +0.000 A 
ATOM     27  C   UNL     1      -3.922  10.342  15.256  0.00  0.00    +0.000 A 
ATOM     28  F   UNL     1      -4.385   9.917  14.073  0.00  0.00    +0.000 F 
ATOM     29  C   UNL     1      -4.726  11.135  16.061  0.00  0.00    +0.000 A 
ATOM     30  C   UNL     1      -4.233  11.577  17.284  0.00  0.00    +0.000 A 
ATOM     31  F   UNL     1      -5.015  12.343  18.056  0.00  0.00    +0.000 F 
ENDBRANCH  23  24
ENDBRANCH   5  23
TORSDOF 5
ENDMDL
MODEL 8
REMARK VINA RESULT:      -7.8      3.943      9.011
REMARK  Name = 
REMARK  5 active torsions:
REMARK  status: ('A' for Active; 'I' for Inactive)
REMARK    1  A    between atoms: C_2  and  C_3
REMARK    2  A    between atoms: C_3  and  C_4
REMARK    3  A    between atoms: N_14  and  C_15
REMARK    4  A    between atoms: N_19  and  C_20
REMARK    5  A    between atoms: C_20  and  C_21
REMARK                            x       y       z     vdW  Elec       q    Type
REMARK                         _______ _______ _______ _____ _____    ______ ____
ROOT
ATOM      1  C   UNL     1       1.244  10.645  19.787  0.00  0.00    +0.000 C 
ATOM      2  C   UNL     1       1.821  12.060  19.723  0.00  0.00    +0.000 C 
ATOM      3  C   UNL     1       1.172  12.855  18.601  0.00  0.00    +0.000 C 
ATOM      4  C   UNL     1      -0.320  12.960  18.855  0.00  0.00    +0.000 C 
ATOM      5  N   UNL     1      -0.962  11.680  19.126  0.00  0.00    +0.000 N 
ATOM      6  C   UNL     1      -0.305  10.629  19.762  0.00  0.00    +0.000 C 
ATOM      7  O   UNL     1      -0.911   9.622  20.135  0.00  0.00    +0.000 OA
ENDROOT
BRANCH   1  10
ATOM      8  O   UNL     1       2.075   7.924  20.014  0.00  0.00    +0.000 OA
ATOM      9  C   UNL     1       2.062   8.452  18.903  0.00  0.00    +0.000 C 
ATOM     10  N   UNL     1       1.722   9.779  18.702  0.00  0.00    +0.000 N 
ATOM     11  H   UNL     1       1.395  10.011  17.770  0.00  0.00    +0.000 HD
BRANCH   9  12
ATOM     12  C   UNL     1       2.558   7.752  17.649  0.00  0.00    +0.000 C 
BRANCH  12  13
ATOM     13  C   UNL     1       3.124   6.359  17.829  0.00  0.00    +0.000 A 
ATOM     14  C   UNL     1       2.257   5.301  18.162  0.00  0.00    +0.000 A 
ATOM     15  C   UNL     1       2.760   4.048  18.502  0.00  0.00    +0.000 A 
ATOM     16  C   UNL     1       4.134   3.842  18.517  0.00  0.00    +0.000 A 
ATOM     17  C   UNL     1       5.006   4.874  18.143  0.00  0.00    +0.000 A 
ATOM     18  C   UNL     1       6.393   4.675  18.156  0.00  0.00    +0.000 A 
ATOM     19  C   UNL     1       7.240   5.694  17.749  0.00  0.00    +0.000 A 
ATOM     20  C   UNL     1       6.669   6.887  17.357  0.00  0.00    +0.000 A 
ATOM     21  N   UNL     1       5.339   7.137  17.381  0.00  0.00    +0.000 NA
ATOM     22  C   UNL     1       4.508   6.146  17.763  0.00  0.00    +0.000 A 
ENDBRANCH  12  13
ENDBRANCH   9  12
ENDBRANCH   1  10
BRANCH   5  23
ATOM     23  C   UNL     1      -2.424  11.651  19.030  0.00  0.00    +0.000 C 
BRANCH  23  24
ATOM     24  C   UNL     1      -2.903  11.178  17.680  0.00  0.00    +0.000 A 
ATOM     25  C   UNL     1      -2.114  10.318  16.900  0.00  0.00    +0.000 A 
ATOM     26  C   UNL     1      -2.562   9.892  15.646  0.00  0.00    +0.000 A 
ATOM     27  C   UNL     1      -3.799  10.318  15.174  0.00  0.00    +0.000 A 
ATOM     28  F   UNL     1      -4.221   9.911  13.970  0.00  0.00    +0.000 F 
ATOM     29  C   UNL     1      -4.605  11.151  15.936  0.00  0.00    +0.000 A 
ATOM     30  C   UNL     1      -4.154  11.573  17.182  0.00  0.00    +0.000 A 
ATOM     31  F   UNL     1      -4.937  12.378  17.912  0.00  0.00    +0.000 F 
ENDBRANCH  23  24
ENDBRANCH   5  23
TORSDOF 5
ENDMDL
MODEL 9
REMARK VINA RESULT:      -7.8      0.915      1.271
REMARK  Name = 
REMARK  5 active torsions:
REMARK  status: ('A' for Active; 'I' for Inactive)
REMARK    1  A    between atoms: C_2  and  C_3
REMARK    2  A    between atoms: C_3  and  C_4
REMARK    3  A    between atoms: N_14  and  C_15
REMARK    4  A    between atoms: N_19  and  C_20
REMARK    5  A    between atoms: C_20  and  C_21
REMARK                            x       y       z     vdW  Elec       q    Type
REMARK                         _______ _______ _______ _____ _____    ______ ____
ROOT
ATOM      1  C   UNL     1       2.656   6.069  20.149  0.00  0.00    +0.000 C 
ATOM      2  C   UNL     1       1.480   5.142  20.457  0.00  0.00    +0.000 C 
ATOM      3  C   UNL     1       1.296   4.117  19.349  0.00  0.00    +0.000 C 
ATOM      4  C   UNL     1       2.550   3.272  19.231  0.00  0.00    +0.000 C 
ATOM      5  N   UNL     1       3.778   4.051  19.126  0.00  0.00    +0.000 N 
ATOM      6  C   UNL     1       3.932   5.296  19.732  0.00  0.00    +0.000 C 
ATOM      7  O   UNL     1       5.030   5.859  19.776  0.00  0.00    +0.000 OA
ENDROOT
BRANCH   1  10
ATOM      8  O   UNL     1       1.410   8.613  20.487  0.00  0.00    +0.000 OA
ATOM      9  C   UNL     1       1.788   8.280  19.365  0.00  0.00    +0.000 C 
ATOM     10  N   UNL     1       2.358   7.047  19.097  0.00  0.00    +0.000 N 
ATOM     11  H   UNL     1       2.947   7.008  18.271  0.00  0.00    +0.000 HD
BRANCH   9  12
ATOM     12  C   UNL     1       1.541   9.122  18.125  0.00  0.00    +0.000 C 
BRANCH  12  13
ATOM     13  C   UNL     1       0.375  10.088  18.182  0.00  0.00    +0.000 A 
ATOM     14  C   UNL     1      -0.896   9.658  17.756  0.00  0.00    +0.000 A 
ATOM     15  C   UNL     1      -1.949  10.561  17.635  0.00  0.00    +0.000 A 
ATOM     16  C   UNL     1      -1.740  11.902  17.932  0.00  0.00    +0.000 A 
ATOM     17  C   UNL     1      -0.491  12.334  18.399  0.00  0.00    +0.000 A 
ATOM     18  C   UNL     1      -0.271  13.685  18.700  0.00  0.00    +0.000 A 
ATOM     19  C   UNL     1       0.959  14.090  19.197  0.00  0.00    +0.000 A 
ATOM     20  C   UNL     1       1.935  13.129  19.361  0.00  0.00    +0.000 A 
ATOM     21  N   UNL     1       1.780  11.824  19.031  0.00  0.00    +0.000 NA
ATOM     22  C   UNL     1       0.582  11.421  18.560  0.00  0.00    +0.000 A 
ENDBRANCH  12  13
ENDBRANCH   9  12
ENDBRANCH   1  10
BRANCH   5  23
ATOM     23  C   UNL     1       4.968   3.333  18.661  0.00  0.00    +0.000 C 
BRANCH  23  24
ATOM     24  C   UNL     1       5.520   3.903  17.378  0.00  0.00    +0.000 A 
ATOM     25  C   UNL     1       6.842   4.369  17.310  0.00  0.00    +0.000 A 
ATOM     26  C   UNL     1       7.342   4.903  16.119  0.00  0.00    +0.000 A 
ATOM     27  C   UNL     1       6.526   4.965  14.994  0.00  0.00    +0.000 A 
ATOM     28  F   UNL     1       7.008   5.483  13.857  0.00  0.00    +0.000 F 
ATOM     29  C   UNL     1       5.222   4.491  15.032  0.00  0.00    +0.000 A 
ATOM     30  C   UNL     1       4.730   3.962  16.220  0.00  0.00    +0.000 A 
ATOM     31  F   UNL     1       3.470   3.507  16.249  0.00  0.00    +0.000 F 
ENDBRANCH  23  24
ENDBRANCH   5  23
TORSDOF 5
ENDMDL
