MODEL 1
REMARK VINA RESULT:      -8.2      0.000      0.000
REMARK  Name = 
REMARK  6 active torsions:
REMARK  status: ('A' for Active; 'I' for Inactive)
REMARK    1  A    between atoms: C_1  and  C_2
REMARK    2  A    between atoms: C_6  and  C_7
REMARK    3  A    between atoms: C_8  and  N_9
REMARK    4  A    between atoms: N_15  and  C_16
REMARK    5  A    between atoms: C_16  and  C_17
REMARK    6  A    between atoms: N_19  and  C_20
REMARK                            x       y       z     vdW  Elec       q    Type
REMARK                         _______ _______ _______ _____ _____    ______ ____
ROOT
ATOM      1  N   UNL     1       4.049   4.252  18.440  0.00  0.00    +0.000 N 
ATOM      2  C   UNL     1       4.634   3.698  17.302  0.00  0.00    +0.000 C 
ATOM      3  O   UNL     1       4.286   2.725  16.648  0.00  0.00    +0.000 OA
ATOM      4  C   UNL     1       5.655   4.684  16.891  0.00  0.00    +0.000 C 
ATOM      5  N   UNL     1       6.942   4.282  16.330  0.00  0.00    +0.000 NA
ATOM      6  N   UNL     1       7.805   5.141  16.710  0.00  0.00    +0.000 NA
ATOM      7  N   UNL     1       7.214   5.975  17.674  0.00  0.00    +0.000 N 
ATOM      8  C   UNL     1       6.102   5.224  18.210  0.00  0.00    +0.000 C 
ATOM      9  C   UNL     1       4.753   5.386  18.865  0.00  0.00    +0.000 C 
ATOM     10  O   UNL     1       4.473   6.239  19.689  0.00  0.00    +0.000 OA
ENDROOT
BRANCH   1  18
ATOM     11  C   UNL     1       1.248   4.872  17.639  0.00  0.00    +0.000 C 
ATOM     12  C   UNL     1       1.623   3.995  18.804  0.00  0.00    +0.000 A 
ATOM     13  C   UNL     1       0.569   3.424  19.544  0.00  0.00    +0.000 A 
ATOM     14  C   UNL     1       0.821   2.513  20.566  0.00  0.00    +0.000 A 
ATOM     15  C   UNL     1       2.130   2.165  20.871  0.00  0.00    +0.000 A 
ATOM     16  C   UNL     1       3.210   2.741  20.181  0.00  0.00    +0.000 A 
ATOM     17  C   UNL     1       4.595   2.342  20.628  0.00  0.00    +0.000 C 
ATOM     18  C   UNL     1       2.960   3.668  19.134  0.00  0.00    +0.000 A 
ENDBRANCH   1  18
BRANCH   7  19
ATOM     19  C   UNL     1       8.130   6.700  18.546  0.00  0.00    +0.000 C 
BRANCH  19  20
ATOM     20  C   UNL     1       8.206   8.205  18.276  0.00  0.00    +0.000 C 
ATOM     21  O   UNL     1       7.474   8.699  17.422  0.00  0.00    +0.000 OA
ATOM     22  N   UNL     1       9.046   8.893  19.138  0.00  0.00    +0.000 N 
ATOM     23  H   UNL     1       9.617   8.320  19.749  0.00  0.00    +0.000 HD
BRANCH  22  24
ATOM     24  C   UNL     1       9.296  10.284  19.123  0.00  0.00    +0.000 A 
ATOM     25  C   UNL     1       9.527  11.003  17.944  0.00  0.00    +0.000 A 
ATOM     26  C   UNL     1       9.866  12.359  17.982  0.00  0.00    +0.000 A 
ATOM     27  C   UNL     1       9.970  13.013  19.204  0.00  0.00    +0.000 A 
ATOM     28  C   UNL     1       9.695  12.312  20.373  0.00  0.00    +0.000 A 
ATOM     29  F   UNL     1       9.791  12.942  21.551  0.00  0.00    +0.000 F 
ATOM     30  C   UNL     1       9.340  10.962  20.344  0.00  0.00    +0.000 A 
ENDBRANCH  22  24
ENDBRANCH  19  20
ENDBRANCH   7  19
TORSDOF 4
ENDMDL
MODEL 2
REMARK VINA RESULT:      -8.1      0.976      1.321
REMARK  Name = 
REMARK  6 active torsions:
REMARK  status: ('A' for Active; 'I' for Inactive)
REMARK    1  A    between atoms: C_1  and  C_2
REMARK    2  A    between atoms: C_6  and  C_7
REMARK    3  A    between atoms: C_8  and  N_9
REMARK    4  A    between atoms: N_15  and  C_16
REMARK    5  A    between atoms: C_16  and  C_17
REMARK    6  A    between atoms: N_19  and  C_20
REMARK                            x       y       z     vdW  Elec       q    Type
REMARK                         _______ _______ _______ _____ _____    ______ ____
ROOT
ATOM      1  N   UNL     1       3.993   4.457  18.063  0.00  0.00    +0.000 N 
ATOM      2  C   UNL     1       4.514   4.139  16.809  0.00  0.00    +0.000 C 
ATOM      3  O   UNL     1       4.146   3.289  16.011  0.00  0.00    +0.000 OA
ATOM      4  C   UNL     1       5.483   5.218  16.524  0.00  0.00    +0.000 C 
ATOM      5  N   UNL     1       6.739   4.969  15.822  0.00  0.00    +0.000 NA
ATOM      6  N   UNL     1       7.604   5.775  16.300  0.00  0.00    +0.000 NA
ATOM      7  N   UNL     1       7.059   6.400  17.434  0.00  0.00    +0.000 N 
ATOM      8  C   UNL     1       6.003   5.525  17.890  0.00  0.00    +0.000 C 
ATOM      9  C   UNL     1       4.696   5.519  18.645  0.00  0.00    +0.000 C 
ATOM     10  O   UNL     1       4.452   6.198  19.626  0.00  0.00    +0.000 OA
ENDROOT
BRANCH   1  18
ATOM     11  C   UNL     1       1.137   4.945  17.375  0.00  0.00    +0.000 C 
ATOM     12  C   UNL     1       1.602   3.977  18.430  0.00  0.00    +0.000 A 
ATOM     13  C   UNL     1       0.610   3.250  19.117  0.00  0.00    +0.000 A 
ATOM     14  C   UNL     1       0.951   2.255  20.028  0.00  0.00    +0.000 A 
ATOM     15  C   UNL     1       2.289   1.976  20.274  0.00  0.00    +0.000 A 
ATOM     16  C   UNL     1       3.308   2.704  19.637  0.00  0.00    +0.000 A 
ATOM     17  C   UNL     1       4.728   2.366  20.018  0.00  0.00    +0.000 C 
ATOM     18  C   UNL     1       2.966   3.719  18.703  0.00  0.00    +0.000 A 
ENDBRANCH   1  18
BRANCH   7  19
ATOM     19  C   UNL     1       8.014   6.986  18.367  0.00  0.00    +0.000 C 
BRANCH  19  20
ATOM     20  C   UNL     1       8.217   8.495  18.202  0.00  0.00    +0.000 C 
ATOM     21  O   UNL     1       7.590   9.093  17.332  0.00  0.00    +0.000 OA
ATOM     22  N   UNL     1       9.034   9.064  19.167  0.00  0.00    +0.000 N 
ATOM     23  H   UNL     1       9.514   8.414  19.778  0.00  0.00    +0.000 HD
BRANCH  22  24
ATOM     24  C   UNL     1       9.382  10.431  19.261  0.00  0.00    +0.000 A 
ATOM     25  C   UNL     1       9.383  11.134  20.472  0.00  0.00    +0.000 A 
ATOM     26  C   UNL     1       9.640  12.508  20.508  0.00  0.00    +0.000 A 
ATOM     27  C   UNL     1       9.908  13.192  19.328  0.00  0.00    +0.000 A 
ATOM     28  C   UNL     1       9.955  12.487  18.131  0.00  0.00    +0.000 A 
ATOM     29  F   UNL     1      10.218  13.145  16.994  0.00  0.00    +0.000 F 
ATOM     30  C   UNL     1       9.715  11.112  18.088  0.00  0.00    +0.000 A 
ENDBRANCH  22  24
ENDBRANCH  19  20
ENDBRANCH   7  19
TORSDOF 4
ENDMDL
MODEL 3
REMARK VINA RESULT:      -8.1      0.589      1.725
REMARK  Name = 
REMARK  6 active torsions:
REMARK  status: ('A' for Active; 'I' for Inactive)
REMARK    1  A    between atoms: C_1  and  C_2
REMARK    2  A    between atoms: C_6  and  C_7
REMARK    3  A    between atoms: C_8  and  N_9
REMARK    4  A    between atoms: N_15  and  C_16
REMARK    5  A    between atoms: C_16  and  C_17
REMARK    6  A    between atoms: N_19  and  C_20
REMARK                            x       y       z     vdW  Elec       q    Type
REMARK                         _______ _______ _______ _____ _____    ______ ____
ROOT
ATOM      1  N   UNL     1       4.040   4.473  18.003  0.00  0.00    +0.000 N 
ATOM      2  C   UNL     1       4.580   4.193  16.747  0.00  0.00    +0.000 C 
ATOM      3  O   UNL     1       4.237   3.353  15.927  0.00  0.00    +0.000 OA
ATOM      4  C   UNL     1       5.529   5.297  16.495  0.00  0.00    +0.000 C 
ATOM      5  N   UNL     1       6.797   5.089  15.801  0.00  0.00    +0.000 NA
ATOM      6  N   UNL     1       7.641   5.902  16.305  0.00  0.00    +0.000 NA
ATOM      7  N   UNL     1       7.072   6.491  17.446  0.00  0.00    +0.000 N 
ATOM      8  C   UNL     1       6.030   5.585  17.872  0.00  0.00    +0.000 C 
ATOM      9  C   UNL     1       4.716   5.536  18.614  0.00  0.00    +0.000 C 
ATOM     10  O   UNL     1       4.449   6.188  19.607  0.00  0.00    +0.000 OA
ENDROOT
BRANCH   1  18
ATOM     11  C   UNL     1       4.746   2.327  19.943  0.00  0.00    +0.000 C 
ATOM     12  C   UNL     1       3.342   2.639  19.497  0.00  0.00    +0.000 A 
ATOM     13  C   UNL     1       2.304   1.868  20.055  0.00  0.00    +0.000 A 
ATOM     14  C   UNL     1       0.970   2.160  19.787  0.00  0.00    +0.000 A 
ATOM     15  C   UNL     1       0.651   3.220  18.949  0.00  0.00    +0.000 A 
ATOM     16  C   UNL     1       1.659   3.990  18.343  0.00  0.00    +0.000 A 
ATOM     17  C   UNL     1       1.210   5.081  17.403  0.00  0.00    +0.000 C 
ATOM     18  C   UNL     1       3.023   3.700  18.616  0.00  0.00    +0.000 A 
ENDBRANCH   1  18
BRANCH   7  19
ATOM     19  C   UNL     1       8.006   7.075  18.401  0.00  0.00    +0.000 C 
BRANCH  19  20
ATOM     20  C   UNL     1       8.196   8.588  18.256  0.00  0.00    +0.000 C 
ATOM     21  O   UNL     1       7.494   9.208  17.462  0.00  0.00    +0.000 OA
ATOM     22  N   UNL     1       9.098   9.133  19.157  0.00  0.00    +0.000 N 
ATOM     23  H   UNL     1       9.631   8.468  19.706  0.00  0.00    +0.000 HD
BRANCH  22  24
ATOM     24  C   UNL     1       9.457  10.497  19.254  0.00  0.00    +0.000 A 
ATOM     25  C   UNL     1       9.828  11.267  18.145  0.00  0.00    +0.000 A 
ATOM     26  C   UNL     1      10.268  12.585  18.298  0.00  0.00    +0.000 A 
ATOM     27  C   UNL     1      10.334  13.150  19.566  0.00  0.00    +0.000 A 
ATOM     28  C   UNL     1       9.920  12.402  20.663  0.00  0.00    +0.000 A 
ATOM     29  F   UNL     1       9.979  12.948  21.885  0.00  0.00    +0.000 F 
ATOM     30  C   UNL     1       9.464  11.091  20.518  0.00  0.00    +0.000 A 
ENDBRANCH  22  24
ENDBRANCH  19  20
ENDBRANCH   7  19
TORSDOF 4
ENDMDL
MODEL 4
REMARK VINA RESULT:      -8.0      1.184      2.185
REMARK  Name = 
REMARK  6 active torsions:
REMARK  status: ('A' for Active; 'I' for Inactive)
REMARK    1  A    between atoms: C_1  and  C_2
REMARK    2  A    between atoms: C_6  and  C_7
REMARK    3  A    between atoms: C_8  and  N_9
REMARK    4  A    between atoms: N_15  and  C_16
REMARK    5  A    between atoms: C_16  and  C_17
REMARK    6  A    between atoms: N_19  and  C_20
REMARK                            x       y       z     vdW  Elec       q    Type
REMARK                         _______ _______ _______ _____ _____    ______ ____
ROOT
ATOM      1  N   UNL     1       4.174   4.601  17.834  0.00  0.00    +0.000 N 
ATOM      2  C   UNL     1       4.713   4.424  16.559  0.00  0.00    +0.000 C 
ATOM      3  O   UNL     1       4.389   3.634  15.685  0.00  0.00    +0.000 OA
ATOM      4  C   UNL     1       5.627   5.572  16.380  0.00  0.00    +0.000 C 
ATOM      5  N   UNL     1       6.896   5.449  15.667  0.00  0.00    +0.000 NA
ATOM      6  N   UNL     1       7.720   6.250  16.222  0.00  0.00    +0.000 NA
ATOM      7  N   UNL     1       7.142   6.741  17.404  0.00  0.00    +0.000 N 
ATOM      8  C   UNL     1       6.129   5.778  17.772  0.00  0.00    +0.000 C 
ATOM      9  C   UNL     1       4.823   5.639  18.514  0.00  0.00    +0.000 C 
ATOM     10  O   UNL     1       4.543   6.213  19.551  0.00  0.00    +0.000 OA
ENDROOT
BRANCH   1  18
ATOM     11  C   UNL     1       4.957   2.328  19.591  0.00  0.00    +0.000 C 
ATOM     12  C   UNL     1       3.540   2.639  19.188  0.00  0.00    +0.000 A 
ATOM     13  C   UNL     1       2.528   1.802  19.697  0.00  0.00    +0.000 A 
ATOM     14  C   UNL     1       1.184   2.081  19.468  0.00  0.00    +0.000 A 
ATOM     15  C   UNL     1       0.829   3.195  18.720  0.00  0.00    +0.000 A 
ATOM     16  C   UNL     1       1.810   4.035  18.165  0.00  0.00    +0.000 A 
ATOM     17  C   UNL     1       1.322   5.184  17.318  0.00  0.00    +0.000 C 
ATOM     18  C   UNL     1       3.184   3.758  18.397  0.00  0.00    +0.000 A 
ENDBRANCH   1  18
BRANCH   7  19
ATOM     19  C   UNL     1       8.064   7.286  18.393  0.00  0.00    +0.000 C 
BRANCH  19  20
ATOM     20  C   UNL     1       8.267   8.801  18.304  0.00  0.00    +0.000 C 
ATOM     21  O   UNL     1       7.533   9.463  17.575  0.00  0.00    +0.000 OA
ATOM     22  N   UNL     1       9.221   9.296  19.179  0.00  0.00    +0.000 N 
ATOM     23  H   UNL     1       9.773   8.602  19.670  0.00  0.00    +0.000 HD
BRANCH  22  24
ATOM     24  C   UNL     1       9.602  10.651  19.316  0.00  0.00    +0.000 A 
ATOM     25  C   UNL     1       9.385  11.387  20.487  0.00  0.00    +0.000 A 
ATOM     26  C   UNL     1       9.689  12.751  20.548  0.00  0.00    +0.000 A 
ATOM     27  C   UNL     1      10.223  13.390  19.435  0.00  0.00    +0.000 A 
ATOM     28  C   UNL     1      10.484  12.650  18.288  0.00  0.00    +0.000 A 
ATOM     29  F   UNL     1      11.003  13.265  17.216  0.00  0.00    +0.000 F 
ATOM     30  C   UNL     1      10.198  11.285  18.224  0.00  0.00    +0.000 A 
ENDBRANCH  22  24
ENDBRANCH  19  20
ENDBRANCH   7  19
TORSDOF 4
ENDMDL
MODEL 5
REMARK VINA RESULT:      -7.9      6.871      9.575
REMARK  Name = 
REMARK  6 active torsions:
REMARK  status: ('A' for Active; 'I' for Inactive)
REMARK    1  A    between atoms: C_1  and  C_2
REMARK    2  A    between atoms: C_6  and  C_7
REMARK    3  A    between atoms: C_8  and  N_9
REMARK    4  A    between atoms: N_15  and  C_16
REMARK    5  A    between atoms: C_16  and  C_17
REMARK    6  A    between atoms: N_19  and  C_20
REMARK                            x       y       z     vdW  Elec       q    Type
REMARK                         _______ _______ _______ _____ _____    ______ ____
ROOT
ATOM      1  N   UNL     1      -0.685  11.635  19.861  0.00  0.00    +0.000 N 
ATOM      2  C   UNL     1       0.226  12.488  19.240  0.00  0.00    +0.000 C 
ATOM      3  O   UNL     1       0.162  13.697  19.068  0.00  0.00    +0.000 OA
ATOM      4  C   UNL     1       1.430  11.657  19.029  0.00  0.00    +0.000 C 
ATOM      5  N   UNL     1       2.267  11.788  17.839  0.00  0.00    +0.000 NA
ATOM      6  N   UNL     1       2.724  10.629  17.569  0.00  0.00    +0.000 NA
ATOM      7  N   UNL     1       2.068   9.687  18.379  0.00  0.00    +0.000 N 
ATOM      8  C   UNL     1       0.829  10.313  18.778  0.00  0.00    +0.000 C 
ATOM      9  C   UNL     1      -0.214  10.316  19.869  0.00  0.00    +0.000 C 
ATOM     10  O   UNL     1      -0.614   9.328  20.457  0.00  0.00    +0.000 OA
ENDROOT
BRANCH   1  18
ATOM     11  C   UNL     1      -3.011  11.609  18.002  0.00  0.00    +0.000 C 
ATOM     12  C   UNL     1      -3.070  12.088  19.428  0.00  0.00    +0.000 A 
ATOM     13  C   UNL     1      -4.319  12.534  19.905  0.00  0.00    +0.000 A 
ATOM     14  C   UNL     1      -4.492  12.890  21.240  0.00  0.00    +0.000 A 
ATOM     15  C   UNL     1      -3.419  12.812  22.118  0.00  0.00    +0.000 A 
ATOM     16  C   UNL     1      -2.149  12.407  21.672  0.00  0.00    +0.000 A 
ATOM     17  C   UNL     1      -1.036  12.415  22.691  0.00  0.00    +0.000 C 
ATOM     18  C   UNL     1      -1.966  12.040  20.312  0.00  0.00    +0.000 A 
ENDBRANCH   1  18
BRANCH   7  19
ATOM     19  C   UNL     1       2.105   8.305  17.917  0.00  0.00    +0.000 C 
BRANCH  19  20
ATOM     20  C   UNL     1       2.215   7.265  19.037  0.00  0.00    +0.000 C 
ATOM     21  O   UNL     1       2.221   7.640  20.206  0.00  0.00    +0.000 OA
ATOM     22  N   UNL     1       2.180   5.952  18.593  0.00  0.00    +0.000 N 
ATOM     23  H   UNL     1       2.230   5.823  17.590  0.00  0.00    +0.000 HD
BRANCH  22  24
ATOM     24  C   UNL     1       2.253   4.797  19.406  0.00  0.00    +0.000 A 
ATOM     25  C   UNL     1       1.220   4.406  20.267  0.00  0.00    +0.000 A 
ATOM     26  C   UNL     1       1.372   3.312  21.124  0.00  0.00    +0.000 A 
ATOM     27  C   UNL     1       2.560   2.590  21.121  0.00  0.00    +0.000 A 
ATOM     28  C   UNL     1       3.567   2.948  20.233  0.00  0.00    +0.000 A 
ATOM     29  F   UNL     1       4.711   2.250  20.226  0.00  0.00    +0.000 F 
ATOM     30  C   UNL     1       3.419   4.029  19.362  0.00  0.00    +0.000 A 
ENDBRANCH  22  24
ENDBRANCH  19  20
ENDBRANCH   7  19
TORSDOF 4
ENDMDL
MODEL 6
REMARK VINA RESULT:      -7.9      6.876      9.677
REMARK  Name = 
REMARK  6 active torsions:
REMARK  status: ('A' for Active; 'I' for Inactive)
REMARK    1  A    between atoms: C_1  and  C_2
REMARK    2  A    between atoms: C_6  and  C_7
REMARK    3  A    between atoms: C_8  and  N_9
REMARK    4  A    between atoms: N_15  and  C_16
REMARK    5  A    between atoms: C_16  and  C_17
REMARK    6  A    between atoms: N_19  and  C_20
REMARK                            x       y       z     vdW  Elec       q    Type
REMARK                         _______ _______ _______ _____ _____    ______ ____
ROOT
ATOM      1  N   UNL     1      -0.686  11.648  19.863  0.00  0.00    +0.000 N 
ATOM      2  C   UNL     1       0.233  12.497  19.245  0.00  0.00    +0.000 C 
ATOM      3  O   UNL     1       0.176  13.706  19.074  0.00  0.00    +0.000 OA
ATOM      4  C   UNL     1       1.433  11.659  19.037  0.00  0.00    +0.000 C 
ATOM      5  N   UNL     1       2.273  11.787  17.850  0.00  0.00    +0.000 NA
ATOM      6  N   UNL     1       2.726  10.626  17.581  0.00  0.00    +0.000 NA
ATOM      7  N   UNL     1       2.062   9.686  18.388  0.00  0.00    +0.000 N 
ATOM      8  C   UNL     1       0.825  10.319  18.783  0.00  0.00    +0.000 C 
ATOM      9  C   UNL     1      -0.222  10.327  19.870  0.00  0.00    +0.000 C 
ATOM     10  O   UNL     1      -0.629   9.340  20.456  0.00  0.00    +0.000 OA
ENDROOT
BRANCH   1  18
ATOM     11  C   UNL     1      -1.070  12.583  22.664  0.00  0.00    +0.000 C 
ATOM     12  C   UNL     1      -2.179  12.452  21.653  0.00  0.00    +0.000 A 
ATOM     13  C   UNL     1      -3.475  12.816  22.069  0.00  0.00    +0.000 A 
ATOM     14  C   UNL     1      -4.538  12.833  21.172  0.00  0.00    +0.000 A 
ATOM     15  C   UNL     1      -4.327  12.480  19.846  0.00  0.00    +0.000 A 
ATOM     16  C   UNL     1      -3.056  12.076  19.400  0.00  0.00    +0.000 A 
ATOM     17  C   UNL     1      -2.944  11.654  17.956  0.00  0.00    +0.000 C 
ATOM     18  C   UNL     1      -1.966  12.059  20.310  0.00  0.00    +0.000 A 
ENDBRANCH   1  18
BRANCH   7  19
ATOM     19  C   UNL     1       2.093   8.304  17.925  0.00  0.00    +0.000 C 
BRANCH  19  20
ATOM     20  C   UNL     1       2.208   7.264  19.042  0.00  0.00    +0.000 C 
ATOM     21  O   UNL     1       2.217   7.638  20.212  0.00  0.00    +0.000 OA
ATOM     22  N   UNL     1       2.174   5.951  18.598  0.00  0.00    +0.000 N 
ATOM     23  H   UNL     1       2.221   5.823  17.594  0.00  0.00    +0.000 HD
BRANCH  22  24
ATOM     24  C   UNL     1       2.251   4.796  19.409  0.00  0.00    +0.000 A 
ATOM     25  C   UNL     1       1.219   4.398  20.268  0.00  0.00    +0.000 A 
ATOM     26  C   UNL     1       1.375   3.304  21.124  0.00  0.00    +0.000 A 
ATOM     27  C   UNL     1       2.567   2.588  21.121  0.00  0.00    +0.000 A 
ATOM     28  C   UNL     1       3.574   2.952  20.235  0.00  0.00    +0.000 A 
ATOM     29  F   UNL     1       4.721   2.259  20.230  0.00  0.00    +0.000 F 
ATOM     30  C   UNL     1       3.421   4.033  19.366  0.00  0.00    +0.000 A 
ENDBRANCH  22  24
ENDBRANCH  19  20
ENDBRANCH   7  19
TORSDOF 4
ENDMDL
MODEL 7
REMARK VINA RESULT:      -7.8      5.048      7.051
REMARK  Name = 
REMARK  6 active torsions:
REMARK  status: ('A' for Active; 'I' for Inactive)
REMARK    1  A    between atoms: C_1  and  C_2
REMARK    2  A    between atoms: C_6  and  C_7
REMARK    3  A    between atoms: C_8  and  N_9
REMARK    4  A    between atoms: N_15  and  C_16
REMARK    5  A    between atoms: C_16  and  C_17
REMARK    6  A    between atoms: N_19  and  C_20
REMARK                            x       y       z     vdW  Elec       q    Type
REMARK                         _______ _______ _______ _____ _____    ______ ____
ROOT
ATOM      1  N   UNL     1       3.593   4.858  18.666  0.00  0.00    +0.000 N 
ATOM      2  C   UNL     1       3.165   5.989  17.969  0.00  0.00    +0.000 C 
ATOM      3  O   UNL     1       2.062   6.515  17.951  0.00  0.00    +0.000 OA
ATOM      4  C   UNL     1       4.405   6.581  17.424  0.00  0.00    +0.000 C 
ATOM      5  N   UNL     1       4.449   7.216  16.109  0.00  0.00    +0.000 NA
ATOM      6  N   UNL     1       5.607   6.997  15.623  0.00  0.00    +0.000 NA
ATOM      7  N   UNL     1       6.270   6.066  16.440  0.00  0.00    +0.000 N 
ATOM      8  C   UNL     1       5.227   5.364  17.153  0.00  0.00    +0.000 C 
ATOM      9  C   UNL     1       4.950   4.606  18.428  0.00  0.00    +0.000 C 
ATOM     10  O   UNL     1       5.728   3.843  18.972  0.00  0.00    +0.000 OA
ENDROOT
BRANCH   1  18
ATOM     11  C   UNL     1       2.398   5.818  21.219  0.00  0.00    +0.000 C 
ATOM     12  C   UNL     1       2.201   4.435  20.656  0.00  0.00    +0.000 A 
ATOM     13  C   UNL     1       1.380   3.554  21.389  0.00  0.00    +0.000 A 
ATOM     14  C   UNL     1       1.053   2.297  20.890  0.00  0.00    +0.000 A 
ATOM     15  C   UNL     1       1.545   1.896  19.656  0.00  0.00    +0.000 A 
ATOM     16  C   UNL     1       2.396   2.731  18.911  0.00  0.00    +0.000 A 
ATOM     17  C   UNL     1       2.926   2.178  17.611  0.00  0.00    +0.000 C 
ATOM     18  C   UNL     1       2.732   4.017  19.413  0.00  0.00    +0.000 A 
ENDBRANCH   1  18
BRANCH   7  19
ATOM     19  C   UNL     1       7.383   5.351  15.829  0.00  0.00    +0.000 C 
BRANCH  19  20
ATOM     20  C   UNL     1       7.149   4.941  14.372  0.00  0.00    +0.000 C 
ATOM     21  O   UNL     1       7.919   5.344  13.504  0.00  0.00    +0.000 OA
ATOM     22  N   UNL     1       6.118   4.030  14.200  0.00  0.00    +0.000 N 
ATOM     23  H   UNL     1       5.549   3.847  15.018  0.00  0.00    +0.000 HD
BRANCH  22  24
ATOM     24  C   UNL     1       5.693   3.477  12.970  0.00  0.00    +0.000 A 
ATOM     25  C   UNL     1       4.542   3.906  12.300  0.00  0.00    +0.000 A 
ATOM     26  C   UNL     1       4.104   3.266  11.136  0.00  0.00    +0.000 A 
ATOM     27  C   UNL     1       4.823   2.192  10.625  0.00  0.00    +0.000 A 
ATOM     28  C   UNL     1       5.993   1.795  11.263  0.00  0.00    +0.000 A 
ATOM     29  F   UNL     1       6.689   0.762  10.769  0.00  0.00    +0.000 F 
ATOM     30  C   UNL     1       6.446   2.438  12.416  0.00  0.00    +0.000 A 
ENDBRANCH  22  24
ENDBRANCH  19  20
ENDBRANCH   7  19
TORSDOF 4
ENDMDL
MODEL 8
REMARK VINA RESULT:      -7.8      7.125      9.732
REMARK  Name = 
REMARK  6 active torsions:
REMARK  status: ('A' for Active; 'I' for Inactive)
REMARK    1  A    between atoms: C_1  and  C_2
REMARK    2  A    between atoms: C_6  and  C_7
REMARK    3  A    between atoms: C_8  and  N_9
REMARK    4  A    between atoms: N_15  and  C_16
REMARK    5  A    between atoms: C_16  and  C_17
REMARK    6  A    between atoms: N_19  and  C_20
REMARK                            x       y       z     vdW  Elec       q    Type
REMARK                         _______ _______ _______ _____ _____    ______ ____
ROOT
ATOM      1  N   UNL     1      -0.792  11.801  19.956  0.00  0.00    +0.000 N 
ATOM      2  C   UNL     1       0.117  12.685  19.376  0.00  0.00    +0.000 C 
ATOM      3  O   UNL     1       0.050  13.901  19.260  0.00  0.00    +0.000 OA
ATOM      4  C   UNL     1       1.324  11.868  19.127  0.00  0.00    +0.000 C 
ATOM      5  N   UNL     1       2.160  12.057  17.945  0.00  0.00    +0.000 NA
ATOM      6  N   UNL     1       2.621  10.913  17.621  0.00  0.00    +0.000 NA
ATOM      7  N   UNL     1       1.968   9.932  18.386  0.00  0.00    +0.000 N 
ATOM      8  C   UNL     1       0.726  10.536  18.813  0.00  0.00    +0.000 C 
ATOM      9  C   UNL     1      -0.317  10.485  19.902  0.00  0.00    +0.000 C 
ATOM     10  O   UNL     1      -0.715   9.469  20.443  0.00  0.00    +0.000 OA
ENDROOT
BRANCH   1  18
ATOM     11  C   UNL     1      -1.143  12.784  22.745  0.00  0.00    +0.000 C 
ATOM     12  C   UNL     1      -2.270  12.596  21.764  0.00  0.00    +0.000 A 
ATOM     13  C   UNL     1      -3.567  12.927  22.203  0.00  0.00    +0.000 A 
ATOM     14  C   UNL     1      -4.651  12.890  21.330  0.00  0.00    +0.000 A 
ATOM     15  C   UNL     1      -4.458  12.515  20.008  0.00  0.00    +0.000 A 
ATOM     16  C   UNL     1      -3.186  12.143  19.541  0.00  0.00    +0.000 A 
ATOM     17  C   UNL     1      -3.093  11.693  18.103  0.00  0.00    +0.000 C 
ATOM     18  C   UNL     1      -2.075  12.181  20.425  0.00  0.00    +0.000 A 
ENDBRANCH   1  18
BRANCH   7  19
ATOM     19  C   UNL     1       2.009   8.573  17.860  0.00  0.00    +0.000 C 
BRANCH  19  20
ATOM     20  C   UNL     1       2.261   7.493  18.916  0.00  0.00    +0.000 C 
ATOM     21  O   UNL     1       2.168   7.782  20.106  0.00  0.00    +0.000 OA
ATOM     22  N   UNL     1       2.463   6.226  18.390  0.00  0.00    +0.000 N 
ATOM     23  H   UNL     1       2.563   6.176  17.383  0.00  0.00    +0.000 HD
BRANCH  22  24
ATOM     24  C   UNL     1       2.706   5.046  19.131  0.00  0.00    +0.000 A 
ATOM     25  C   UNL     1       3.908   4.331  19.050  0.00  0.00    +0.000 A 
ATOM     26  C   UNL     1       4.071   3.118  19.725  0.00  0.00    +0.000 A 
ATOM     27  C   UNL     1       3.033   2.611  20.498  0.00  0.00    +0.000 A 
ATOM     28  C   UNL     1       1.857   3.344  20.618  0.00  0.00    +0.000 A 
ATOM     29  F   UNL     1       0.858   2.857  21.366  0.00  0.00    +0.000 F 
ATOM     30  C   UNL     1       1.691   4.563  19.960  0.00  0.00    +0.000 A 
ENDBRANCH  22  24
ENDBRANCH  19  20
ENDBRANCH   7  19
TORSDOF 4
ENDMDL
MODEL 9
REMARK VINA RESULT:      -7.7      5.042      7.047
REMARK  Name = 
REMARK  6 active torsions:
REMARK  status: ('A' for Active; 'I' for Inactive)
REMARK    1  A    between atoms: C_1  and  C_2
REMARK    2  A    between atoms: C_6  and  C_7
REMARK    3  A    between atoms: C_8  and  N_9
REMARK    4  A    between atoms: N_15  and  C_16
REMARK    5  A    between atoms: C_16  and  C_17
REMARK    6  A    between atoms: N_19  and  C_20
REMARK                            x       y       z     vdW  Elec       q    Type
REMARK                         _______ _______ _______ _____ _____    ______ ____
ROOT
ATOM      1  N   UNL     1       3.606   4.829  18.663  0.00  0.00    +0.000 N 
ATOM      2  C   UNL     1       3.150   5.946  17.964  0.00  0.00    +0.000 C 
ATOM      3  O   UNL     1       2.034   6.445  17.946  0.00  0.00    +0.000 OA
ATOM      4  C   UNL     1       4.374   6.567  17.415  0.00  0.00    +0.000 C 
ATOM      5  N   UNL     1       4.401   7.199  16.098  0.00  0.00    +0.000 NA
ATOM      6  N   UNL     1       5.564   7.007  15.611  0.00  0.00    +0.000 NA
ATOM      7  N   UNL     1       6.250   6.095  16.430  0.00  0.00    +0.000 N 
ATOM      8  C   UNL     1       5.226   5.370  17.147  0.00  0.00    +0.000 C 
ATOM      9  C   UNL     1       4.969   4.609  18.425  0.00  0.00    +0.000 C 
ATOM     10  O   UNL     1       5.766   3.867  18.970  0.00  0.00    +0.000 OA
ENDROOT
BRANCH   1  18
ATOM     11  C   UNL     1       3.094   2.044  17.739  0.00  0.00    +0.000 C 
ATOM     12  C   UNL     1       2.467   2.662  18.961  0.00  0.00    +0.000 A 
ATOM     13  C   UNL     1       1.596   1.852  19.716  0.00  0.00    +0.000 A 
ATOM     14  C   UNL     1       1.059   2.302  20.918  0.00  0.00    +0.000 A 
ATOM     15  C   UNL     1       1.377   3.571  21.383  0.00  0.00    +0.000 A 
ATOM     16  C   UNL     1       2.213   4.423  20.641  0.00  0.00    +0.000 A 
ATOM     17  C   UNL     1       2.448   5.804  21.202  0.00  0.00    +0.000 C 
ATOM     18  C   UNL     1       2.767   3.969  19.414  0.00  0.00    +0.000 A 
ENDBRANCH   1  18
BRANCH   7  19
ATOM     19  C   UNL     1       7.380   5.406  15.820  0.00  0.00    +0.000 C 
BRANCH  19  20
ATOM     20  C   UNL     1       7.150   4.977  14.367  0.00  0.00    +0.000 C 
ATOM     21  O   UNL     1       7.919   5.373  13.495  0.00  0.00    +0.000 OA
ATOM     22  N   UNL     1       6.125   4.057  14.205  0.00  0.00    +0.000 N 
ATOM     23  H   UNL     1       5.556   3.881  15.025  0.00  0.00    +0.000 HD
BRANCH  22  24
ATOM     24  C   UNL     1       5.705   3.486  12.982  0.00  0.00    +0.000 A 
ATOM     25  C   UNL     1       4.546   3.893  12.310  0.00  0.00    +0.000 A 
ATOM     26  C   UNL     1       4.115   3.236  11.154  0.00  0.00    +0.000 A 
ATOM     27  C   UNL     1       4.848   2.166  10.652  0.00  0.00    +0.000 A 
ATOM     28  C   UNL     1       6.025   1.792  11.291  0.00  0.00    +0.000 A 
ATOM     29  F   UNL     1       6.734   0.764  10.805  0.00  0.00    +0.000 F 
ATOM     30  C   UNL     1       6.471   2.453  12.437  0.00  0.00    +0.000 A 
ENDBRANCH  22  24
ENDBRANCH  19  20
ENDBRANCH   7  19
TORSDOF 4
ENDMDL
