MODEL 1
REMARK VINA RESULT:      -7.5      0.000      0.000
REMARK  Name = 
REMARK  6 active torsions:
REMARK  status: ('A' for Active; 'I' for Inactive)
REMARK    1  A    between atoms: C_1  and  C_2
REMARK    2  A    between atoms: C_5  and  C_6
REMARK    3  A    between atoms: C_8  and  C_9
REMARK    4  A    between atoms: C_14  and  O_15
REMARK    5  A    between atoms: N_21  and  C_22
REMARK    6  A    between atoms: C_22  and  C_23
REMARK                            x       y       z     vdW  Elec       q    Type
REMARK                         _______ _______ _______ _____ _____    ______ ____
ROOT
ATOM      1  C   UNL     1       0.548  12.548  19.346  0.00  0.00    +0.000 C 
ATOM      2  C   UNL     1      -0.857  12.490  19.810  0.00  0.00    +0.000 A 
ATOM      3  C   UNL     1      -2.155  12.066  19.467  0.00  0.00    +0.000 A 
ATOM      4  N   UNL     1      -3.001  12.339  20.495  0.00  0.00    +0.000 NA
ATOM      5  N   UNL     1      -2.244  12.970  21.427  0.00  0.00    +0.000 N 
ATOM      6  C   UNL     1      -0.967  13.070  21.039  0.00  0.00    +0.000 A 
ATOM      7  C   UNL     1       0.267  13.564  21.528  0.00  0.00    +0.000 C 
ATOM      8  O   UNL     1       0.484  14.123  22.588  0.00  0.00    +0.000 OA
ATOM      9  N   UNL     1       1.171  13.242  20.512  0.00  0.00    +0.000 N 
ATOM     10  H   UNL     1      -2.681  13.284  22.288  0.00  0.00    +0.000 HD
ENDROOT
BRANCH   1  15
ATOM     11  C   UNL     1       2.404   7.042  18.748  0.00  0.00    +0.000 C 
ATOM     12  C   UNL     1       1.914   8.451  18.903  0.00  0.00    +0.000 A 
ATOM     13  C   UNL     1       1.230   8.860  20.052  0.00  0.00    +0.000 A 
ATOM     14  C   UNL     1       0.798  10.183  20.187  0.00  0.00    +0.000 A 
ATOM     15  C   UNL     1       1.044  11.129  19.179  0.00  0.00    +0.000 A 
ATOM     16  C   UNL     1       1.730  10.704  18.026  0.00  0.00    +0.000 A 
ATOM     17  C   UNL     1       2.162   9.384  17.893  0.00  0.00    +0.000 A 
ENDBRANCH   1  15
BRANCH   3  18
ATOM     18  C   UNL     1      -2.637  11.408  18.246  0.00  0.00    +0.000 A 
ATOM     19  C   UNL     1      -1.841  10.417  17.641  0.00  0.00    +0.000 A 
ATOM     20  C   UNL     1      -2.270   9.746  16.490  0.00  0.00    +0.000 A 
ATOM     21  C   UNL     1      -3.500  10.061  15.921  0.00  0.00    +0.000 A 
ATOM     22  C   UNL     1      -4.306  11.035  16.505  0.00  0.00    +0.000 A 
ATOM     23  C   UNL     1      -3.882  11.692  17.667  0.00  0.00    +0.000 A 
BRANCH  23  24
ATOM     24  O   UNL     1      -4.736  12.593  18.248  0.00  0.00    +0.000 OA
ATOM     25  H   UNL     1      -4.368  13.482  18.124  0.00  0.00    +0.000 HD
ENDBRANCH  23  24
ENDBRANCH   3  18
BRANCH   9  26
ATOM     26  C   UNL     1       2.579  13.566  20.561  0.00  0.00    +0.000 C 
BRANCH  26  27
ATOM     27  C   UNL     1       2.963  14.652  19.598  0.00  0.00    +0.000 A 
ATOM     28  C   UNL     1       3.469  14.353  18.329  0.00  0.00    +0.000 A 
ATOM     29  C   UNL     1       3.818  15.383  17.460  0.00  0.00    +0.000 A 
ATOM     30  C   UNL     1       3.657  16.688  17.894  0.00  0.00    +0.000 A 
ATOM     31  N   UNL     1       3.174  17.019  19.112  0.00  0.00    +0.000 NA
ATOM     32  C   UNL     1       2.839  15.997  19.931  0.00  0.00    +0.000 A 
ENDBRANCH  26  27
ENDBRANCH   9  26
TORSDOF 5
ENDMDL
MODEL 2
REMARK VINA RESULT:      -7.3      0.525      1.249
REMARK  Name = 
REMARK  6 active torsions:
REMARK  status: ('A' for Active; 'I' for Inactive)
REMARK    1  A    between atoms: C_1  and  C_2
REMARK    2  A    between atoms: C_5  and  C_6
REMARK    3  A    between atoms: C_8  and  C_9
REMARK    4  A    between atoms: C_14  and  O_15
REMARK    5  A    between atoms: N_21  and  C_22
REMARK    6  A    between atoms: C_22  and  C_23
REMARK                            x       y       z     vdW  Elec       q    Type
REMARK                         _______ _______ _______ _____ _____    ______ ____
ROOT
ATOM      1  C   UNL     1       0.551  12.444  19.365  0.00  0.00    +0.000 C 
ATOM      2  C   UNL     1      -0.871  12.417  19.775  0.00  0.00    +0.000 A 
ATOM      3  C   UNL     1      -2.164  12.021  19.384  0.00  0.00    +0.000 A 
ATOM      4  N   UNL     1      -3.042  12.312  20.380  0.00  0.00    +0.000 NA
ATOM      5  N   UNL     1      -2.307  12.926  21.340  0.00  0.00    +0.000 N 
ATOM      6  C   UNL     1      -1.014  12.998  21.001  0.00  0.00    +0.000 A 
ATOM      7  C   UNL     1       0.211  13.464  21.535  0.00  0.00    +0.000 C 
ATOM      8  O   UNL     1       0.401  14.018  22.603  0.00  0.00    +0.000 OA
ATOM      9  N   UNL     1       1.145  13.124  20.553  0.00  0.00    +0.000 N 
ATOM     10  H   UNL     1      -2.769  13.249  22.185  0.00  0.00    +0.000 HD
ENDROOT
BRANCH   1  15
ATOM     11  C   UNL     1       2.429   6.948  18.737  0.00  0.00    +0.000 C 
ATOM     12  C   UNL     1       1.960   8.364  18.897  0.00  0.00    +0.000 A 
ATOM     13  C   UNL     1       2.166   9.315  17.892  0.00  0.00    +0.000 A 
ATOM     14  C   UNL     1       1.704  10.625  18.051  0.00  0.00    +0.000 A 
ATOM     15  C   UNL     1       1.022  11.014  19.214  0.00  0.00    +0.000 A 
ATOM     16  C   UNL     1       0.825  10.050  20.220  0.00  0.00    +0.000 A 
ATOM     17  C   UNL     1       1.285   8.741  20.060  0.00  0.00    +0.000 A 
ENDBRANCH   1  15
BRANCH   3  18
ATOM     18  C   UNL     1      -2.615  11.374  18.145  0.00  0.00    +0.000 A 
ATOM     19  C   UNL     1      -1.791  10.409  17.536  0.00  0.00    +0.000 A 
ATOM     20  C   UNL     1      -2.190   9.749  16.368  0.00  0.00    +0.000 A 
ATOM     21  C   UNL     1      -3.416  10.050  15.785  0.00  0.00    +0.000 A 
ATOM     22  C   UNL     1      -4.250  10.999  16.373  0.00  0.00    +0.000 A 
ATOM     23  C   UNL     1      -3.857  11.644  17.551  0.00  0.00    +0.000 A 
BRANCH  23  24
ATOM     24  O   UNL     1      -4.736  12.519  18.133  0.00  0.00    +0.000 OA
ATOM     25  H   UNL     1      -4.669  13.369  17.671  0.00  0.00    +0.000 HD
ENDBRANCH  23  24
ENDBRANCH   3  18
BRANCH   9  26
ATOM     26  C   UNL     1       2.557  13.417  20.655  0.00  0.00    +0.000 C 
BRANCH  26  27
ATOM     27  C   UNL     1       2.992  14.522  19.737  0.00  0.00    +0.000 A 
ATOM     28  C   UNL     1       2.745  15.863  20.045  0.00  0.00    +0.000 A 
ATOM     29  C   UNL     1       3.160  16.864  19.171  0.00  0.00    +0.000 A 
ATOM     30  C   UNL     1       3.805  16.489  18.006  0.00  0.00    +0.000 A 
ATOM     31  N   UNL     1       4.061  15.205  17.669  0.00  0.00    +0.000 NA
ATOM     32  C   UNL     1       3.651  14.256  18.541  0.00  0.00    +0.000 A 
ENDBRANCH  26  27
ENDBRANCH   9  26
TORSDOF 5
ENDMDL
MODEL 3
REMARK VINA RESULT:      -7.2      2.971      7.330
REMARK  Name = 
REMARK  6 active torsions:
REMARK  status: ('A' for Active; 'I' for Inactive)
REMARK    1  A    between atoms: C_1  and  C_2
REMARK    2  A    between atoms: C_5  and  C_6
REMARK    3  A    between atoms: C_8  and  C_9
REMARK    4  A    between atoms: C_14  and  O_15
REMARK    5  A    between atoms: N_21  and  C_22
REMARK    6  A    between atoms: C_22  and  C_23
REMARK                            x       y       z     vdW  Elec       q    Type
REMARK                         _______ _______ _______ _____ _____    ______ ____
ROOT
ATOM      1  C   UNL     1      -4.038  11.583  19.595  0.00  0.00    +0.000 C 
ATOM      2  C   UNL     1      -2.894  12.403  20.054  0.00  0.00    +0.000 A 
ATOM      3  C   UNL     1      -1.507  12.393  20.294  0.00  0.00    +0.000 A 
ATOM      4  N   UNL     1      -1.115  13.629  20.704  0.00  0.00    +0.000 NA
ATOM      5  N   UNL     1      -2.252  14.365  20.767  0.00  0.00    +0.000 N 
ATOM      6  C   UNL     1      -3.321  13.655  20.385  0.00  0.00    +0.000 A 
ATOM      7  C   UNL     1      -4.715  13.827  20.206  0.00  0.00    +0.000 C 
ATOM      8  O   UNL     1      -5.380  14.827  20.411  0.00  0.00    +0.000 OA
ATOM      9  N   UNL     1      -5.137  12.585  19.727  0.00  0.00    +0.000 N 
ATOM     10  H   UNL     1      -2.198  15.332  21.070  0.00  0.00    +0.000 HD
ENDROOT
BRANCH   1  15
ATOM     11  C   UNL     1      -3.026   9.973  14.071  0.00  0.00    +0.000 C 
ATOM     12  C   UNL     1      -3.291  10.373  15.492  0.00  0.00    +0.000 A 
ATOM     13  C   UNL     1      -2.619   9.762  16.555  0.00  0.00    +0.000 A 
ATOM     14  C   UNL     1      -2.863  10.162  17.872  0.00  0.00    +0.000 A 
ATOM     15  C   UNL     1      -3.781  11.185  18.157  0.00  0.00    +0.000 A 
ATOM     16  C   UNL     1      -4.454  11.790  17.080  0.00  0.00    +0.000 A 
ATOM     17  C   UNL     1      -4.208  11.392  15.765  0.00  0.00    +0.000 A 
ENDBRANCH   1  15
BRANCH   3  18
ATOM     18  C   UNL     1      -0.534  11.304  20.144  0.00  0.00    +0.000 A 
ATOM     19  C   UNL     1      -0.506  10.272  21.101  0.00  0.00    +0.000 A 
ATOM     20  C   UNL     1       0.387   9.201  20.987  0.00  0.00    +0.000 A 
ATOM     21  C   UNL     1       1.274   9.148  19.916  0.00  0.00    +0.000 A 
ATOM     22  C   UNL     1       1.261  10.157  18.955  0.00  0.00    +0.000 A 
ATOM     23  C   UNL     1       0.354  11.217  19.062  0.00  0.00    +0.000 A 
BRANCH  23  24
ATOM     24  O   UNL     1       0.328  12.150  18.058  0.00  0.00    +0.000 OA
ATOM     25  H   UNL     1       0.742  12.962  18.389  0.00  0.00    +0.000 HD
ENDBRANCH  23  24
ENDBRANCH   3  18
BRANCH   9  26
ATOM     26  C   UNL     1      -6.512  12.275  19.406  0.00  0.00    +0.000 C 
BRANCH  26  27
ATOM     27  C   UNL     1      -6.962  10.958  19.970  0.00  0.00    +0.000 A 
ATOM     28  C   UNL     1      -6.890   9.782  19.216  0.00  0.00    +0.000 A 
ATOM     29  C   UNL     1      -7.318   8.578  19.767  0.00  0.00    +0.000 A 
ATOM     30  C   UNL     1      -7.814   8.589  21.059  0.00  0.00    +0.000 A 
ATOM     31  N   UNL     1      -7.903   9.702  21.820  0.00  0.00    +0.000 NA
ATOM     32  C   UNL     1      -7.475  10.856  21.259  0.00  0.00    +0.000 A 
ENDBRANCH  26  27
ENDBRANCH   9  26
TORSDOF 5
ENDMDL
MODEL 4
REMARK VINA RESULT:      -7.1      2.764      6.409
REMARK  Name = 
REMARK  6 active torsions:
REMARK  status: ('A' for Active; 'I' for Inactive)
REMARK    1  A    between atoms: C_1  and  C_2
REMARK    2  A    between atoms: C_5  and  C_6
REMARK    3  A    between atoms: C_8  and  C_9
REMARK    4  A    between atoms: C_14  and  O_15
REMARK    5  A    between atoms: N_21  and  C_22
REMARK    6  A    between atoms: C_22  and  C_23
REMARK                            x       y       z     vdW  Elec       q    Type
REMARK                         _______ _______ _______ _____ _____    ______ ____
ROOT
ATOM      1  C   UNL     1      -1.274  11.641  20.557  0.00  0.00    +0.000 C 
ATOM      2  C   UNL     1      -0.562  10.610  21.345  0.00  0.00    +0.000 A 
ATOM      3  C   UNL     1       0.390   9.574  21.273  0.00  0.00    +0.000 A 
ATOM      4  N   UNL     1       0.580   9.054  22.515  0.00  0.00    +0.000 NA
ATOM      5  N   UNL     1      -0.281   9.723  23.321  0.00  0.00    +0.000 N 
ATOM      6  C   UNL     1      -0.969  10.652  22.646  0.00  0.00    +0.000 A 
ATOM      7  C   UNL     1      -1.946  11.648  22.884  0.00  0.00    +0.000 C 
ATOM      8  O   UNL     1      -2.492  11.927  23.937  0.00  0.00    +0.000 OA
ATOM      9  N   UNL     1      -2.119  12.241  21.631  0.00  0.00    +0.000 N 
ATOM     10  H   UNL     1      -0.321   9.484  24.307  0.00  0.00    +0.000 HD
ENDROOT
BRANCH   1  15
ATOM     11  C   UNL     1       2.754  15.348  18.517  0.00  0.00    +0.000 C 
ATOM     12  C   UNL     1       1.731  14.386  19.043  0.00  0.00    +0.000 A 
ATOM     13  C   UNL     1       1.783  13.918  20.360  0.00  0.00    +0.000 A 
ATOM     14  C   UNL     1       0.808  13.037  20.839  0.00  0.00    +0.000 A 
ATOM     15  C   UNL     1      -0.244  12.609  20.015  0.00  0.00    +0.000 A 
ATOM     16  C   UNL     1      -0.284  13.083  18.692  0.00  0.00    +0.000 A 
ATOM     17  C   UNL     1       0.688  13.964  18.214  0.00  0.00    +0.000 A 
ENDBRANCH   1  15
BRANCH   3  18
ATOM     18  C   UNL     1       1.137   9.062  20.118  0.00  0.00    +0.000 A 
ATOM     19  C   UNL     1       1.254   9.863  18.966  0.00  0.00    +0.000 A 
ATOM     20  C   UNL     1       1.976   9.426  17.850  0.00  0.00    +0.000 A 
ATOM     21  C   UNL     1       2.587   8.177  17.864  0.00  0.00    +0.000 A 
ATOM     22  C   UNL     1       2.488   7.368  18.995  0.00  0.00    +0.000 A 
ATOM     23  C   UNL     1       1.780   7.815  20.117  0.00  0.00    +0.000 A 
BRANCH  23  24
ATOM     24  O   UNL     1       1.767   7.019  21.231  0.00  0.00    +0.000 OA
ATOM     25  H   UNL     1       2.040   6.125  20.969  0.00  0.00    +0.000 HD
ENDBRANCH  23  24
ENDBRANCH   3  18
BRANCH   9  26
ATOM     26  C   UNL     1      -3.045  13.322  21.377  0.00  0.00    +0.000 C 
BRANCH  26  27
ATOM     27  C   UNL     1      -4.437  12.842  21.085  0.00  0.00    +0.000 A 
ATOM     28  C   UNL     1      -4.831  12.499  19.789  0.00  0.00    +0.000 A 
ATOM     29  C   UNL     1      -6.131  12.060  19.551  0.00  0.00    +0.000 A 
ATOM     30  C   UNL     1      -7.003  11.987  20.624  0.00  0.00    +0.000 A 
ATOM     31  N   UNL     1      -6.663  12.312  21.891  0.00  0.00    +0.000 NA
ATOM     32  C   UNL     1      -5.393  12.730  22.091  0.00  0.00    +0.000 A 
ENDBRANCH  26  27
ENDBRANCH   9  26
TORSDOF 5
ENDMDL
MODEL 5
REMARK VINA RESULT:      -7.0      2.796      6.484
REMARK  Name = 
REMARK  6 active torsions:
REMARK  status: ('A' for Active; 'I' for Inactive)
REMARK    1  A    between atoms: C_1  and  C_2
REMARK    2  A    between atoms: C_5  and  C_6
REMARK    3  A    between atoms: C_8  and  C_9
REMARK    4  A    between atoms: C_14  and  O_15
REMARK    5  A    between atoms: N_21  and  C_22
REMARK    6  A    between atoms: C_22  and  C_23
REMARK                            x       y       z     vdW  Elec       q    Type
REMARK                         _______ _______ _______ _____ _____    ______ ____
ROOT
ATOM      1  C   UNL     1      -1.344  11.706  20.556  0.00  0.00    +0.000 C 
ATOM      2  C   UNL     1      -0.648  10.669  21.350  0.00  0.00    +0.000 A 
ATOM      3  C   UNL     1       0.299   9.629  21.287  0.00  0.00    +0.000 A 
ATOM      4  N   UNL     1       0.470   9.104  22.530  0.00  0.00    +0.000 NA
ATOM      5  N   UNL     1      -0.399   9.773  23.327  0.00  0.00    +0.000 N 
ATOM      6  C   UNL     1      -1.073  10.708  22.645  0.00  0.00    +0.000 A 
ATOM      7  C   UNL     1      -2.048  11.708  22.874  0.00  0.00    +0.000 C 
ATOM      8  O   UNL     1      -2.607  11.986  23.920  0.00  0.00    +0.000 OA
ATOM      9  N   UNL     1      -2.201  12.307  21.621  0.00  0.00    +0.000 N 
ATOM     10  H   UNL     1      -0.453   9.531  24.311  0.00  0.00    +0.000 HD
ENDROOT
BRANCH   1  15
ATOM     11  C   UNL     1       2.621  15.464  18.485  0.00  0.00    +0.000 C 
ATOM     12  C   UNL     1       1.593  14.509  19.014  0.00  0.00    +0.000 A 
ATOM     13  C   UNL     1       0.526  14.076  18.220  0.00  0.00    +0.000 A 
ATOM     14  C   UNL     1      -0.412  13.170  18.725  0.00  0.00    +0.000 A 
ATOM     15  C   UNL     1      -0.302  12.672  20.032  0.00  0.00    +0.000 A 
ATOM     16  C   UNL     1       0.772  13.117  20.823  0.00  0.00    +0.000 A 
ATOM     17  C   UNL     1       1.710  14.020  20.318  0.00  0.00    +0.000 A 
ENDBRANCH   1  15
BRANCH   3  18
ATOM     18  C   UNL     1       1.060   9.117  20.140  0.00  0.00    +0.000 A 
ATOM     19  C   UNL     1       1.155   9.901  18.975  0.00  0.00    +0.000 A 
ATOM     20  C   UNL     1       1.888   9.466  17.866  0.00  0.00    +0.000 A 
ATOM     21  C   UNL     1       2.533   8.233  17.901  0.00  0.00    +0.000 A 
ATOM     22  C   UNL     1       2.455   7.442  19.045  0.00  0.00    +0.000 A 
ATOM     23  C   UNL     1       1.736   7.889  20.160  0.00  0.00    +0.000 A 
BRANCH  23  24
ATOM     24  O   UNL     1       1.744   7.111  21.288  0.00  0.00    +0.000 OA
ATOM     25  H   UNL     1       2.477   6.478  21.214  0.00  0.00    +0.000 HD
ENDBRANCH  23  24
ENDBRANCH   3  18
BRANCH   9  26
ATOM     26  C   UNL     1      -3.118  13.393  21.358  0.00  0.00    +0.000 C 
BRANCH  26  27
ATOM     27  C   UNL     1      -4.498  12.920  21.002  0.00  0.00    +0.000 A 
ATOM     28  C   UNL     1      -5.508  12.834  21.964  0.00  0.00    +0.000 A 
ATOM     29  C   UNL     1      -6.776  12.390  21.601  0.00  0.00    +0.000 A 
ATOM     30  C   UNL     1      -6.992  12.035  20.280  0.00  0.00    +0.000 A 
ATOM     31  N   UNL     1      -6.043  12.101  19.321  0.00  0.00    +0.000 NA
ATOM     32  C   UNL     1      -4.823  12.541  19.703  0.00  0.00    +0.000 A 
ENDBRANCH  26  27
ENDBRANCH   9  26
TORSDOF 5
ENDMDL
MODEL 6
REMARK VINA RESULT:      -6.9      1.376      2.095
REMARK  Name = 
REMARK  6 active torsions:
REMARK  status: ('A' for Active; 'I' for Inactive)
REMARK    1  A    between atoms: C_1  and  C_2
REMARK    2  A    between atoms: C_5  and  C_6
REMARK    3  A    between atoms: C_8  and  C_9
REMARK    4  A    between atoms: C_14  and  O_15
REMARK    5  A    between atoms: N_21  and  C_22
REMARK    6  A    between atoms: C_22  and  C_23
REMARK                            x       y       z     vdW  Elec       q    Type
REMARK                         _______ _______ _______ _____ _____    ______ ____
ROOT
ATOM      1  C   UNL     1      -0.984  12.786  20.064  0.00  0.00    +0.000 C 
ATOM      2  C   UNL     1      -2.445  12.605  19.906  0.00  0.00    +0.000 A 
ATOM      3  C   UNL     1      -3.441  12.022  19.100  0.00  0.00    +0.000 A 
ATOM      4  N   UNL     1      -4.661  12.266  19.650  0.00  0.00    +0.000 NA
ATOM      5  N   UNL     1      -4.417  13.032  20.742  0.00  0.00    +0.000 N 
ATOM      6  C   UNL     1      -3.106  13.245  20.912  0.00  0.00    +0.000 A 
ATOM      7  C   UNL     1      -2.234  13.898  21.815  0.00  0.00    +0.000 C 
ATOM      8  O   UNL     1      -2.526  14.542  22.807  0.00  0.00    +0.000 OA
ATOM      9  N   UNL     1      -0.965  13.614  21.306  0.00  0.00    +0.000 N 
ATOM     10  H   UNL     1      -5.198  13.349  21.307  0.00  0.00    +0.000 HD
ENDROOT
BRANCH   1  15
ATOM     11  C   UNL     1       1.479   7.539  20.794  0.00  0.00    +0.000 C 
ATOM     12  C   UNL     1       0.860   8.892  20.607  0.00  0.00    +0.000 A 
ATOM     13  C   UNL     1       1.152   9.676  19.486  0.00  0.00    +0.000 A 
ATOM     14  C   UNL     1       0.549  10.926  19.319  0.00  0.00    +0.000 A 
ATOM     15  C   UNL     1      -0.363  11.420  20.264  0.00  0.00    +0.000 A 
ATOM     16  C   UNL     1      -0.646  10.625  21.389  0.00  0.00    +0.000 A 
ATOM     17  C   UNL     1      -0.045   9.375  21.556  0.00  0.00    +0.000 A 
ENDBRANCH   1  15
BRANCH   3  18
ATOM     18  C   UNL     1      -3.313  11.241  17.863  0.00  0.00    +0.000 A 
ATOM     19  C   UNL     1      -2.429  10.146  17.832  0.00  0.00    +0.000 A 
ATOM     20  C   UNL     1      -2.291   9.359  16.684  0.00  0.00    +0.000 A 
ATOM     21  C   UNL     1      -3.031   9.657  15.544  0.00  0.00    +0.000 A 
ATOM     22  C   UNL     1      -3.915  10.734  15.554  0.00  0.00    +0.000 A 
ATOM     23  C   UNL     1      -4.064  11.509  16.710  0.00  0.00    +0.000 A 
BRANCH  23  24
ATOM     24  O   UNL     1      -4.995  12.514  16.698  0.00  0.00    +0.000 OA
ATOM     25  H   UNL     1      -4.717  13.192  17.334  0.00  0.00    +0.000 HD
ENDBRANCH  23  24
ENDBRANCH   3  18
BRANCH   9  26
ATOM     26  C   UNL     1       0.263  14.091  21.901  0.00  0.00    +0.000 C 
BRANCH  26  27
ATOM     27  C   UNL     1       1.254  14.581  20.886  0.00  0.00    +0.000 A 
ATOM     28  C   UNL     1       2.430  13.874  20.618  0.00  0.00    +0.000 A 
ATOM     29  C   UNL     1       3.330  14.357  19.671  0.00  0.00    +0.000 A 
ATOM     30  C   UNL     1       3.027  15.544  19.026  0.00  0.00    +0.000 A 
ATOM     31  N   UNL     1       1.904  16.258  19.258  0.00  0.00    +0.000 NA
ATOM     32  C   UNL     1       1.047  15.761  20.178  0.00  0.00    +0.000 A 
ENDBRANCH  26  27
ENDBRANCH   9  26
TORSDOF 5
ENDMDL
MODEL 7
REMARK VINA RESULT:      -6.9      2.483      6.318
REMARK  Name = 
REMARK  6 active torsions:
REMARK  status: ('A' for Active; 'I' for Inactive)
REMARK    1  A    between atoms: C_1  and  C_2
REMARK    2  A    between atoms: C_5  and  C_6
REMARK    3  A    between atoms: C_8  and  C_9
REMARK    4  A    between atoms: C_14  and  O_15
REMARK    5  A    between atoms: N_21  and  C_22
REMARK    6  A    between atoms: C_22  and  C_23
REMARK                            x       y       z     vdW  Elec       q    Type
REMARK                         _______ _______ _______ _____ _____    ______ ____
ROOT
ATOM      1  C   UNL     1      -1.903  11.591  20.015  0.00  0.00    +0.000 C 
ATOM      2  C   UNL     1      -0.483  12.008  20.015  0.00  0.00    +0.000 A 
ATOM      3  C   UNL     1       0.837  11.563  19.812  0.00  0.00    +0.000 A 
ATOM      4  N   UNL     1       1.690  12.612  19.960  0.00  0.00    +0.000 NA
ATOM      5  N   UNL     1       0.910  13.666  20.304  0.00  0.00    +0.000 N 
ATOM      6  C   UNL     1      -0.386  13.329  20.342  0.00  0.00    +0.000 A 
ATOM      7  C   UNL     1      -1.643  13.929  20.591  0.00  0.00    +0.000 C 
ATOM      8  O   UNL     1      -1.875  15.085  20.896  0.00  0.00    +0.000 OA
ATOM      9  N   UNL     1      -2.548  12.884  20.387  0.00  0.00    +0.000 N 
ATOM     10  H   UNL     1       1.345  14.565  20.481  0.00  0.00    +0.000 HD
ENDROOT
BRANCH   1  15
ATOM     11  C   UNL     1      -3.299   9.938  14.588  0.00  0.00    +0.000 C 
ATOM     12  C   UNL     1      -2.937  10.376  15.976  0.00  0.00    +0.000 A 
ATOM     13  C   UNL     1      -3.607  11.431  16.603  0.00  0.00    +0.000 A 
ATOM     14  C   UNL     1      -3.270  11.811  17.906  0.00  0.00    +0.000 A 
ATOM     15  C   UNL     1      -2.259  11.143  18.614  0.00  0.00    +0.000 A 
ATOM     16  C   UNL     1      -1.589  10.086  17.971  0.00  0.00    +0.000 A 
ATOM     17  C   UNL     1      -1.927   9.705  16.671  0.00  0.00    +0.000 A 
ENDBRANCH   1  15
BRANCH   3  18
ATOM     18  C   UNL     1       1.336  10.226  19.471  0.00  0.00    +0.000 A 
ATOM     19  C   UNL     1       1.115   9.161  20.365  0.00  0.00    +0.000 A 
ATOM     20  C   UNL     1       1.551   7.865  20.071  0.00  0.00    +0.000 A 
ATOM     21  C   UNL     1       2.225   7.612  18.881  0.00  0.00    +0.000 A 
ATOM     22  C   UNL     1       2.452   8.650  17.979  0.00  0.00    +0.000 A 
ATOM     23  C   UNL     1       1.998   9.942  18.267  0.00  0.00    +0.000 A 
BRANCH  23  24
ATOM     24  O   UNL     1       2.181  10.917  17.322  0.00  0.00    +0.000 OA
ATOM     25  H   UNL     1       2.619  11.672  17.746  0.00  0.00    +0.000 HD
ENDBRANCH  23  24
ENDBRANCH   3  18
BRANCH   9  26
ATOM     26  C   UNL     1      -3.979  13.023  20.541  0.00  0.00    +0.000 C 
BRANCH  26  27
ATOM     27  C   UNL     1      -4.437  12.818  21.956  0.00  0.00    +0.000 A 
ATOM     28  C   UNL     1      -3.523  12.632  22.997  0.00  0.00    +0.000 A 
ATOM     29  C   UNL     1      -3.980  12.443  24.297  0.00  0.00    +0.000 A 
ATOM     30  C   UNL     1      -5.347  12.437  24.516  0.00  0.00    +0.000 A 
ATOM     31  N   UNL     1      -6.264  12.611  23.538  0.00  0.00    +0.000 NA
ATOM     32  C   UNL     1      -5.789  12.797  22.286  0.00  0.00    +0.000 A 
ENDBRANCH  26  27
ENDBRANCH   9  26
TORSDOF 5
ENDMDL
MODEL 8
REMARK VINA RESULT:      -6.9      1.288      1.628
REMARK  Name = 
REMARK  6 active torsions:
REMARK  status: ('A' for Active; 'I' for Inactive)
REMARK    1  A    between atoms: C_1  and  C_2
REMARK    2  A    between atoms: C_5  and  C_6
REMARK    3  A    between atoms: C_8  and  C_9
REMARK    4  A    between atoms: C_14  and  O_15
REMARK    5  A    between atoms: N_21  and  C_22
REMARK    6  A    between atoms: C_22  and  C_23
REMARK                            x       y       z     vdW  Elec       q    Type
REMARK                         _______ _______ _______ _____ _____    ______ ____
ROOT
ATOM      1  C   UNL     1      -0.679  12.788  19.724  0.00  0.00    +0.000 C 
ATOM      2  C   UNL     1      -2.141  12.557  19.714  0.00  0.00    +0.000 A 
ATOM      3  C   UNL     1      -3.198  11.968  18.993  0.00  0.00    +0.000 A 
ATOM      4  N   UNL     1      -4.359  12.142  19.680  0.00  0.00    +0.000 NA
ATOM      5  N   UNL     1      -4.026  12.874  20.771  0.00  0.00    +0.000 N 
ATOM      6  C   UNL     1      -2.712  13.131  20.811  0.00  0.00    +0.000 A 
ATOM      7  C   UNL     1      -1.771  13.782  21.644  0.00  0.00    +0.000 C 
ATOM      8  O   UNL     1      -1.977  14.376  22.688  0.00  0.00    +0.000 OA
ATOM      9  N   UNL     1      -0.555  13.567  20.991  0.00  0.00    +0.000 N 
ATOM     10  H   UNL     1      -4.752  13.139  21.429  0.00  0.00    +0.000 HD
ENDROOT
BRANCH   1  15
ATOM     11  C   UNL     1       1.904   7.558  20.052  0.00  0.00    +0.000 C 
ATOM     12  C   UNL     1       1.228   8.894  19.967  0.00  0.00    +0.000 A 
ATOM     13  C   UNL     1       0.328   9.316  20.951  0.00  0.00    +0.000 A 
ATOM     14  C   UNL     1      -0.277  10.574  20.866  0.00  0.00    +0.000 A 
ATOM     15  C   UNL     1       0.006  11.440  19.799  0.00  0.00    +0.000 A 
ATOM     16  C   UNL     1       0.910  11.003  18.813  0.00  0.00    +0.000 A 
ATOM     17  C   UNL     1       1.515   9.748  18.899  0.00  0.00    +0.000 A 
ENDBRANCH   1  15
BRANCH   3  18
ATOM     18  C   UNL     1      -3.177  11.241  17.718  0.00  0.00    +0.000 A 
ATOM     19  C   UNL     1      -2.267  10.180  17.548  0.00  0.00    +0.000 A 
ATOM     20  C   UNL     1      -2.226   9.444  16.359  0.00  0.00    +0.000 A 
ATOM     21  C   UNL     1      -3.091   9.761  15.316  0.00  0.00    +0.000 A 
ATOM     22  C   UNL     1      -4.003  10.804  15.464  0.00  0.00    +0.000 A 
ATOM     23  C   UNL     1      -4.054  11.527  16.662  0.00  0.00    +0.000 A 
BRANCH  23  24
ATOM     24  O   UNL     1      -5.012  12.497  16.790  0.00  0.00    +0.000 OA
ATOM     25  H   UNL     1      -5.544  12.296  17.577  0.00  0.00    +0.000 HD
ENDBRANCH  23  24
ENDBRANCH   3  18
BRANCH   9  26
ATOM     26  C   UNL     1       0.712  14.067  21.473  0.00  0.00    +0.000 C 
BRANCH  26  27
ATOM     27  C   UNL     1       1.567  14.645  20.382  0.00  0.00    +0.000 A 
ATOM     28  C   UNL     1       1.180  15.795  19.688  0.00  0.00    +0.000 A 
ATOM     29  C   UNL     1       1.994  16.304  18.680  0.00  0.00    +0.000 A 
ATOM     30  C   UNL     1       3.172  15.637  18.391  0.00  0.00    +0.000 A 
ATOM     31  N   UNL     1       3.581  14.523  19.036  0.00  0.00    +0.000 NA
ATOM     32  C   UNL     1       2.772  14.055  20.013  0.00  0.00    +0.000 A 
ENDBRANCH  26  27
ENDBRANCH   9  26
TORSDOF 5
ENDMDL
MODEL 9
REMARK VINA RESULT:      -6.8      1.677      2.325
REMARK  Name = 
REMARK  6 active torsions:
REMARK  status: ('A' for Active; 'I' for Inactive)
REMARK    1  A    between atoms: C_1  and  C_2
REMARK    2  A    between atoms: C_5  and  C_6
REMARK    3  A    between atoms: C_8  and  C_9
REMARK    4  A    between atoms: C_14  and  O_15
REMARK    5  A    between atoms: N_21  and  C_22
REMARK    6  A    between atoms: C_22  and  C_23
REMARK                            x       y       z     vdW  Elec       q    Type
REMARK                         _______ _______ _______ _____ _____    ______ ____
ROOT
ATOM      1  C   UNL     1      -1.349  12.922  20.410  0.00  0.00    +0.000 C 
ATOM      2  C   UNL     1      -2.777  12.620  20.167  0.00  0.00    +0.000 A 
ATOM      3  C   UNL     1      -3.678  12.005  19.276  0.00  0.00    +0.000 A 
ATOM      4  N   UNL     1      -4.938  12.098  19.778  0.00  0.00    +0.000 NA
ATOM      5  N   UNL     1      -4.816  12.806  20.928  0.00  0.00    +0.000 N 
ATOM      6  C   UNL     1      -3.540  13.126  21.177  0.00  0.00    +0.000 A 
ATOM      7  C   UNL     1      -2.774  13.793  22.163  0.00  0.00    +0.000 C 
ATOM      8  O   UNL     1      -3.170  14.339  23.178  0.00  0.00    +0.000 OA
ATOM      9  N   UNL     1      -1.463  13.662  21.701  0.00  0.00    +0.000 N 
ATOM     10  H   UNL     1      -5.648  13.012  21.471  0.00  0.00    +0.000 HD
ENDROOT
BRANCH   1  15
ATOM     11  C   UNL     1       1.438   7.822  21.006  0.00  0.00    +0.000 C 
ATOM     12  C   UNL     1       0.710   9.125  20.853  0.00  0.00    +0.000 A 
ATOM     13  C   UNL     1      -0.206   9.562  21.815  0.00  0.00    +0.000 A 
ATOM     14  C   UNL     1      -0.860  10.789  21.665  0.00  0.00    +0.000 A 
ATOM     15  C   UNL     1      -0.611  11.609  20.553  0.00  0.00    +0.000 A 
ATOM     16  C   UNL     1       0.309  11.156  19.590  0.00  0.00    +0.000 A 
ATOM     17  C   UNL     1       0.964   9.932  19.741  0.00  0.00    +0.000 A 
ENDBRANCH   1  15
BRANCH   3  18
ATOM     18  C   UNL     1      -3.421  11.325  18.000  0.00  0.00    +0.000 A 
ATOM     19  C   UNL     1      -2.455  10.302  17.949  0.00  0.00    +0.000 A 
ATOM     20  C   UNL     1      -2.194   9.611  16.761  0.00  0.00    +0.000 A 
ATOM     21  C   UNL     1      -2.890   9.936  15.601  0.00  0.00    +0.000 A 
ATOM     22  C   UNL     1      -3.853  10.942  15.629  0.00  0.00    +0.000 A 
ATOM     23  C   UNL     1      -4.125  11.620  16.823  0.00  0.00    +0.000 A 
BRANCH  23  24
ATOM     24  O   UNL     1      -5.128  12.553  16.822  0.00  0.00    +0.000 OA
ATOM     25  H   UNL     1      -5.019  13.115  16.038  0.00  0.00    +0.000 HD
ENDBRANCH  23  24
ENDBRANCH   3  18
BRANCH   9  26
ATOM     26  C   UNL     1      -0.313  14.207  22.388  0.00  0.00    +0.000 C 
BRANCH  26  27
ATOM     27  C   UNL     1       0.668  14.861  21.458  0.00  0.00    +0.000 A 
ATOM     28  C   UNL     1       1.898  14.266  21.163  0.00  0.00    +0.000 A 
ATOM     29  C   UNL     1       2.786  14.899  20.299  0.00  0.00    +0.000 A 
ATOM     30  C   UNL     1       2.417  16.120  19.760  0.00  0.00    +0.000 A 
ATOM     31  N   UNL     1       1.240  16.730  20.021  0.00  0.00    +0.000 NA
ATOM     32  C   UNL     1       0.396  16.088  20.860  0.00  0.00    +0.000 A 
ENDBRANCH  26  27
ENDBRANCH   9  26
TORSDOF 5
ENDMDL
