MODEL 1
REMARK VINA RESULT:      -8.5      0.000      0.000
REMARK  Name = 
REMARK  3 active torsions:
REMARK  status: ('A' for Active; 'I' for Inactive)
REMARK    1  A    between atoms: C_7  and  C_8
REMARK    2  A    between atoms: C_14  and  C_15
REMARK    3  A    between atoms: C_15  and  C_16
REMARK                            x       y       z     vdW  Elec       q    Type
REMARK                         _______ _______ _______ _____ _____    ______ ____
ROOT
ATOM      1  C   UNL     1       8.463   9.590  18.054  0.00  0.00    +0.000 C 
ATOM      2  O   UNL     1       7.853   9.884  17.033  0.00  0.00    +0.000 OA
ATOM      3  N   UNL     1       8.519   8.349  18.657  0.00  0.00    +0.000 N 
ATOM      4  C   UNL     1       7.829   7.295  18.107  0.00  0.00    +0.000 A 
ATOM      5  N   UNL     1       7.285   7.215  16.921  0.00  0.00    +0.000 NA
ATOM      6  C   UNL     1       6.592   6.034  16.804  0.00  0.00    +0.000 A 
ATOM      7  C   UNL     1       6.614   5.217  17.916  0.00  0.00    +0.000 A 
ATOM      8  S   UNL     1       7.617   5.936  19.120  0.00  0.00    +0.000 S 
ATOM      9  H   UNL     1       8.898   8.221  19.582  0.00  0.00    +0.000 HD
ENDROOT
BRANCH   1  16
ATOM     10  O   UNL     1      12.315  15.892  20.203  0.00  0.00    +0.000 OA
ATOM     11  C   UNL     1      11.706  14.951  19.697  0.00  0.00    +0.000 C 
ATOM     12  C   UNL     1      11.407  14.852  18.202  0.00  0.00    +0.000 C 
ATOM     13  O   UNL     1      10.376  13.985  17.758  0.00  0.00    +0.000 OA
ATOM     14  C   UNL     1      10.166  12.897  18.558  0.00  0.00    +0.000 A 
ATOM     15  C   UNL     1       9.437  11.851  18.002  0.00  0.00    +0.000 A 
ATOM     16  C   UNL     1       9.150  10.704  18.757  0.00  0.00    +0.000 A 
ATOM     17  C   UNL     1       9.585  10.619  20.086  0.00  0.00    +0.000 A 
ATOM     18  C   UNL     1      10.309  11.681  20.648  0.00  0.00    +0.000 A 
ATOM     19  C   UNL     1      10.601  12.814  19.881  0.00  0.00    +0.000 A 
ATOM     20  N   UNL     1      11.320  13.869  20.441  0.00  0.00    +0.000 N 
ATOM     21  H   UNL     1      11.579  13.872  21.419  0.00  0.00    +0.000 HD
ENDBRANCH   1  16
BRANCH   7  22
ATOM     22  C   UNL     1       5.897   3.921  18.127  0.00  0.00    +0.000 C 
BRANCH  22  23
ATOM     23  C   UNL     1       4.395   4.055  18.020  0.00  0.00    +0.000 A 
ATOM     24  C   UNL     1       3.769   5.257  18.375  0.00  0.00    +0.000 A 
ATOM     25  C   UNL     1       2.379   5.371  18.326  0.00  0.00    +0.000 A 
ATOM     26  C   UNL     1       1.603   4.288  17.922  0.00  0.00    +0.000 A 
ATOM     27  C   UNL     1       2.215   3.089  17.557  0.00  0.00    +0.000 A 
ATOM     28  C   UNL     1       3.605   2.972  17.606  0.00  0.00    +0.000 A 
ENDBRANCH  22  23
ENDBRANCH   7  22
TORSDOF 3
ENDMDL
MODEL 2
REMARK VINA RESULT:      -8.4      1.845      2.272
REMARK  Name = 
REMARK  3 active torsions:
REMARK  status: ('A' for Active; 'I' for Inactive)
REMARK    1  A    between atoms: C_7  and  C_8
REMARK    2  A    between atoms: C_14  and  C_15
REMARK    3  A    between atoms: C_15  and  C_16
REMARK                            x       y       z     vdW  Elec       q    Type
REMARK                         _______ _______ _______ _____ _____    ______ ____
ROOT
ATOM      1  C   UNL     1       8.259   8.995  18.163  0.00  0.00    +0.000 C 
ATOM      2  O   UNL     1       8.954   8.354  18.943  0.00  0.00    +0.000 OA
ATOM      3  N   UNL     1       7.149   8.542  17.478  0.00  0.00    +0.000 N 
ATOM      4  C   UNL     1       6.739   7.240  17.636  0.00  0.00    +0.000 A 
ATOM      5  N   UNL     1       7.108   6.381  18.549  0.00  0.00    +0.000 NA
ATOM      6  C   UNL     1       6.549   5.152  18.288  0.00  0.00    +0.000 A 
ATOM      7  C   UNL     1       5.750   5.088  17.165  0.00  0.00    +0.000 A 
ATOM      8  S   UNL     1       5.640   6.659  16.463  0.00  0.00    +0.000 S 
ATOM      9  H   UNL     1       6.731   9.070  16.729  0.00  0.00    +0.000 HD
ENDROOT
BRANCH   1  16
ATOM     10  O   UNL     1      11.909  15.723  17.397  0.00  0.00    +0.000 OA
ATOM     11  C   UNL     1      11.478  14.586  17.579  0.00  0.00    +0.000 C 
ATOM     12  C   UNL     1      12.325  13.451  18.155  0.00  0.00    +0.000 C 
ATOM     13  O   UNL     1      11.910  12.108  17.956  0.00  0.00    +0.000 OA
ATOM     14  C   UNL     1      10.558  11.945  17.837  0.00  0.00    +0.000 A 
ATOM     15  C   UNL     1      10.075  10.651  17.998  0.00  0.00    +0.000 A 
ATOM     16  C   UNL     1       8.705  10.381  17.868  0.00  0.00    +0.000 A 
ATOM     17  C   UNL     1       7.818  11.420  17.556  0.00  0.00    +0.000 A 
ATOM     18  C   UNL     1       8.310  12.723  17.382  0.00  0.00    +0.000 A 
ATOM     19  C   UNL     1       9.677  12.981  17.527  0.00  0.00    +0.000 A 
ATOM     20  N   UNL     1      10.164  14.276  17.353  0.00  0.00    +0.000 N 
ATOM     21  H   UNL     1       9.563  15.031  17.050  0.00  0.00    +0.000 HD
ENDBRANCH   1  16
BRANCH   7  22
ATOM     22  C   UNL     1       5.076   3.889  16.576  0.00  0.00    +0.000 C 
BRANCH  22  23
ATOM     23  C   UNL     1       3.801   3.516  17.298  0.00  0.00    +0.000 A 
ATOM     24  C   UNL     1       3.640   2.226  17.820  0.00  0.00    +0.000 A 
ATOM     25  C   UNL     1       2.446   1.860  18.444  0.00  0.00    +0.000 A 
ATOM     26  C   UNL     1       1.405   2.779  18.553  0.00  0.00    +0.000 A 
ATOM     27  C   UNL     1       1.558   4.069  18.048  0.00  0.00    +0.000 A 
ATOM     28  C   UNL     1       2.750   4.437  17.422  0.00  0.00    +0.000 A 
ENDBRANCH  22  23
ENDBRANCH   7  22
TORSDOF 3
ENDMDL
MODEL 3
REMARK VINA RESULT:      -8.4      7.054      8.519
REMARK  Name = 
REMARK  3 active torsions:
REMARK  status: ('A' for Active; 'I' for Inactive)
REMARK    1  A    between atoms: C_7  and  C_8
REMARK    2  A    between atoms: C_14  and  C_15
REMARK    3  A    between atoms: C_15  and  C_16
REMARK                            x       y       z     vdW  Elec       q    Type
REMARK                         _______ _______ _______ _____ _____    ______ ____
ROOT
ATOM      1  C   UNL     1       2.336   7.292  19.228  0.00  0.00    +0.000 C 
ATOM      2  O   UNL     1       2.236   6.324  19.974  0.00  0.00    +0.000 OA
ATOM      3  N   UNL     1       3.140   7.396  18.110  0.00  0.00    +0.000 N 
ATOM      4  C   UNL     1       3.945   6.341  17.753  0.00  0.00    +0.000 A 
ATOM      5  N   UNL     1       3.904   5.109  18.187  0.00  0.00    +0.000 NA
ATOM      6  C   UNL     1       4.955   4.394  17.662  0.00  0.00    +0.000 A 
ATOM      7  C   UNL     1       5.796   5.098  16.824  0.00  0.00    +0.000 A 
ATOM      8  S   UNL     1       5.185   6.699  16.633  0.00  0.00    +0.000 S 
ATOM      9  H   UNL     1       3.298   8.276  17.646  0.00  0.00    +0.000 HD
ENDROOT
BRANCH   1  16
ATOM     10  O   UNL     1      -1.882  12.774  22.595  0.00  0.00    +0.000 OA
ATOM     11  C   UNL     1      -1.208  11.818  22.213  0.00  0.00    +0.000 C 
ATOM     12  C   UNL     1      -0.832  10.643  23.115  0.00  0.00    +0.000 C 
ATOM     13  O   UNL     1       0.256   9.810  22.749  0.00  0.00    +0.000 OA
ATOM     14  C   UNL     1       0.472   9.718  21.403  0.00  0.00    +0.000 A 
ATOM     15  C   UNL     1       1.271   8.664  20.974  0.00  0.00    +0.000 A 
ATOM     16  C   UNL     1       1.568   8.504  19.613  0.00  0.00    +0.000 A 
ATOM     17  C   UNL     1       1.072   9.424  18.680  0.00  0.00    +0.000 A 
ATOM     18  C   UNL     1       0.276  10.494  19.116  0.00  0.00    +0.000 A 
ATOM     19  C   UNL     1      -0.024  10.635  20.475  0.00  0.00    +0.000 A 
ATOM     20  N   UNL     1      -0.814  11.699  20.908  0.00  0.00    +0.000 N 
ATOM     21  H   UNL     1      -1.122  12.423  20.271  0.00  0.00    +0.000 HD
ENDBRANCH   1  16
BRANCH   7  22
ATOM     22  C   UNL     1       7.058   4.628  16.172  0.00  0.00    +0.000 C 
BRANCH  22  23
ATOM     23  C   UNL     1       6.938   4.518  14.670  0.00  0.00    +0.000 A 
ATOM     24  C   UNL     1       6.019   3.627  14.101  0.00  0.00    +0.000 A 
ATOM     25  C   UNL     1       5.938   3.484  12.715  0.00  0.00    +0.000 A 
ATOM     26  C   UNL     1       6.773   4.230  11.886  0.00  0.00    +0.000 A 
ATOM     27  C   UNL     1       7.685   5.127  12.440  0.00  0.00    +0.000 A 
ATOM     28  C   UNL     1       7.769   5.271  13.826  0.00  0.00    +0.000 A 
ENDBRANCH  22  23
ENDBRANCH   7  22
TORSDOF 3
ENDMDL
MODEL 4
REMARK VINA RESULT:      -8.4      6.941     10.631
REMARK  Name = 
REMARK  3 active torsions:
REMARK  status: ('A' for Active; 'I' for Inactive)
REMARK    1  A    between atoms: C_7  and  C_8
REMARK    2  A    between atoms: C_14  and  C_15
REMARK    3  A    between atoms: C_15  and  C_16
REMARK                            x       y       z     vdW  Elec       q    Type
REMARK                         _______ _______ _______ _____ _____    ______ ____
ROOT
ATOM      1  C   UNL     1       2.198   8.096  18.442  0.00  0.00    +0.000 C 
ATOM      2  O   UNL     1       2.258   8.683  17.368  0.00  0.00    +0.000 OA
ATOM      3  N   UNL     1       1.569   8.532  19.591  0.00  0.00    +0.000 N 
ATOM      4  C   UNL     1       0.938   9.753  19.596  0.00  0.00    +0.000 A 
ATOM      5  N   UNL     1       0.622  10.505  18.575  0.00  0.00    +0.000 NA
ATOM      6  C   UNL     1       0.102  11.698  19.017  0.00  0.00    +0.000 A 
ATOM      7  C   UNL     1       0.027  11.845  20.388  0.00  0.00    +0.000 A 
ATOM      8  S   UNL     1       0.559  10.387  21.138  0.00  0.00    +0.000 S 
ATOM      9  H   UNL     1       1.706   8.079  20.480  0.00  0.00    +0.000 HD
ENDROOT
BRANCH   1  16
ATOM     10  O   UNL     1       5.143   1.215  20.222  0.00  0.00    +0.000 OA
ATOM     11  C   UNL     1       4.552   2.282  20.060  0.00  0.00    +0.000 C 
ATOM     12  C   UNL     1       3.333   2.697  20.882  0.00  0.00    +0.000 C 
ATOM     13  O   UNL     1       2.475   3.712  20.384  0.00  0.00    +0.000 OA
ATOM     14  C   UNL     1       3.091   4.633  19.584  0.00  0.00    +0.000 A 
ATOM     15  C   UNL     1       2.403   5.821  19.364  0.00  0.00    +0.000 A 
ATOM     16  C   UNL     1       2.945   6.815  18.536  0.00  0.00    +0.000 A 
ATOM     17  C   UNL     1       4.181   6.602  17.912  0.00  0.00    +0.000 A 
ATOM     18  C   UNL     1       4.868   5.397  18.126  0.00  0.00    +0.000 A 
ATOM     19  C   UNL     1       4.323   4.419  18.964  0.00  0.00    +0.000 A 
ATOM     20  N   UNL     1       5.006   3.222  19.175  0.00  0.00    +0.000 N 
ATOM     21  H   UNL     1       5.860   3.006  18.678  0.00  0.00    +0.000 HD
ENDBRANCH   1  16
BRANCH   7  22
ATOM     22  C   UNL     1      -0.409  13.045  21.167  0.00  0.00    +0.000 C 
BRANCH  22  23
ATOM     23  C   UNL     1      -1.802  12.904  21.736  0.00  0.00    +0.000 A 
ATOM     24  C   UNL     1      -2.920  13.088  20.912  0.00  0.00    +0.000 A 
ATOM     25  C   UNL     1      -4.209  13.008  21.441  0.00  0.00    +0.000 A 
ATOM     26  C   UNL     1      -4.393  12.742  22.796  0.00  0.00    +0.000 A 
ATOM     27  C   UNL     1      -3.288  12.547  23.624  0.00  0.00    +0.000 A 
ATOM     28  C   UNL     1      -1.998  12.628  23.098  0.00  0.00    +0.000 A 
ENDBRANCH  22  23
ENDBRANCH   7  22
TORSDOF 3
ENDMDL
MODEL 5
REMARK VINA RESULT:      -8.2      6.865     10.828
REMARK  Name = 
REMARK  3 active torsions:
REMARK  status: ('A' for Active; 'I' for Inactive)
REMARK    1  A    between atoms: C_7  and  C_8
REMARK    2  A    between atoms: C_14  and  C_15
REMARK    3  A    between atoms: C_15  and  C_16
REMARK                            x       y       z     vdW  Elec       q    Type
REMARK                         _______ _______ _______ _____ _____    ______ ____
ROOT
ATOM      1  C   UNL     1       2.273   8.233  18.122  0.00  0.00    +0.000 C 
ATOM      2  O   UNL     1       2.518   9.009  17.205  0.00  0.00    +0.000 OA
ATOM      3  N   UNL     1       1.577   8.513  19.280  0.00  0.00    +0.000 N 
ATOM      4  C   UNL     1       1.094   9.782  19.491  0.00  0.00    +0.000 A 
ATOM      5  N   UNL     1       0.980  10.758  18.629  0.00  0.00    +0.000 NA
ATOM      6  C   UNL     1       0.556  11.899  19.269  0.00  0.00    +0.000 A 
ATOM      7  C   UNL     1       0.349  11.778  20.628  0.00  0.00    +0.000 A 
ATOM      8  S   UNL     1       0.623  10.142  21.095  0.00  0.00    +0.000 S 
ATOM      9  H   UNL     1       1.561   7.877  20.062  0.00  0.00    +0.000 HD
ENDROOT
BRANCH   1  16
ATOM     10  O   UNL     1       3.993   0.739  18.385  0.00  0.00    +0.000 OA
ATOM     11  C   UNL     1       3.565   1.892  18.415  0.00  0.00    +0.000 C 
ATOM     12  C   UNL     1       2.194   2.263  18.981  0.00  0.00    +0.000 C 
ATOM     13  O   UNL     1       1.608   3.502  18.617  0.00  0.00    +0.000 OA
ATOM     14  C   UNL     1       2.505   4.491  18.328  0.00  0.00    +0.000 A 
ATOM     15  C   UNL     1       2.012   5.791  18.317  0.00  0.00    +0.000 A 
ATOM     16  C   UNL     1       2.853   6.869  18.005  0.00  0.00    +0.000 A 
ATOM     17  C   UNL     1       4.196   6.634  17.687  0.00  0.00    +0.000 A 
ATOM     18  C   UNL     1       4.689   5.320  17.688  0.00  0.00    +0.000 A 
ATOM     19  C   UNL     1       3.843   4.254  18.012  0.00  0.00    +0.000 A 
ATOM     20  N   UNL     1       4.334   2.949  18.012  0.00  0.00    +0.000 N 
ATOM     21  H   UNL     1       5.277   2.739  17.710  0.00  0.00    +0.000 HD
ENDBRANCH   1  16
BRANCH   7  22
ATOM     22  C   UNL     1      -0.029  12.847  21.605  0.00  0.00    +0.000 C 
BRANCH  22  23
ATOM     23  C   UNL     1      -1.496  12.824  21.966  0.00  0.00    +0.000 A 
ATOM     24  C   UNL     1      -2.446  13.360  21.086  0.00  0.00    +0.000 A 
ATOM     25  C   UNL     1      -3.797  13.386  21.435  0.00  0.00    +0.000 A 
ATOM     26  C   UNL     1      -4.212  12.876  22.663  0.00  0.00    +0.000 A 
ATOM     27  C   UNL     1      -3.277  12.330  23.542  0.00  0.00    +0.000 A 
ATOM     28  C   UNL     1      -1.926  12.304  23.196  0.00  0.00    +0.000 A 
ENDBRANCH  22  23
ENDBRANCH   7  22
TORSDOF 3
ENDMDL
MODEL 6
REMARK VINA RESULT:      -8.2      1.010      1.050
REMARK  Name = 
REMARK  3 active torsions:
REMARK  status: ('A' for Active; 'I' for Inactive)
REMARK    1  A    between atoms: C_7  and  C_8
REMARK    2  A    between atoms: C_14  and  C_15
REMARK    3  A    between atoms: C_15  and  C_16
REMARK                            x       y       z     vdW  Elec       q    Type
REMARK                         _______ _______ _______ _____ _____    ______ ____
ROOT
ATOM      1  C   UNL     1       8.385   9.474  18.066  0.00  0.00    +0.000 C 
ATOM      2  O   UNL     1       7.738   9.769  17.067  0.00  0.00    +0.000 OA
ATOM      3  N   UNL     1       8.459   8.234  18.668  0.00  0.00    +0.000 N 
ATOM      4  C   UNL     1       7.742   7.183  18.146  0.00  0.00    +0.000 A 
ATOM      5  N   UNL     1       7.154   7.104  16.982  0.00  0.00    +0.000 NA
ATOM      6  C   UNL     1       6.451   5.925  16.893  0.00  0.00    +0.000 A 
ATOM      7  C   UNL     1       6.512   5.110  18.005  0.00  0.00    +0.000 A 
ATOM      8  S   UNL     1       7.563   5.826  19.169  0.00  0.00    +0.000 S 
ATOM      9  H   UNL     1       8.871   8.105  19.578  0.00  0.00    +0.000 HD
ENDROOT
BRANCH   1  16
ATOM     10  O   UNL     1      12.325  15.774  20.057  0.00  0.00    +0.000 OA
ATOM     11  C   UNL     1      11.693  14.834  19.577  0.00  0.00    +0.000 C 
ATOM     12  C   UNL     1      11.321  14.743  18.097  0.00  0.00    +0.000 C 
ATOM     13  O   UNL     1      10.271  13.875  17.700  0.00  0.00    +0.000 OA
ATOM     14  C   UNL     1      10.103  12.783  18.503  0.00  0.00    +0.000 A 
ATOM     15  C   UNL     1       9.351  11.738  17.978  0.00  0.00    +0.000 A 
ATOM     16  C   UNL     1       9.104  10.586  18.739  0.00  0.00    +0.000 A 
ATOM     17  C   UNL     1       9.604  10.494  20.044  0.00  0.00    +0.000 A 
ATOM     18  C   UNL     1      10.353  11.555  20.576  0.00  0.00    +0.000 A 
ATOM     19  C   UNL     1      10.604  12.693  19.802  0.00  0.00    +0.000 A 
ATOM     20  N   UNL     1      11.347  13.747  20.333  0.00  0.00    +0.000 N 
ATOM     21  H   UNL     1      11.654  13.745  21.296  0.00  0.00    +0.000 HD
ENDBRANCH   1  16
BRANCH   7  22
ATOM     22  C   UNL     1       5.797   3.818  18.245  0.00  0.00    +0.000 C 
BRANCH  22  23
ATOM     23  C   UNL     1       4.553   3.980  19.087  0.00  0.00    +0.000 A 
ATOM     24  C   UNL     1       3.921   5.228  19.176  0.00  0.00    +0.000 A 
ATOM     25  C   UNL     1       2.801   5.397  19.991  0.00  0.00    +0.000 A 
ATOM     26  C   UNL     1       2.301   4.322  20.723  0.00  0.00    +0.000 A 
ATOM     27  C   UNL     1       2.914   3.073  20.635  0.00  0.00    +0.000 A 
ATOM     28  C   UNL     1       4.036   2.902  19.821  0.00  0.00    +0.000 A 
ENDBRANCH  22  23
ENDBRANCH   7  22
TORSDOF 3
ENDMDL
MODEL 7
REMARK VINA RESULT:      -8.1      6.956      9.246
REMARK  Name = 
REMARK  3 active torsions:
REMARK  status: ('A' for Active; 'I' for Inactive)
REMARK    1  A    between atoms: C_7  and  C_8
REMARK    2  A    between atoms: C_14  and  C_15
REMARK    3  A    between atoms: C_15  and  C_16
REMARK                            x       y       z     vdW  Elec       q    Type
REMARK                         _______ _______ _______ _____ _____    ______ ____
ROOT
ATOM      1  C   UNL     1       0.848   9.458  20.049  0.00  0.00    +0.000 C 
ATOM      2  O   UNL     1       1.033  10.000  18.965  0.00  0.00    +0.000 OA
ATOM      3  N   UNL     1       1.348   8.239  20.461  0.00  0.00    +0.000 N 
ATOM      4  C   UNL     1       2.131   7.502  19.605  0.00  0.00    +0.000 A 
ATOM      5  N   UNL     1       2.699   7.889  18.492  0.00  0.00    +0.000 NA
ATOM      6  C   UNL     1       3.303   6.817  17.879  0.00  0.00    +0.000 A 
ATOM      7  C   UNL     1       3.188   5.610  18.539  0.00  0.00    +0.000 A 
ATOM      8  S   UNL     1       2.354   5.861  20.027  0.00  0.00    +0.000 S 
ATOM      9  H   UNL     1       1.018   7.780  21.295  0.00  0.00    +0.000 HD
ENDROOT
BRANCH   1  16
ATOM     10  O   UNL     1      -3.859  14.237  23.815  0.00  0.00    +0.000 OA
ATOM     11  C   UNL     1      -3.117  13.587  23.080  0.00  0.00    +0.000 C 
ATOM     12  C   UNL     1      -2.724  14.039  21.674  0.00  0.00    +0.000 C 
ATOM     13  O   UNL     1      -2.224  13.081  20.754  0.00  0.00    +0.000 OA
ATOM     14  C   UNL     1      -1.568  12.030  21.330  0.00  0.00    +0.000 A 
ATOM     15  C   UNL     1      -0.764  11.267  20.490  0.00  0.00    +0.000 A 
ATOM     16  C   UNL     1      -0.073  10.152  20.986  0.00  0.00    +0.000 A 
ATOM     17  C   UNL     1      -0.205   9.795  22.334  0.00  0.00    +0.000 A 
ATOM     18  C   UNL     1      -1.026  10.560  23.177  0.00  0.00    +0.000 A 
ATOM     19  C   UNL     1      -1.701  11.677  22.673  0.00  0.00    +0.000 A 
ATOM     20  N   UNL     1      -2.517  12.435  23.511  0.00  0.00    +0.000 N 
ATOM     21  H   UNL     1      -2.695  12.158  24.468  0.00  0.00    +0.000 HD
ENDBRANCH   1  16
BRANCH   7  22
ATOM     22  C   UNL     1       3.659   4.263  18.092  0.00  0.00    +0.000 C 
BRANCH  22  23
ATOM     23  C   UNL     1       4.920   4.326  17.261  0.00  0.00    +0.000 A 
ATOM     24  C   UNL     1       6.160   4.532  17.879  0.00  0.00    +0.000 A 
ATOM     25  C   UNL     1       7.322   4.641  17.114  0.00  0.00    +0.000 A 
ATOM     26  C   UNL     1       7.256   4.543  15.725  0.00  0.00    +0.000 A 
ATOM     27  C   UNL     1       6.029   4.327  15.100  0.00  0.00    +0.000 A 
ATOM     28  C   UNL     1       4.866   4.220  15.863  0.00  0.00    +0.000 A 
ENDBRANCH  22  23
ENDBRANCH   7  22
TORSDOF 3
ENDMDL
MODEL 8
REMARK VINA RESULT:      -8.1      6.904      8.107
REMARK  Name = 
REMARK  3 active torsions:
REMARK  status: ('A' for Active; 'I' for Inactive)
REMARK    1  A    between atoms: C_7  and  C_8
REMARK    2  A    between atoms: C_14  and  C_15
REMARK    3  A    between atoms: C_15  and  C_16
REMARK                            x       y       z     vdW  Elec       q    Type
REMARK                         _______ _______ _______ _____ _____    ______ ____
ROOT
ATOM      1  C   UNL     1       2.477   6.888  19.497  0.00  0.00    +0.000 C 
ATOM      2  O   UNL     1       2.549   5.906  20.226  0.00  0.00    +0.000 OA
ATOM      3  N   UNL     1       3.161   7.095  18.316  0.00  0.00    +0.000 N 
ATOM      4  C   UNL     1       4.042   6.141  17.866  0.00  0.00    +0.000 A 
ATOM      5  N   UNL     1       4.173   4.906  18.273  0.00  0.00    +0.000 NA
ATOM      6  C   UNL     1       5.245   4.318  17.643  0.00  0.00    +0.000 A 
ATOM      7  C   UNL     1       5.927   5.122  16.752  0.00  0.00    +0.000 A 
ATOM      8  S   UNL     1       5.131   6.648  16.651  0.00  0.00    +0.000 S 
ATOM      9  H   UNL     1       3.182   7.994  17.860  0.00  0.00    +0.000 HD
ENDROOT
BRANCH   1  16
ATOM     10  O   UNL     1      -1.290  13.476  20.761  0.00  0.00    +0.000 OA
ATOM     11  C   UNL     1      -0.631  12.498  20.411  0.00  0.00    +0.000 C 
ATOM     12  C   UNL     1       0.204  12.464  19.132  0.00  0.00    +0.000 C 
ATOM     13  O   UNL     1       0.590  11.211  18.590  0.00  0.00    +0.000 OA
ATOM     14  C   UNL     1       0.735  10.214  19.513  0.00  0.00    +0.000 A 
ATOM     15  C   UNL     1       1.441   9.088  19.103  0.00  0.00    +0.000 A 
ATOM     16  C   UNL     1       1.619   8.004  19.974  0.00  0.00    +0.000 A 
ATOM     17  C   UNL     1       1.066   8.047  21.261  0.00  0.00    +0.000 A 
ATOM     18  C   UNL     1       0.344   9.179  21.668  0.00  0.00    +0.000 A 
ATOM     19  C   UNL     1       0.185  10.260  20.794  0.00  0.00    +0.000 A 
ATOM     20  N   UNL     1      -0.534  11.384  21.200  0.00  0.00    +0.000 N 
ATOM     21  H   UNL     1      -1.011  11.413  22.091  0.00  0.00    +0.000 HD
ENDBRANCH   1  16
BRANCH   7  22
ATOM     22  C   UNL     1       7.169   4.803  15.982  0.00  0.00    +0.000 C 
BRANCH  22  23
ATOM     23  C   UNL     1       6.904   4.542  14.517  0.00  0.00    +0.000 A 
ATOM     24  C   UNL     1       5.839   3.718  14.131  0.00  0.00    +0.000 A 
ATOM     25  C   UNL     1       5.619   3.433  12.782  0.00  0.00    +0.000 A 
ATOM     26  C   UNL     1       6.458   3.969  11.809  0.00  0.00    +0.000 A 
ATOM     27  C   UNL     1       7.515   4.800  12.180  0.00  0.00    +0.000 A 
ATOM     28  C   UNL     1       7.738   5.085  13.528  0.00  0.00    +0.000 A 
ENDBRANCH  22  23
ENDBRANCH   7  22
TORSDOF 3
ENDMDL
MODEL 9
REMARK VINA RESULT:      -8.1      8.912     10.776
REMARK  Name = 
REMARK  3 active torsions:
REMARK  status: ('A' for Active; 'I' for Inactive)
REMARK    1  A    between atoms: C_7  and  C_8
REMARK    2  A    between atoms: C_14  and  C_15
REMARK    3  A    between atoms: C_15  and  C_16
REMARK                            x       y       z     vdW  Elec       q    Type
REMARK                         _______ _______ _______ _____ _____    ______ ____
ROOT
ATOM      1  C   UNL     1      -0.407  10.767  22.338  0.00  0.00    +0.000 C 
ATOM      2  O   UNL     1       0.116  10.132  23.247  0.00  0.00    +0.000 OA
ATOM      3  N   UNL     1      -0.278  10.533  20.983  0.00  0.00    +0.000 N 
ATOM      4  C   UNL     1       0.518   9.502  20.546  0.00  0.00    +0.000 A 
ATOM      5  N   UNL     1       1.016   8.513  21.240  0.00  0.00    +0.000 NA
ATOM      6  C   UNL     1       1.850   7.760  20.449  0.00  0.00    +0.000 A 
ATOM      7  C   UNL     1       1.980   8.188  19.143  0.00  0.00    +0.000 A 
ATOM      8  S   UNL     1       0.946   9.544  18.891  0.00  0.00    +0.000 S 
ATOM      9  H   UNL     1      -0.597  11.195  20.294  0.00  0.00    +0.000 HD
ENDROOT
BRANCH   1  16
ATOM     10  O   UNL     1      -5.773  15.941  24.239  0.00  0.00    +0.000 OA
ATOM     11  C   UNL     1      -5.045  14.996  23.941  0.00  0.00    +0.000 C 
ATOM     12  C   UNL     1      -5.554  13.564  23.777  0.00  0.00    +0.000 C 
ATOM     13  O   UNL     1      -4.630  12.489  23.842  0.00  0.00    +0.000 OA
ATOM     14  C   UNL     1      -3.365  12.803  23.433  0.00  0.00    +0.000 A 
ATOM     15  C   UNL     1      -2.526  11.734  23.140  0.00  0.00    +0.000 A 
ATOM     16  C   UNL     1      -1.201  11.958  22.737  0.00  0.00    +0.000 A 
ATOM     17  C   UNL     1      -0.714  13.268  22.646  0.00  0.00    +0.000 A 
ATOM     18  C   UNL     1      -1.559  14.345  22.954  0.00  0.00    +0.000 A 
ATOM     19  C   UNL     1      -2.882  14.109  23.342  0.00  0.00    +0.000 A 
ATOM     20  N   UNL     1      -3.720  15.180  23.649  0.00  0.00    +0.000 N 
ATOM     21  H   UNL     1      -3.377  16.132  23.669  0.00  0.00    +0.000 HD
ENDBRANCH   1  16
BRANCH   7  22
ATOM     22  C   UNL     1       2.866   7.635  18.072  0.00  0.00    +0.000 C 
BRANCH  22  23
ATOM     23  C   UNL     1       3.000   6.131  18.136  0.00  0.00    +0.000 A 
ATOM     24  C   UNL     1       4.237   5.547  18.435  0.00  0.00    +0.000 A 
ATOM     25  C   UNL     1       4.379   4.158  18.447  0.00  0.00    +0.000 A 
ATOM     26  C   UNL     1       3.287   3.342  18.162  0.00  0.00    +0.000 A 
ATOM     27  C   UNL     1       2.048   3.911  17.874  0.00  0.00    +0.000 A 
ATOM     28  C   UNL     1       1.904   5.300  17.859  0.00  0.00    +0.000 A 
ENDBRANCH  22  23
ENDBRANCH   7  22
TORSDOF 3
ENDMDL
