MODEL 1
REMARK VINA RESULT:      -9.2      0.000      0.000
REMARK  Name = 
REMARK  4 active torsions:
REMARK  status: ('A' for Active; 'I' for Inactive)
REMARK    1  A    between atoms: C_1  and  C_2
REMARK    2  A    between atoms: C_9  and  N_10
REMARK    3  A    between atoms: C_11  and  C_13
REMARK    4  A    between atoms: C_17  and  C_18
REMARK                            x       y       z     vdW  Elec       q    Type
REMARK                         _______ _______ _______ _____ _____    ______ ____
ROOT
ATOM      1  N   UNL     1       2.386   5.920  19.198  0.00  0.00    +0.000 N 
ATOM      2  C   UNL     1       1.861   4.726  19.661  0.00  0.00    +0.000 C 
ATOM      3  O   UNL     1       0.934   4.629  20.455  0.00  0.00    +0.000 OA
ATOM      4  H   UNL     1       3.058   5.871  18.443  0.00  0.00    +0.000 HD
ENDROOT
BRANCH   1  13
ATOM      5  C   UNL     1       0.281  12.421  18.752  0.00  0.00    +0.000 C 
ATOM      6  C   UNL     1       0.038  12.155  20.209  0.00  0.00    +0.000 C 
ATOM      7  O   UNL     1      -0.459  13.046  20.908  0.00  0.00    +0.000 OA
ATOM      8  N   UNL     1       0.353  10.923  20.733  0.00  0.00    +0.000 N 
ATOM      9  C   UNL     1      -0.015  10.633  22.130  0.00  0.00    +0.000 C 
ATOM     10  C   UNL     1       0.517   9.245  22.473  0.00  0.00    +0.000 C 
ATOM     11  C   UNL     1       0.983   8.769  21.136  0.00  0.00    +0.000 A 
ATOM     12  C   UNL     1       1.471   7.501  20.857  0.00  0.00    +0.000 A 
ATOM     13  C   UNL     1       1.924   7.205  19.570  0.00  0.00    +0.000 A 
ATOM     14  C   UNL     1       1.914   8.223  18.602  0.00  0.00    +0.000 A 
ATOM     15  C   UNL     1       1.405   9.504  18.896  0.00  0.00    +0.000 A 
ATOM     16  C   UNL     1       0.925   9.768  20.168  0.00  0.00    +0.000 A 
ENDBRANCH   1  13
BRANCH   2  17
ATOM     17  C   UNL     1       2.454   3.523  19.100  0.00  0.00    +0.000 A 
ATOM     18  C   UNL     1       1.933   2.243  19.084  0.00  0.00    +0.000 A 
ATOM     19  N   UNL     1       2.775   1.507  18.306  0.00  0.00    +0.000 N 
ATOM     20  N   UNL     1       3.843   2.186  17.873  0.00  0.00    +0.000 NA
ATOM     21  C   UNL     1       3.679   3.430  18.359  0.00  0.00    +0.000 A 
ATOM     22  H   UNL     1       2.680   0.537  18.020  0.00  0.00    +0.000 HD
BRANCH  21  23
ATOM     23  C   UNL     1       4.691   4.467  18.117  0.00  0.00    +0.000 A 
ATOM     24  C   UNL     1       5.674   4.740  19.081  0.00  0.00    +0.000 A 
ATOM     25  C   UNL     1       6.633   5.735  18.860  0.00  0.00    +0.000 A 
ATOM     26  C   UNL     1       6.618   6.464  17.673  0.00  0.00    +0.000 A 
ATOM     27 CL   UNL     1       7.788   7.697  17.405  0.00  0.00    +0.000 Cl
ATOM     28  C   UNL     1       5.654   6.206  16.703  0.00  0.00    +0.000 A 
ATOM     29  C   UNL     1       4.689   5.221  16.932  0.00  0.00    +0.000 A 
ENDBRANCH  21  23
ENDBRANCH   2  17
TORSDOF 3
ENDMDL
MODEL 2
REMARK VINA RESULT:      -9.0      1.187      2.008
REMARK  Name = 
REMARK  4 active torsions:
REMARK  status: ('A' for Active; 'I' for Inactive)
REMARK    1  A    between atoms: C_1  and  C_2
REMARK    2  A    between atoms: C_9  and  N_10
REMARK    3  A    between atoms: C_11  and  C_13
REMARK    4  A    between atoms: C_17  and  C_18
REMARK                            x       y       z     vdW  Elec       q    Type
REMARK                         _______ _______ _______ _____ _____    ______ ____
ROOT
ATOM      1  N   UNL     1       2.619   6.224  20.317  0.00  0.00    +0.000 N 
ATOM      2  C   UNL     1       2.467   5.178  19.424  0.00  0.00    +0.000 C 
ATOM      3  O   UNL     1       1.669   5.160  18.495  0.00  0.00    +0.000 OA
ATOM      4  H   UNL     1       3.403   6.181  20.955  0.00  0.00    +0.000 HD
ENDROOT
BRANCH   1  13
ATOM      5  C   UNL     1      -1.281  11.478  22.340  0.00  0.00    +0.000 C 
ATOM      6  C   UNL     1      -0.921  11.923  20.953  0.00  0.00    +0.000 C 
ATOM      7  O   UNL     1      -1.328  13.018  20.548  0.00  0.00    +0.000 OA
ATOM      8  N   UNL     1      -0.130  11.116  20.167  0.00  0.00    +0.000 N 
ATOM      9  C   UNL     1       0.324  11.626  18.861  0.00  0.00    +0.000 C 
ATOM     10  C   UNL     1       1.107  10.512  18.173  0.00  0.00    +0.000 C 
ATOM     11  C   UNL     1       1.202   9.500  19.267  0.00  0.00    +0.000 A 
ATOM     12  C   UNL     1       1.916   8.312  19.206  0.00  0.00    +0.000 A 
ATOM     13  C   UNL     1       1.876   7.428  20.286  0.00  0.00    +0.000 A 
ATOM     14  C   UNL     1       1.072   7.752  21.391  0.00  0.00    +0.000 A 
ATOM     15  C   UNL     1       0.360   8.968  21.445  0.00  0.00    +0.000 A 
ATOM     16  C   UNL     1       0.442   9.849  20.380  0.00  0.00    +0.000 A 
ENDBRANCH   1  13
BRANCH   2  17
ATOM     17  C   UNL     1       3.378   4.060  19.609  0.00  0.00    +0.000 A 
ATOM     18  C   UNL     1       3.088   2.793  20.080  0.00  0.00    +0.000 A 
ATOM     19  N   UNL     1       4.227   2.064  19.912  0.00  0.00    +0.000 N 
ATOM     20  N   UNL     1       5.257   2.772  19.438  0.00  0.00    +0.000 NA
ATOM     21  C   UNL     1       4.767   4.011  19.254  0.00  0.00    +0.000 A 
ATOM     22  H   UNL     1       4.372   1.074  20.091  0.00  0.00    +0.000 HD
BRANCH  21  23
ATOM     23  C   UNL     1       5.634   5.094  18.770  0.00  0.00    +0.000 A 
ATOM     24  C   UNL     1       6.896   5.306  19.346  0.00  0.00    +0.000 A 
ATOM     25  C   UNL     1       7.720   6.345  18.895  0.00  0.00    +0.000 A 
ATOM     26  C   UNL     1       7.289   7.178  17.865  0.00  0.00    +0.000 A 
ATOM     27 CL   UNL     1       8.294   8.463  17.320  0.00  0.00    +0.000 Cl
ATOM     28  C   UNL     1       6.042   6.981  17.279  0.00  0.00    +0.000 A 
ATOM     29  C   UNL     1       5.215   5.952  17.740  0.00  0.00    +0.000 A 
ENDBRANCH  21  23
ENDBRANCH   2  17
TORSDOF 3
ENDMDL
MODEL 3
REMARK VINA RESULT:      -8.9      2.584      3.677
REMARK  Name = 
REMARK  4 active torsions:
REMARK  status: ('A' for Active; 'I' for Inactive)
REMARK    1  A    between atoms: C_1  and  C_2
REMARK    2  A    between atoms: C_9  and  N_10
REMARK    3  A    between atoms: C_11  and  C_13
REMARK    4  A    between atoms: C_17  and  C_18
REMARK                            x       y       z     vdW  Elec       q    Type
REMARK                         _______ _______ _______ _____ _____    ______ ____
ROOT
ATOM      1  N   UNL     1       3.053   6.680  17.614  0.00  0.00    +0.000 N 
ATOM      2  C   UNL     1       4.376   6.686  17.209  0.00  0.00    +0.000 C 
ATOM      3  O   UNL     1       5.166   7.601  17.409  0.00  0.00    +0.000 OA
ATOM      4  H   UNL     1       2.539   5.814  17.512  0.00  0.00    +0.000 HD
ENDROOT
BRANCH   1  13
ATOM      5  C   UNL     1      -0.238  12.537  18.943  0.00  0.00    +0.000 C 
ATOM      6  C   UNL     1      -0.228  11.914  20.308  0.00  0.00    +0.000 C 
ATOM      7  O   UNL     1      -0.779  12.506  21.243  0.00  0.00    +0.000 OA
ATOM      8  N   UNL     1       0.374  10.690  20.488  0.00  0.00    +0.000 N 
ATOM      9  C   UNL     1       0.258  10.031  21.801  0.00  0.00    +0.000 C 
ATOM     10  C   UNL     1       1.075   8.743  21.749  0.00  0.00    +0.000 C 
ATOM     11  C   UNL     1       1.434   8.680  20.301  0.00  0.00    +0.000 A 
ATOM     12  C   UNL     1       2.101   7.633  19.681  0.00  0.00    +0.000 A 
ATOM     13  C   UNL     1       2.421   7.727  18.326  0.00  0.00    +0.000 A 
ATOM     14  C   UNL     1       2.094   8.907  17.637  0.00  0.00    +0.000 A 
ATOM     15  C   UNL     1       1.406   9.959  18.276  0.00  0.00    +0.000 A 
ATOM     16  C   UNL     1       1.063   9.832  19.612  0.00  0.00    +0.000 A 
ENDBRANCH   1  13
BRANCH   2  17
ATOM     17  C   UNL     1       4.832   5.478  16.541  0.00  0.00    +0.000 A 
ATOM     18  C   UNL     1       5.580   5.373  15.383  0.00  0.00    +0.000 A 
ATOM     19  N   UNL     1       5.889   4.052  15.258  0.00  0.00    +0.000 N 
ATOM     20  N   UNL     1       5.341   3.277  16.200  0.00  0.00    +0.000 NA
ATOM     21  C   UNL     1       4.671   4.127  16.998  0.00  0.00    +0.000 A 
ATOM     22  H   UNL     1       6.477   3.607  14.559  0.00  0.00    +0.000 HD
BRANCH  21  23
ATOM     23  C   UNL     1       3.898   3.627  18.143  0.00  0.00    +0.000 A 
ATOM     24  C   UNL     1       2.515   3.419  18.030  0.00  0.00    +0.000 A 
ATOM     25  C   UNL     1       1.773   2.954  19.123  0.00  0.00    +0.000 A 
ATOM     26  C   UNL     1       2.408   2.692  20.335  0.00  0.00    +0.000 A 
ATOM     27 CL   UNL     1       1.494   2.134  21.682  0.00  0.00    +0.000 Cl
ATOM     28  C   UNL     1       3.778   2.889  20.465  0.00  0.00    +0.000 A 
ATOM     29  C   UNL     1       4.516   3.367  19.377  0.00  0.00    +0.000 A 
ENDBRANCH  21  23
ENDBRANCH   2  17
TORSDOF 3
ENDMDL
MODEL 4
REMARK VINA RESULT:      -8.9      1.184      1.250
REMARK  Name = 
REMARK  4 active torsions:
REMARK  status: ('A' for Active; 'I' for Inactive)
REMARK    1  A    between atoms: C_1  and  C_2
REMARK    2  A    between atoms: C_9  and  N_10
REMARK    3  A    between atoms: C_11  and  C_13
REMARK    4  A    between atoms: C_17  and  C_18
REMARK                            x       y       z     vdW  Elec       q    Type
REMARK                         _______ _______ _______ _____ _____    ______ ____
ROOT
ATOM      1  N   UNL     1       2.594   6.374  20.389  0.00  0.00    +0.000 N 
ATOM      2  C   UNL     1       2.417   5.363  19.460  0.00  0.00    +0.000 C 
ATOM      3  O   UNL     1       1.621   5.397  18.530  0.00  0.00    +0.000 OA
ATOM      4  H   UNL     1       3.374   6.289  21.027  0.00  0.00    +0.000 HD
ENDROOT
BRANCH   1  13
ATOM      5  C   UNL     1      -0.429  12.118  18.204  0.00  0.00    +0.000 C 
ATOM      6  C   UNL     1      -0.840  12.126  19.647  0.00  0.00    +0.000 C 
ATOM      7  O   UNL     1      -1.570  13.034  20.059  0.00  0.00    +0.000 OA
ATOM      8  N   UNL     1      -0.414  11.114  20.477  0.00  0.00    +0.000 N 
ATOM      9  C   UNL     1      -0.934  11.062  21.854  0.00  0.00    +0.000 C 
ATOM     10  C   UNL     1      -0.245   9.904  22.569  0.00  0.00    +0.000 C 
ATOM     11  C   UNL     1       0.484   9.253  21.440  0.00  0.00    +0.000 A 
ATOM     12  C   UNL     1       1.203   8.069  21.521  0.00  0.00    +0.000 A 
ATOM     13  C   UNL     1       1.883   7.598  20.397  0.00  0.00    +0.000 A 
ATOM     14  C   UNL     1       1.855   8.367  19.221  0.00  0.00    +0.000 A 
ATOM     15  C   UNL     1       1.111   9.563  19.149  0.00  0.00    +0.000 A 
ATOM     16  C   UNL     1       0.412   9.994  20.264  0.00  0.00    +0.000 A 
ENDBRANCH   1  13
BRANCH   2  17
ATOM     17  C   UNL     1       3.297   4.215  19.610  0.00  0.00    +0.000 A 
ATOM     18  C   UNL     1       2.979   2.950  20.066  0.00  0.00    +0.000 A 
ATOM     19  N   UNL     1       4.093   2.191  19.865  0.00  0.00    +0.000 N 
ATOM     20  N   UNL     1       5.134   2.876  19.381  0.00  0.00    +0.000 NA
ATOM     21  C   UNL     1       4.678   4.132  19.227  0.00  0.00    +0.000 A 
ATOM     22  H   UNL     1       4.211   1.195  20.025  0.00  0.00    +0.000 HD
BRANCH  21  23
ATOM     23  C   UNL     1       5.566   5.197  18.743  0.00  0.00    +0.000 A 
ATOM     24  C   UNL     1       6.834   5.381  19.317  0.00  0.00    +0.000 A 
ATOM     25  C   UNL     1       7.679   6.402  18.866  0.00  0.00    +0.000 A 
ATOM     26  C   UNL     1       7.264   7.246  17.838  0.00  0.00    +0.000 A 
ATOM     27 CL   UNL     1       8.296   8.510  17.293  0.00  0.00    +0.000 Cl
ATOM     28  C   UNL     1       6.013   7.077  17.255  0.00  0.00    +0.000 A 
ATOM     29  C   UNL     1       5.164   6.065  17.715  0.00  0.00    +0.000 A 
ENDBRANCH  21  23
ENDBRANCH   2  17
TORSDOF 3
ENDMDL
MODEL 5
REMARK VINA RESULT:      -8.8      1.772      2.431
REMARK  Name = 
REMARK  4 active torsions:
REMARK  status: ('A' for Active; 'I' for Inactive)
REMARK    1  A    between atoms: C_1  and  C_2
REMARK    2  A    between atoms: C_9  and  N_10
REMARK    3  A    between atoms: C_11  and  C_13
REMARK    4  A    between atoms: C_17  and  C_18
REMARK                            x       y       z     vdW  Elec       q    Type
REMARK                         _______ _______ _______ _____ _____    ______ ____
ROOT
ATOM      1  N   UNL     1       3.406   6.794  17.951  0.00  0.00    +0.000 N 
ATOM      2  C   UNL     1       3.680   5.543  18.475  0.00  0.00    +0.000 C 
ATOM      3  O   UNL     1       3.192   5.091  19.503  0.00  0.00    +0.000 OA
ATOM      4  H   UNL     1       3.763   7.001  17.028  0.00  0.00    +0.000 HD
ENDROOT
BRANCH   1  13
ATOM      5  C   UNL     1      -1.191  11.836  18.533  0.00  0.00    +0.000 C 
ATOM      6  C   UNL     1      -1.112  11.374  19.958  0.00  0.00    +0.000 C 
ATOM      7  O   UNL     1      -1.831  11.915  20.807  0.00  0.00    +0.000 OA
ATOM      8  N   UNL     1      -0.259  10.347  20.290  0.00  0.00    +0.000 N 
ATOM      9  C   UNL     1      -0.291   9.815  21.664  0.00  0.00    +0.000 C 
ATOM     10  C   UNL     1       0.798   8.752  21.777  0.00  0.00    +0.000 C 
ATOM     11  C   UNL     1       1.237   8.627  20.355  0.00  0.00    +0.000 A 
ATOM     12  C   UNL     1       2.155   7.706  19.873  0.00  0.00    +0.000 A 
ATOM     13  C   UNL     1       2.516   7.733  18.525  0.00  0.00    +0.000 A 
ATOM     14  C   UNL     1       1.967   8.730  17.702  0.00  0.00    +0.000 A 
ATOM     15  C   UNL     1       1.026   9.654  18.201  0.00  0.00    +0.000 A 
ATOM     16  C   UNL     1       0.652   9.587  19.533  0.00  0.00    +0.000 A 
ENDBRANCH   1  13
BRANCH   2  17
ATOM     17  C   UNL     1       4.583   4.719  17.687  0.00  0.00    +0.000 A 
ATOM     18  C   UNL     1       4.319   3.509  17.075  0.00  0.00    +0.000 A 
ATOM     19  N   UNL     1       5.421   3.221  16.327  0.00  0.00    +0.000 N 
ATOM     20  N   UNL     1       6.412   4.110  16.460  0.00  0.00    +0.000 NA
ATOM     21  C   UNL     1       5.929   5.038  17.304  0.00  0.00    +0.000 A 
ATOM     22  H   UNL     1       5.564   2.440  15.693  0.00  0.00    +0.000 HD
BRANCH  21  23
ATOM     23  C   UNL     1       6.762   6.173  17.724  0.00  0.00    +0.000 A 
ATOM     24  C   UNL     1       6.671   7.406  17.061  0.00  0.00    +0.000 A 
ATOM     25  C   UNL     1       7.471   8.487  17.450  0.00  0.00    +0.000 A 
ATOM     26  C   UNL     1       8.368   8.343  18.507  0.00  0.00    +0.000 A 
ATOM     27 CL   UNL     1       9.363   9.666  18.977  0.00  0.00    +0.000 Cl
ATOM     28  C   UNL     1       8.471   7.129  19.179  0.00  0.00    +0.000 A 
ATOM     29  C   UNL     1       7.680   6.047  18.780  0.00  0.00    +0.000 A 
ENDBRANCH  21  23
ENDBRANCH   2  17
TORSDOF 3
ENDMDL
MODEL 6
REMARK VINA RESULT:      -8.8      1.795      2.846
REMARK  Name = 
REMARK  4 active torsions:
REMARK  status: ('A' for Active; 'I' for Inactive)
REMARK    1  A    between atoms: C_1  and  C_2
REMARK    2  A    between atoms: C_9  and  N_10
REMARK    3  A    between atoms: C_11  and  C_13
REMARK    4  A    between atoms: C_17  and  C_18
REMARK                            x       y       z     vdW  Elec       q    Type
REMARK                         _______ _______ _______ _____ _____    ______ ____
ROOT
ATOM      1  N   UNL     1       3.395   6.622  18.121  0.00  0.00    +0.000 N 
ATOM      2  C   UNL     1       3.869   5.426  18.630  0.00  0.00    +0.000 C 
ATOM      3  O   UNL     1       3.572   4.963  19.724  0.00  0.00    +0.000 OA
ATOM      4  H   UNL     1       3.603   6.832  17.153  0.00  0.00    +0.000 HD
ENDROOT
BRANCH   1  13
ATOM      5  C   UNL     1      -0.171   9.633  23.133  0.00  0.00    +0.000 C 
ATOM      6  C   UNL     1      -0.552  10.500  21.970  0.00  0.00    +0.000 C 
ATOM      7  O   UNL     1      -1.301  11.464  22.158  0.00  0.00    +0.000 OA
ATOM      8  N   UNL     1      -0.044  10.218  20.722  0.00  0.00    +0.000 N 
ATOM      9  C   UNL     1      -0.319  11.155  19.618  0.00  0.00    +0.000 C 
ATOM     10  C   UNL     1       0.286  10.566  18.347  0.00  0.00    +0.000 C 
ATOM     11  C   UNL     1       1.048   9.404  18.893  0.00  0.00    +0.000 A 
ATOM     12  C   UNL     1       1.880   8.570  18.161  0.00  0.00    +0.000 A 
ATOM     13  C   UNL     1       2.493   7.485  18.789  0.00  0.00    +0.000 A 
ATOM     14  C   UNL     1       2.209   7.242  20.144  0.00  0.00    +0.000 A 
ATOM     15  C   UNL     1       1.369   8.104  20.879  0.00  0.00    +0.000 A 
ATOM     16  C   UNL     1       0.801   9.197  20.248  0.00  0.00    +0.000 A 
ENDBRANCH   1  13
BRANCH   2  17
ATOM     17  C   UNL     1       4.743   4.673  17.745  0.00  0.00    +0.000 A 
ATOM     18  C   UNL     1       4.484   3.474  17.108  0.00  0.00    +0.000 A 
ATOM     19  N   UNL     1       5.537   3.263  16.269  0.00  0.00    +0.000 N 
ATOM     20  N   UNL     1       6.496   4.190  16.361  0.00  0.00    +0.000 NA
ATOM     21  C   UNL     1       6.041   5.066  17.275  0.00  0.00    +0.000 A 
ATOM     22  H   UNL     1       5.664   2.512  15.597  0.00  0.00    +0.000 HD
BRANCH  21  23
ATOM     23  C   UNL     1       6.855   6.222  17.675  0.00  0.00    +0.000 A 
ATOM     24  C   UNL     1       7.814   6.098  18.692  0.00  0.00    +0.000 A 
ATOM     25  C   UNL     1       8.583   7.200  19.084  0.00  0.00    +0.000 A 
ATOM     26  C   UNL     1       8.402   8.432  18.461  0.00  0.00    +0.000 A 
ATOM     27 CL   UNL     1       9.337   9.790  18.952  0.00  0.00    +0.000 Cl
ATOM     28  C   UNL     1       7.459   8.574  17.448  0.00  0.00    +0.000 A 
ATOM     29  C   UNL     1       6.681   7.476  17.067  0.00  0.00    +0.000 A 
ENDBRANCH  21  23
ENDBRANCH   2  17
TORSDOF 3
ENDMDL
MODEL 7
REMARK VINA RESULT:      -8.7      0.980      1.876
REMARK  Name = 
REMARK  4 active torsions:
REMARK  status: ('A' for Active; 'I' for Inactive)
REMARK    1  A    between atoms: C_1  and  C_2
REMARK    2  A    between atoms: C_9  and  N_10
REMARK    3  A    between atoms: C_11  and  C_13
REMARK    4  A    between atoms: C_17  and  C_18
REMARK                            x       y       z     vdW  Elec       q    Type
REMARK                         _______ _______ _______ _____ _____    ______ ____
ROOT
ATOM      1  N   UNL     1       2.698   5.749  19.315  0.00  0.00    +0.000 N 
ATOM      2  C   UNL     1       2.192   4.806  18.438  0.00  0.00    +0.000 C 
ATOM      3  O   UNL     1       1.126   4.905  17.842  0.00  0.00    +0.000 OA
ATOM      4  H   UNL     1       3.648   5.621  19.640  0.00  0.00    +0.000 HD
ENDROOT
BRANCH   1  13
ATOM      5  C   UNL     1      -0.639  10.544  22.889  0.00  0.00    +0.000 C 
ATOM      6  C   UNL     1      -0.307  11.314  21.645  0.00  0.00    +0.000 C 
ATOM      7  O   UNL     1      -0.636  12.503  21.567  0.00  0.00    +0.000 OA
ATOM      8  N   UNL     1       0.375  10.690  20.625  0.00  0.00    +0.000 N 
ATOM      9  C   UNL     1       0.811  11.493  19.469  0.00  0.00    +0.000 C 
ATOM     10  C   UNL     1       1.463  10.548  18.465  0.00  0.00    +0.000 C 
ATOM     11  C   UNL     1       1.521   9.278  19.250  0.00  0.00    +0.000 A 
ATOM     12  C   UNL     1       2.126   8.101  18.834  0.00  0.00    +0.000 A 
ATOM     13  C   UNL     1       2.061   6.969  19.648  0.00  0.00    +0.000 A 
ATOM     14  C   UNL     1       1.338   7.044  20.850  0.00  0.00    +0.000 A 
ATOM     15  C   UNL     1       0.737   8.250  21.266  0.00  0.00    +0.000 A 
ATOM     16  C   UNL     1       0.845   9.373  20.463  0.00  0.00    +0.000 A 
ENDBRANCH   1  13
BRANCH   2  17
ATOM     17  C   UNL     1       3.044   3.652  18.200  0.00  0.00    +0.000 A 
ATOM     18  C   UNL     1       2.688   2.317  18.190  0.00  0.00    +0.000 A 
ATOM     19  N   UNL     1       3.789   1.641  17.759  0.00  0.00    +0.000 N 
ATOM     20  N   UNL     1       4.857   2.421  17.557  0.00  0.00    +0.000 NA
ATOM     21  C   UNL     1       4.431   3.666  17.835  0.00  0.00    +0.000 A 
ATOM     22  H   UNL     1       3.883   0.647  17.570  0.00  0.00    +0.000 HD
BRANCH  21  23
ATOM     23  C   UNL     1       5.354   4.807  17.760  0.00  0.00    +0.000 A 
ATOM     24  C   UNL     1       6.368   4.964  18.717  0.00  0.00    +0.000 A 
ATOM     25  C   UNL     1       7.242   6.057  18.656  0.00  0.00    +0.000 A 
ATOM     26  C   UNL     1       7.110   6.997  17.638  0.00  0.00    +0.000 A 
ATOM     27 CL   UNL     1       8.174   8.348  17.570  0.00  0.00    +0.000 Cl
ATOM     28  C   UNL     1       6.113   6.856  16.678  0.00  0.00    +0.000 A 
ATOM     29  C   UNL     1       5.232   5.772  16.748  0.00  0.00    +0.000 A 
ENDBRANCH  21  23
ENDBRANCH   2  17
TORSDOF 3
ENDMDL
MODEL 8
REMARK VINA RESULT:      -8.6      1.613      2.307
REMARK  Name = 
REMARK  4 active torsions:
REMARK  status: ('A' for Active; 'I' for Inactive)
REMARK    1  A    between atoms: C_1  and  C_2
REMARK    2  A    between atoms: C_9  and  N_10
REMARK    3  A    between atoms: C_11  and  C_13
REMARK    4  A    between atoms: C_17  and  C_18
REMARK                            x       y       z     vdW  Elec       q    Type
REMARK                         _______ _______ _______ _____ _____    ______ ____
ROOT
ATOM      1  N   UNL     1       1.977   6.342  20.902  0.00  0.00    +0.000 N 
ATOM      2  C   UNL     1       1.983   5.278  20.017  0.00  0.00    +0.000 C 
ATOM      3  O   UNL     1       1.513   5.305  18.886  0.00  0.00    +0.000 OA
ATOM      4  H   UNL     1       2.516   6.242  21.753  0.00  0.00    +0.000 HD
ENDROOT
BRANCH   1  13
ATOM      5  C   UNL     1      -1.587  12.146  21.619  0.00  0.00    +0.000 C 
ATOM      6  C   UNL     1      -0.832  12.444  20.357  0.00  0.00    +0.000 C 
ATOM      7  O   UNL     1      -0.977  13.545  19.815  0.00  0.00    +0.000 OA
ATOM      8  N   UNL     1       0.019  11.495  19.838  0.00  0.00    +0.000 N 
ATOM      9  C   UNL     1       0.852  11.851  18.676  0.00  0.00    +0.000 C 
ATOM     10  C   UNL     1       1.631  10.606  18.262  0.00  0.00    +0.000 C 
ATOM     11  C   UNL     1       1.313   9.673  19.384  0.00  0.00    +0.000 A 
ATOM     12  C   UNL     1       1.857   8.409  19.560  0.00  0.00    +0.000 A 
ATOM     13  C   UNL     1       1.431   7.618  20.628  0.00  0.00    +0.000 A 
ATOM     14  C   UNL     1       0.421   8.113  21.472  0.00  0.00    +0.000 A 
ATOM     15  C   UNL     1      -0.115   9.404  21.288  0.00  0.00    +0.000 A 
ATOM     16  C   UNL     1       0.348  10.189  20.245  0.00  0.00    +0.000 A 
ENDBRANCH   1  13
BRANCH   2  17
ATOM     17  C   UNL     1       2.651   4.076  20.488  0.00  0.00    +0.000 A 
ATOM     18  C   UNL     1       2.324   3.289  21.576  0.00  0.00    +0.000 A 
ATOM     19  N   UNL     1       3.136   2.197  21.504  0.00  0.00    +0.000 N 
ATOM     20  N   UNL     1       4.016   2.243  20.498  0.00  0.00    +0.000 NA
ATOM     21  C   UNL     1       3.750   3.398  19.861  0.00  0.00    +0.000 A 
ATOM     22  H   UNL     1       3.139   1.376  22.102  0.00  0.00    +0.000 HD
BRANCH  21  23
ATOM     23  C   UNL     1       4.553   3.817  18.705  0.00  0.00    +0.000 A 
ATOM     24  C   UNL     1       5.733   4.553  18.888  0.00  0.00    +0.000 A 
ATOM     25  C   UNL     1       6.495   4.965  17.788  0.00  0.00    +0.000 A 
ATOM     26  C   UNL     1       6.084   4.642  16.497  0.00  0.00    +0.000 A 
ATOM     27 CL   UNL     1       7.012   5.159  15.144  0.00  0.00    +0.000 Cl
ATOM     28  C   UNL     1       4.918   3.910  16.295  0.00  0.00    +0.000 A 
ATOM     29  C   UNL     1       4.151   3.512  17.394  0.00  0.00    +0.000 A 
ENDBRANCH  21  23
ENDBRANCH   2  17
TORSDOF 3
ENDMDL
MODEL 9
REMARK VINA RESULT:      -8.6      1.609      2.048
REMARK  Name = 
REMARK  4 active torsions:
REMARK  status: ('A' for Active; 'I' for Inactive)
REMARK    1  A    between atoms: C_1  and  C_2
REMARK    2  A    between atoms: C_9  and  N_10
REMARK    3  A    between atoms: C_11  and  C_13
REMARK    4  A    between atoms: C_17  and  C_18
REMARK                            x       y       z     vdW  Elec       q    Type
REMARK                         _______ _______ _______ _____ _____    ______ ____
ROOT
ATOM      1  N   UNL     1       1.649   6.670  21.150  0.00  0.00    +0.000 N 
ATOM      2  C   UNL     1       2.128   5.889  20.114  0.00  0.00    +0.000 C 
ATOM      3  O   UNL     1       2.227   6.254  18.949  0.00  0.00    +0.000 OA
ATOM      4  H   UNL     1       1.743   6.306  22.090  0.00  0.00    +0.000 HD
ENDROOT
BRANCH   1  13
ATOM      5  C   UNL     1       0.228  12.772  18.385  0.00  0.00    +0.000 C 
ATOM      6  C   UNL     1      -0.390  12.938  19.743  0.00  0.00    +0.000 C 
ATOM      7  O   UNL     1      -0.975  13.993  20.013  0.00  0.00    +0.000 OA
ATOM      8  N   UNL     1      -0.311  11.908  20.652  0.00  0.00    +0.000 N 
ATOM      9  C   UNL     1      -1.036  12.033  21.928  0.00  0.00    +0.000 C 
ATOM     10  C   UNL     1      -0.714  10.801  22.769  0.00  0.00    +0.000 C 
ATOM     11  C   UNL     1       0.032   9.960  21.786  0.00  0.00    +0.000 A 
ATOM     12  C   UNL     1       0.475   8.664  22.007  0.00  0.00    +0.000 A 
ATOM     13  C   UNL     1       1.209   8.009  21.018  0.00  0.00    +0.000 A 
ATOM     14  C   UNL     1       1.519   8.705  19.837  0.00  0.00    +0.000 A 
ATOM     15  C   UNL     1       1.053  10.018  19.621  0.00  0.00    +0.000 A 
ATOM     16  C   UNL     1       0.293  10.638  20.599  0.00  0.00    +0.000 A 
ENDBRANCH   1  13
BRANCH   2  17
ATOM     17  C   UNL     1       2.580   4.559  20.490  0.00  0.00    +0.000 A 
ATOM     18  C   UNL     1       2.128   3.766  21.527  0.00  0.00    +0.000 A 
ATOM     19  N   UNL     1       2.739   2.558  21.366  0.00  0.00    +0.000 N 
ATOM     20  N   UNL     1       3.608   2.523  20.350  0.00  0.00    +0.000 NA
ATOM     21  C   UNL     1       3.542   3.748  19.799  0.00  0.00    +0.000 A 
ATOM     22  H   UNL     1       2.603   1.708  21.906  0.00  0.00    +0.000 HD
BRANCH  21  23
ATOM     23  C   UNL     1       4.399   4.104  18.660  0.00  0.00    +0.000 A 
ATOM     24  C   UNL     1       4.036   3.737  17.355  0.00  0.00    +0.000 A 
ATOM     25  C   UNL     1       4.856   4.063  16.268  0.00  0.00    +0.000 A 
ATOM     26  C   UNL     1       6.043   4.760  16.477  0.00  0.00    +0.000 A 
ATOM     27 CL   UNL     1       7.059   5.150  15.144  0.00  0.00    +0.000 Cl
ATOM     28  C   UNL     1       6.419   5.135  17.763  0.00  0.00    +0.000 A 
ATOM     29  C   UNL     1       5.606   4.797  18.849  0.00  0.00    +0.000 A 
ENDBRANCH  21  23
ENDBRANCH   2  17
TORSDOF 3
ENDMDL
