MODEL 1
REMARK VINA RESULT:      -8.5      0.000      0.000
REMARK  Name = 
REMARK  4 active torsions:
REMARK  status: ('A' for Active; 'I' for Inactive)
REMARK    1  A    between atoms: C_5  and  C_6
REMARK    2  A    between atoms: C_6  and  N_7
REMARK    3  A    between atoms: C_16  and  C_17
REMARK    4  A    between atoms: N_23  and  C_24
REMARK                            x       y       z     vdW  Elec       q    Type
REMARK                         _______ _______ _______ _____ _____    ______ ____
ROOT
ATOM      1  O   UNL     1       2.474   8.742  17.307  0.00  0.00    +0.000 OA
ATOM      2  C   UNL     1       2.033   8.560  18.430  0.00  0.00    +0.000 C 
ATOM      3  C   UNL     1       1.341   9.620  19.149  0.00  0.00    +0.000 A 
ATOM      4  C   UNL     1       1.054  10.886  18.683  0.00  0.00    +0.000 A 
ATOM      5  C   UNL     1       0.363  11.749  19.531  0.00  0.00    +0.000 A 
ATOM      6  C   UNL     1       0.001  11.308  20.828  0.00  0.00    +0.000 A 
ATOM      7  C   UNL     1       0.311  10.009  21.287  0.00  0.00    +0.000 A 
ATOM      8  C   UNL     1       0.983   9.162  20.411  0.00  0.00    +0.000 A 
ATOM      9  C   UNL     1       1.436   7.738  20.557  0.00  0.00    +0.000 C 
ATOM     10  N   UNL     1       2.061   7.447  19.267  0.00  0.00    +0.000 N 
ENDROOT
BRANCH  10  11
ATOM     11  C   UNL     1       2.625   6.187  18.928  0.00  0.00    +0.000 A 
ATOM     12  C   UNL     1       1.938   5.288  18.094  0.00  0.00    +0.000 A 
ATOM     13  C   UNL     1       2.488   4.054  17.729  0.00  0.00    +0.000 A 
ATOM     14  C   UNL     1       3.745   3.698  18.192  0.00  0.00    +0.000 A 
ATOM     15  C   UNL     1       4.428   4.574  19.026  0.00  0.00    +0.000 A 
ATOM     16  F   UNL     1       5.646   4.235  19.471  0.00  0.00    +0.000 F 
ATOM     17  C   UNL     1       3.882   5.801  19.404  0.00  0.00    +0.000 A 
ENDBRANCH  10  11
BRANCH   7  18
ATOM     18  C   UNL     1      -0.081   9.564  22.671  0.00  0.00    +0.000 C 
ATOM     19  F   UNL     1      -0.726  10.518  23.398  0.00  0.00    +0.000 F 
ATOM     20  F   UNL     1      -0.911   8.486  22.647  0.00  0.00    +0.000 F 
ATOM     21  F   UNL     1       0.995   9.187  23.415  0.00  0.00    +0.000 F 
ENDBRANCH   7  18
BRANCH   5  22
ATOM     22  C   UNL     1      -0.020  13.125  19.036  0.00  0.00    +0.000 C 
BRANCH  22  23
ATOM     23  N   UNL     1       1.127  14.034  18.831  0.00  0.00    +0.000 NA
ATOM     24  C   UNL     1       0.660  15.427  18.726  0.00  0.00    +0.000 C 
ATOM     25  C   UNL     1       1.684  16.545  18.846  0.00  0.00    +0.000 C 
ATOM     26  C   UNL     1       2.717  16.537  17.758  0.00  0.00    +0.000 C 
ATOM     27  N   UNL     1       3.679  15.718  17.543  0.00  0.00    +0.000 NA
ATOM     28  C   UNL     1       4.007  14.504  18.281  0.00  0.00    +0.000 C 
ATOM     29  C   UNL     1       3.518  14.400  19.716  0.00  0.00    +0.000 C 
ATOM     30  C   UNL     1       2.124  13.775  19.877  0.00  0.00    +0.000 C 
ENDBRANCH  22  23
ENDBRANCH   5  22
TORSDOF 4
ENDMDL
MODEL 2
REMARK VINA RESULT:      -8.5      0.830      1.391
REMARK  Name = 
REMARK  4 active torsions:
REMARK  status: ('A' for Active; 'I' for Inactive)
REMARK    1  A    between atoms: C_5  and  C_6
REMARK    2  A    between atoms: C_6  and  N_7
REMARK    3  A    between atoms: C_16  and  C_17
REMARK    4  A    between atoms: N_23  and  C_24
REMARK                            x       y       z     vdW  Elec       q    Type
REMARK                         _______ _______ _______ _____ _____    ______ ____
ROOT
ATOM      1  O   UNL     1       2.610   8.627  17.251  0.00  0.00    +0.000 OA
ATOM      2  C   UNL     1       2.151   8.451  18.367  0.00  0.00    +0.000 C 
ATOM      3  C   UNL     1       1.413   9.503  19.052  0.00  0.00    +0.000 A 
ATOM      4  C   UNL     1       1.100  10.752  18.558  0.00  0.00    +0.000 A 
ATOM      5  C   UNL     1       0.366  11.608  19.376  0.00  0.00    +0.000 A 
ATOM      6  C   UNL     1      -0.012  11.178  20.673  0.00  0.00    +0.000 A 
ATOM      7  C   UNL     1       0.326   9.898  21.161  0.00  0.00    +0.000 A 
ATOM      8  C   UNL     1       1.041   9.055  20.315  0.00  0.00    +0.000 A 
ATOM      9  C   UNL     1       1.532   7.648  20.495  0.00  0.00    +0.000 C 
ATOM     10  N   UNL     1       2.192   7.353  19.224  0.00  0.00    +0.000 N 
ENDROOT
BRANCH  10  11
ATOM     11  C   UNL     1       2.800   6.106  18.919  0.00  0.00    +0.000 A 
ATOM     12  C   UNL     1       4.027   5.738  19.498  0.00  0.00    +0.000 A 
ATOM     13  C   UNL     1       4.628   4.503  19.230  0.00  0.00    +0.000 A 
ATOM     14  C   UNL     1       4.006   3.608  18.373  0.00  0.00    +0.000 A 
ATOM     15  C   UNL     1       2.799   3.965  17.786  0.00  0.00    +0.000 A 
ATOM     16  F   UNL     1       2.193   3.100  16.962  0.00  0.00    +0.000 F 
ATOM     17  C   UNL     1       2.198   5.199  18.040  0.00  0.00    +0.000 A 
ENDBRANCH  10  11
BRANCH   7  18
ATOM     18  C   UNL     1      -0.084   9.465  22.544  0.00  0.00    +0.000 C 
ATOM     19  F   UNL     1      -0.884   8.364  22.566  0.00  0.00    +0.000 F 
ATOM     20  F   UNL     1       0.989   9.164  23.327  0.00  0.00    +0.000 F 
ATOM     21  F   UNL     1      -0.765  10.439  23.208  0.00  0.00    +0.000 F 
ENDBRANCH   7  18
BRANCH   5  22
ATOM     22  C   UNL     1      -0.046  12.964  18.850  0.00  0.00    +0.000 C 
BRANCH  22  23
ATOM     23  N   UNL     1       1.066  13.931  18.736  0.00  0.00    +0.000 NA
ATOM     24  C   UNL     1       0.543  15.308  18.716  0.00  0.00    +0.000 C 
ATOM     25  C   UNL     1       1.516  16.455  18.938  0.00  0.00    +0.000 C 
ATOM     26  C   UNL     1       2.573  16.566  17.878  0.00  0.00    +0.000 C 
ATOM     27  N   UNL     1       3.573  15.804  17.632  0.00  0.00    +0.000 NA
ATOM     28  C   UNL     1       3.935  14.555  18.292  0.00  0.00    +0.000 C 
ATOM     29  C   UNL     1       3.420  14.331  19.704  0.00  0.00    +0.000 C 
ATOM     30  C   UNL     1       2.050  13.640  19.787  0.00  0.00    +0.000 C 
ENDBRANCH  22  23
ENDBRANCH   5  22
TORSDOF 4
ENDMDL
MODEL 3
REMARK VINA RESULT:      -8.4      1.230      1.921
REMARK  Name = 
REMARK  4 active torsions:
REMARK  status: ('A' for Active; 'I' for Inactive)
REMARK    1  A    between atoms: C_5  and  C_6
REMARK    2  A    between atoms: C_6  and  N_7
REMARK    3  A    between atoms: C_16  and  C_17
REMARK    4  A    between atoms: N_23  and  C_24
REMARK                            x       y       z     vdW  Elec       q    Type
REMARK                         _______ _______ _______ _____ _____    ______ ____
ROOT
ATOM      1  O   UNL     1       2.556   8.539  17.160  0.00  0.00    +0.000 OA
ATOM      2  C   UNL     1       2.125   8.394  18.291  0.00  0.00    +0.000 C 
ATOM      3  C   UNL     1       1.379   9.454  18.956  0.00  0.00    +0.000 A 
ATOM      4  C   UNL     1       1.030  10.678  18.425  0.00  0.00    +0.000 A 
ATOM      5  C   UNL     1       0.296  11.548  19.228  0.00  0.00    +0.000 A 
ATOM      6  C   UNL     1      -0.045  11.157  20.547  0.00  0.00    +0.000 A 
ATOM      7  C   UNL     1       0.330   9.902  21.072  0.00  0.00    +0.000 A 
ATOM      8  C   UNL     1       1.044   9.045  20.241  0.00  0.00    +0.000 A 
ATOM      9  C   UNL     1       1.568   7.655  20.460  0.00  0.00    +0.000 C 
ATOM     10  N   UNL     1       2.207   7.328  19.185  0.00  0.00    +0.000 N 
ENDROOT
BRANCH  10  11
ATOM     11  C   UNL     1       2.834   6.083  18.911  0.00  0.00    +0.000 A 
ATOM     12  C   UNL     1       4.068   5.749  19.497  0.00  0.00    +0.000 A 
ATOM     13  C   UNL     1       4.688   4.518  19.259  0.00  0.00    +0.000 A 
ATOM     14  C   UNL     1       4.078   3.591  18.428  0.00  0.00    +0.000 A 
ATOM     15  C   UNL     1       2.865   3.914  17.834  0.00  0.00    +0.000 A 
ATOM     16  F   UNL     1       2.271   3.018  17.034  0.00  0.00    +0.000 F 
ATOM     17  C   UNL     1       2.245   5.144  18.058  0.00  0.00    +0.000 A 
ENDBRANCH  10  11
BRANCH   7  18
ATOM     18  C   UNL     1      -0.041   9.511  22.479  0.00  0.00    +0.000 C 
ATOM     19  F   UNL     1      -0.715  10.475  23.163  0.00  0.00    +0.000 F 
ATOM     20  F   UNL     1      -0.833   8.404  22.511  0.00  0.00    +0.000 F 
ATOM     21  F   UNL     1       1.051   9.207  23.233  0.00  0.00    +0.000 F 
ENDBRANCH   7  18
BRANCH   5  22
ATOM     22  C   UNL     1      -0.155  12.875  18.663  0.00  0.00    +0.000 C 
BRANCH  22  23
ATOM     23  N   UNL     1       0.641  14.031  19.127  0.00  0.00    +0.000 NA
ATOM     24  C   UNL     1       1.946  14.058  18.445  0.00  0.00    +0.000 C 
ATOM     25  C   UNL     1       2.777  15.329  18.521  0.00  0.00    +0.000 C 
ATOM     26  C   UNL     1       3.207  15.687  19.913  0.00  0.00    +0.000 C 
ATOM     27  N   UNL     1       2.515  16.115  20.903  0.00  0.00    +0.000 NA
ATOM     28  C   UNL     1       1.073  16.320  20.969  0.00  0.00    +0.000 C 
ATOM     29  C   UNL     1       0.332  16.533  19.660  0.00  0.00    +0.000 C 
ATOM     30  C   UNL     1      -0.173  15.246  18.990  0.00  0.00    +0.000 C 
ENDBRANCH  22  23
ENDBRANCH   5  22
TORSDOF 4
ENDMDL
MODEL 4
REMARK VINA RESULT:      -8.3      1.300      1.998
REMARK  Name = 
REMARK  4 active torsions:
REMARK  status: ('A' for Active; 'I' for Inactive)
REMARK    1  A    between atoms: C_5  and  C_6
REMARK    2  A    between atoms: C_6  and  N_7
REMARK    3  A    between atoms: C_16  and  C_17
REMARK    4  A    between atoms: N_23  and  C_24
REMARK                            x       y       z     vdW  Elec       q    Type
REMARK                         _______ _______ _______ _____ _____    ______ ____
ROOT
ATOM      1  O   UNL     1       2.704   8.044  17.555  0.00  0.00    +0.000 OA
ATOM      2  C   UNL     1       2.209   8.020  18.668  0.00  0.00    +0.000 C 
ATOM      3  C   UNL     1       1.493   9.172  19.200  0.00  0.00    +0.000 A 
ATOM      4  C   UNL     1       1.241  10.362  18.551  0.00  0.00    +0.000 A 
ATOM      5  C   UNL     1       0.519  11.336  19.237  0.00  0.00    +0.000 A 
ATOM      6  C   UNL     1       0.090  11.079  20.563  0.00  0.00    +0.000 A 
ATOM      7  C   UNL     1       0.365   9.855  21.211  0.00  0.00    +0.000 A 
ATOM      8  C   UNL     1       1.070   8.893  20.494  0.00  0.00    +0.000 A 
ATOM      9  C   UNL     1       1.502   7.501  20.857  0.00  0.00    +0.000 C 
ATOM     10  N   UNL     1       2.185   7.033  19.651  0.00  0.00    +0.000 N 
ENDROOT
BRANCH  10  11
ATOM     11  C   UNL     1       2.752   5.737  19.517  0.00  0.00    +0.000 A 
ATOM     12  C   UNL     1       4.142   5.565  19.393  0.00  0.00    +0.000 A 
ATOM     13  C   UNL     1       4.721   4.296  19.285  0.00  0.00    +0.000 A 
ATOM     14  C   UNL     1       3.914   3.169  19.302  0.00  0.00    +0.000 A 
ATOM     15  C   UNL     1       2.539   3.327  19.412  0.00  0.00    +0.000 A 
ATOM     16  F   UNL     1       1.757   2.239  19.433  0.00  0.00    +0.000 F 
ATOM     17  C   UNL     1       1.952   4.590  19.509  0.00  0.00    +0.000 A 
ENDBRANCH  10  11
BRANCH   7  18
ATOM     18  C   UNL     1      -0.098   9.606  22.623  0.00  0.00    +0.000 C 
ATOM     19  F   UNL     1       0.910   9.339  23.498  0.00  0.00    +0.000 F 
ATOM     20  F   UNL     1      -0.769  10.673  23.138  0.00  0.00    +0.000 F 
ATOM     21  F   UNL     1      -0.957   8.554  22.704  0.00  0.00    +0.000 F 
ENDBRANCH   7  18
BRANCH   5  22
ATOM     22  C   UNL     1       0.173  12.631  18.540  0.00  0.00    +0.000 C 
BRANCH  22  23
ATOM     23  N   UNL     1       1.014  13.778  18.943  0.00  0.00    +0.000 NA
ATOM     24  C   UNL     1       2.270  13.785  18.172  0.00  0.00    +0.000 C 
ATOM     25  C   UNL     1       3.121  15.045  18.186  0.00  0.00    +0.000 C 
ATOM     26  C   UNL     1       3.651  15.401  19.544  0.00  0.00    +0.000 C 
ATOM     27  N   UNL     1       3.035  15.840  20.578  0.00  0.00    +0.000 NA
ATOM     28  C   UNL     1       1.604  16.065  20.743  0.00  0.00    +0.000 C 
ATOM     29  C   UNL     1       0.777  16.284  19.488  0.00  0.00    +0.000 C 
ATOM     30  C   UNL     1       0.209  15.003  18.859  0.00  0.00    +0.000 C 
ENDBRANCH  22  23
ENDBRANCH   5  22
TORSDOF 4
ENDMDL
MODEL 5
REMARK VINA RESULT:      -8.3      0.897      1.600
REMARK  Name = 
REMARK  4 active torsions:
REMARK  status: ('A' for Active; 'I' for Inactive)
REMARK    1  A    between atoms: C_5  and  C_6
REMARK    2  A    between atoms: C_6  and  N_7
REMARK    3  A    between atoms: C_16  and  C_17
REMARK    4  A    between atoms: N_23  and  C_24
REMARK                            x       y       z     vdW  Elec       q    Type
REMARK                         _______ _______ _______ _____ _____    ______ ____
ROOT
ATOM      1  O   UNL     1       2.590   8.478  17.182  0.00  0.00    +0.000 OA
ATOM      2  C   UNL     1       2.140   8.358  18.308  0.00  0.00    +0.000 C 
ATOM      3  C   UNL     1       1.433   9.452  18.959  0.00  0.00    +0.000 A 
ATOM      4  C   UNL     1       1.142  10.687  18.418  0.00  0.00    +0.000 A 
ATOM      5  C   UNL     1       0.436  11.592  19.208  0.00  0.00    +0.000 A 
ATOM      6  C   UNL     1       0.064  11.223  20.525  0.00  0.00    +0.000 A 
ATOM      7  C   UNL     1       0.379   9.955  21.061  0.00  0.00    +0.000 A 
ATOM      8  C   UNL     1       1.066   9.064  20.242  0.00  0.00    +0.000 A 
ATOM      9  C   UNL     1       1.528   7.655  20.474  0.00  0.00    +0.000 C 
ATOM     10  N   UNL     1       2.167   7.295  19.209  0.00  0.00    +0.000 N 
ENDROOT
BRANCH  10  11
ATOM     11  C   UNL     1       2.744   6.023  18.948  0.00  0.00    +0.000 A 
ATOM     12  C   UNL     1       2.016   5.021  18.282  0.00  0.00    +0.000 A 
ATOM     13  C   UNL     1       2.575   3.771  17.994  0.00  0.00    +0.000 A 
ATOM     14  C   UNL     1       3.883   3.501  18.367  0.00  0.00    +0.000 A 
ATOM     15  C   UNL     1       4.608   4.479  19.036  0.00  0.00    +0.000 A 
ATOM     16  F   UNL     1       5.874   4.223  19.393  0.00  0.00    +0.000 F 
ATOM     17  C   UNL     1       4.054   5.724  19.336  0.00  0.00    +0.000 A 
ENDBRANCH  10  11
BRANCH   7  18
ATOM     18  C   UNL     1      -0.024   9.588  22.465  0.00  0.00    +0.000 C 
ATOM     19  F   UNL     1      -0.888   8.538  22.536  0.00  0.00    +0.000 F 
ATOM     20  F   UNL     1       1.047   9.245  23.233  0.00  0.00    +0.000 F 
ATOM     21  F   UNL     1      -0.630  10.620  23.113  0.00  0.00    +0.000 F 
ENDBRANCH   7  18
BRANCH   5  22
ATOM     22  C   UNL     1       0.047  12.934  18.632  0.00  0.00    +0.000 C 
BRANCH  22  23
ATOM     23  N   UNL     1       0.912  14.051  19.066  0.00  0.00    +0.000 NA
ATOM     24  C   UNL     1       2.196  14.012  18.344  0.00  0.00    +0.000 C 
ATOM     25  C   UNL     1       3.090  15.241  18.390  0.00  0.00    +0.000 C 
ATOM     26  C   UNL     1       3.579  15.582  19.766  0.00  0.00    +0.000 C 
ATOM     27  N   UNL     1       2.940  16.046  20.775  0.00  0.00    +0.000 NA
ATOM     28  C   UNL     1       1.512  16.321  20.884  0.00  0.00    +0.000 C 
ATOM     29  C   UNL     1       0.742  16.566  19.598  0.00  0.00    +0.000 C 
ATOM     30  C   UNL     1       0.155  15.303  18.949  0.00  0.00    +0.000 C 
ENDBRANCH  22  23
ENDBRANCH   5  22
TORSDOF 4
ENDMDL
MODEL 6
REMARK VINA RESULT:      -8.2      1.082      1.621
REMARK  Name = 
REMARK  4 active torsions:
REMARK  status: ('A' for Active; 'I' for Inactive)
REMARK    1  A    between atoms: C_5  and  C_6
REMARK    2  A    between atoms: C_6  and  N_7
REMARK    3  A    between atoms: C_16  and  C_17
REMARK    4  A    between atoms: N_23  and  C_24
REMARK                            x       y       z     vdW  Elec       q    Type
REMARK                         _______ _______ _______ _____ _____    ______ ____
ROOT
ATOM      1  O   UNL     1       2.579   8.472  17.132  0.00  0.00    +0.000 OA
ATOM      2  C   UNL     1       2.158   8.353  18.270  0.00  0.00    +0.000 C 
ATOM      3  C   UNL     1       1.447   9.441  18.928  0.00  0.00    +0.000 A 
ATOM      4  C   UNL     1       1.121  10.665  18.384  0.00  0.00    +0.000 A 
ATOM      5  C   UNL     1       0.418  11.564  19.184  0.00  0.00    +0.000 A 
ATOM      6  C   UNL     1       0.085  11.200  20.512  0.00  0.00    +0.000 A 
ATOM      7  C   UNL     1       0.435   9.943  21.051  0.00  0.00    +0.000 A 
ATOM      8  C   UNL     1       1.118   9.058  20.223  0.00  0.00    +0.000 A 
ATOM      9  C   UNL     1       1.611   7.659  20.455  0.00  0.00    +0.000 C 
ATOM     10  N   UNL     1       2.226   7.299  19.178  0.00  0.00    +0.000 N 
ENDROOT
BRANCH  10  11
ATOM     11  C   UNL     1       2.819   6.035  18.914  0.00  0.00    +0.000 A 
ATOM     12  C   UNL     1       4.026   5.659  19.530  0.00  0.00    +0.000 A 
ATOM     13  C   UNL     1       4.612   4.410  19.302  0.00  0.00    +0.000 A 
ATOM     14  C   UNL     1       3.995   3.506  18.450  0.00  0.00    +0.000 A 
ATOM     15  C   UNL     1       2.809   3.871  17.827  0.00  0.00    +0.000 A 
ATOM     16  F   UNL     1       2.208   2.998  17.007  0.00  0.00    +0.000 F 
ATOM     17  C   UNL     1       2.223   5.120  18.041  0.00  0.00    +0.000 A 
ENDBRANCH  10  11
BRANCH   7  18
ATOM     18  C   UNL     1       0.073   9.581  22.467  0.00  0.00    +0.000 C 
ATOM     19  F   UNL     1       1.134   9.206  23.232  0.00  0.00    +0.000 F 
ATOM     20  F   UNL     1      -0.518  10.615  23.126  0.00  0.00    +0.000 F 
ATOM     21  F   UNL     1      -0.815   8.550  22.523  0.00  0.00    +0.000 F 
ENDBRANCH   7  18
BRANCH   5  22
ATOM     22  C   UNL     1      -0.009  12.894  18.606  0.00  0.00    +0.000 C 
BRANCH  22  23
ATOM     23  N   UNL     1       0.982  13.976  18.785  0.00  0.00    +0.000 NA
ATOM     24  C   UNL     1       0.764  14.658  20.073  0.00  0.00    +0.000 C 
ATOM     25  C   UNL     1       1.860  15.568  20.604  0.00  0.00    +0.000 C 
ATOM     26  C   UNL     1       2.137  16.755  19.729  0.00  0.00    +0.000 C 
ATOM     27  N   UNL     1       2.689  16.813  18.574  0.00  0.00    +0.000 NA
ATOM     28  C   UNL     1       3.158  15.709  17.745  0.00  0.00    +0.000 C 
ATOM     29  C   UNL     1       3.499  14.403  18.441  0.00  0.00    +0.000 C 
ATOM     30  C   UNL     1       2.326  13.421  18.579  0.00  0.00    +0.000 C 
ENDBRANCH  22  23
ENDBRANCH   5  22
TORSDOF 4
ENDMDL
MODEL 7
REMARK VINA RESULT:      -8.2      4.229      6.705
REMARK  Name = 
REMARK  4 active torsions:
REMARK  status: ('A' for Active; 'I' for Inactive)
REMARK    1  A    between atoms: C_5  and  C_6
REMARK    2  A    between atoms: C_6  and  N_7
REMARK    3  A    between atoms: C_16  and  C_17
REMARK    4  A    between atoms: N_23  and  C_24
REMARK                            x       y       z     vdW  Elec       q    Type
REMARK                         _______ _______ _______ _____ _____    ______ ____
ROOT
ATOM      1  O   UNL     1       5.361   6.974  16.222  0.00  0.00    +0.000 OA
ATOM      2  C   UNL     1       4.916   5.856  16.419  0.00  0.00    +0.000 C 
ATOM      3  C   UNL     1       4.052   5.579  17.558  0.00  0.00    +0.000 A 
ATOM      4  C   UNL     1       3.598   6.485  18.493  0.00  0.00    +0.000 A 
ATOM      5  C   UNL     1       2.761   6.013  19.502  0.00  0.00    +0.000 A 
ATOM      6  C   UNL     1       2.425   4.637  19.540  0.00  0.00    +0.000 A 
ATOM      7  C   UNL     1       2.908   3.725  18.577  0.00  0.00    +0.000 A 
ATOM      8  C   UNL     1       3.725   4.228  17.569  0.00  0.00    +0.000 A 
ATOM      9  C   UNL     1       4.376   3.561  16.392  0.00  0.00    +0.000 C 
ATOM     10  N   UNL     1       5.079   4.658  15.727  0.00  0.00    +0.000 N 
ENDROOT
BRANCH  10  11
ATOM     11  C   UNL     1       5.832   4.505  14.532  0.00  0.00    +0.000 A 
ATOM     12  C   UNL     1       5.381   3.671  13.494  0.00  0.00    +0.000 A 
ATOM     13  C   UNL     1       6.096   3.527  12.300  0.00  0.00    +0.000 A 
ATOM     14  C   UNL     1       7.282   4.223  12.121  0.00  0.00    +0.000 A 
ATOM     15  C   UNL     1       7.743   5.041  13.144  0.00  0.00    +0.000 A 
ATOM     16  F   UNL     1       8.886   5.719  12.972  0.00  0.00    +0.000 F 
ATOM     17  C   UNL     1       7.041   5.182  14.342  0.00  0.00    +0.000 A 
ENDBRANCH  10  11
BRANCH   7  18
ATOM     18  C   UNL     1       2.540   2.266  18.641  0.00  0.00    +0.000 C 
ATOM     19  F   UNL     1       1.665   1.958  19.637  0.00  0.00    +0.000 F 
ATOM     20  F   UNL     1       1.962   1.831  17.487  0.00  0.00    +0.000 F 
ATOM     21  F   UNL     1       3.627   1.469  18.834  0.00  0.00    +0.000 F 
ENDBRANCH   7  18
BRANCH   5  22
ATOM     22  C   UNL     1       2.196   6.985  20.512  0.00  0.00    +0.000 C 
BRANCH  22  23
ATOM     23  N   UNL     1       1.449   8.112  19.914  0.00  0.00    +0.000 NA
ATOM     24  C   UNL     1       1.073   9.084  20.955  0.00  0.00    +0.000 C 
ATOM     25  C   UNL     1       0.598  10.462  20.521  0.00  0.00    +0.000 C 
ATOM     26  C   UNL     1      -0.669  10.440  19.719  0.00  0.00    +0.000 C 
ATOM     27  N   UNL     1      -0.881  10.025  18.526  0.00  0.00    +0.000 NA
ATOM     28  C   UNL     1       0.064   9.387  17.616  0.00  0.00    +0.000 C 
ATOM     29  C   UNL     1       1.544   9.645  17.845  0.00  0.00    +0.000 C 
ATOM     30  C   UNL     1       2.232   8.651  18.794  0.00  0.00    +0.000 C 
ENDBRANCH  22  23
ENDBRANCH   5  22
TORSDOF 4
ENDMDL
MODEL 8
REMARK VINA RESULT:      -8.2      1.169      1.603
REMARK  Name = 
REMARK  4 active torsions:
REMARK  status: ('A' for Active; 'I' for Inactive)
REMARK    1  A    between atoms: C_5  and  C_6
REMARK    2  A    between atoms: C_6  and  N_7
REMARK    3  A    between atoms: C_16  and  C_17
REMARK    4  A    between atoms: N_23  and  C_24
REMARK                            x       y       z     vdW  Elec       q    Type
REMARK                         _______ _______ _______ _____ _____    ______ ____
ROOT
ATOM      1  O   UNL     1       2.700   7.868  17.805  0.00  0.00    +0.000 OA
ATOM      2  C   UNL     1       2.170   7.899  18.902  0.00  0.00    +0.000 C 
ATOM      3  C   UNL     1       1.471   9.090  19.368  0.00  0.00    +0.000 A 
ATOM      4  C   UNL     1       1.276  10.262  18.668  0.00  0.00    +0.000 A 
ATOM      5  C   UNL     1       0.561  11.280  19.295  0.00  0.00    +0.000 A 
ATOM      6  C   UNL     1       0.083  11.085  20.615  0.00  0.00    +0.000 A 
ATOM      7  C   UNL     1       0.302   9.879  21.316  0.00  0.00    +0.000 A 
ATOM      8  C   UNL     1       1.000   8.871  20.657  0.00  0.00    +0.000 A 
ATOM      9  C   UNL     1       1.379   7.482  21.084  0.00  0.00    +0.000 C 
ATOM     10  N   UNL     1       2.086   6.950  19.919  0.00  0.00    +0.000 N 
ENDROOT
BRANCH  10  11
ATOM     11  C   UNL     1       2.619   5.635  19.850  0.00  0.00    +0.000 A 
ATOM     12  C   UNL     1       1.837   4.518  20.194  0.00  0.00    +0.000 A 
ATOM     13  C   UNL     1       2.336   3.214  20.109  0.00  0.00    +0.000 A 
ATOM     14  C   UNL     1       3.635   3.003  19.671  0.00  0.00    +0.000 A 
ATOM     15  C   UNL     1       4.420   4.099  19.340  0.00  0.00    +0.000 A 
ATOM     16  F   UNL     1       5.674   3.897  18.912  0.00  0.00    +0.000 F 
ATOM     17  C   UNL     1       3.933   5.404  19.433  0.00  0.00    +0.000 A 
ENDBRANCH  10  11
BRANCH   7  18
ATOM     18  C   UNL     1      -0.212   9.696  22.719  0.00  0.00    +0.000 C 
ATOM     19  F   UNL     1      -0.930  10.753  23.188  0.00  0.00    +0.000 F 
ATOM     20  F   UNL     1      -1.026   8.611  22.830  0.00  0.00    +0.000 F 
ATOM     21  F   UNL     1       0.794   9.497  23.614  0.00  0.00    +0.000 F 
ENDBRANCH   7  18
BRANCH   5  22
ATOM     22  C   UNL     1       0.275  12.558  18.540  0.00  0.00    +0.000 C 
BRANCH  22  23
ATOM     23  N   UNL     1       1.122  13.700  18.945  0.00  0.00    +0.000 NA
ATOM     24  C   UNL     1       2.360  13.725  18.146  0.00  0.00    +0.000 C 
ATOM     25  C   UNL     1       3.207  14.988  18.164  0.00  0.00    +0.000 C 
ATOM     26  C   UNL     1       3.766  15.322  19.515  0.00  0.00    +0.000 C 
ATOM     27  N   UNL     1       3.171  15.742  20.570  0.00  0.00    +0.000 NA
ATOM     28  C   UNL     1       1.743  15.959  20.770  0.00  0.00    +0.000 C 
ATOM     29  C   UNL     1       0.888  16.197  19.537  0.00  0.00    +0.000 C 
ATOM     30  C   UNL     1       0.311  14.924  18.899  0.00  0.00    +0.000 C 
ENDBRANCH  22  23
ENDBRANCH   5  22
TORSDOF 4
ENDMDL
MODEL 9
REMARK VINA RESULT:      -8.2      1.478      2.291
REMARK  Name = 
REMARK  4 active torsions:
REMARK  status: ('A' for Active; 'I' for Inactive)
REMARK    1  A    between atoms: C_5  and  C_6
REMARK    2  A    between atoms: C_6  and  N_7
REMARK    3  A    between atoms: C_16  and  C_17
REMARK    4  A    between atoms: N_23  and  C_24
REMARK                            x       y       z     vdW  Elec       q    Type
REMARK                         _______ _______ _______ _____ _____    ______ ____
ROOT
ATOM      1  O   UNL     1       2.568   8.627  17.210  0.00  0.00    +0.000 OA
ATOM      2  C   UNL     1       2.122   8.455  18.331  0.00  0.00    +0.000 C 
ATOM      3  C   UNL     1       1.369   9.501  19.011  0.00  0.00    +0.000 A 
ATOM      4  C   UNL     1       1.028  10.737  18.506  0.00  0.00    +0.000 A 
ATOM      5  C   UNL     1       0.284  11.589  19.320  0.00  0.00    +0.000 A 
ATOM      6  C   UNL     1      -0.074  11.167  20.625  0.00  0.00    +0.000 A 
ATOM      7  C   UNL     1       0.293   9.899  21.125  0.00  0.00    +0.000 A 
ATOM      8  C   UNL     1       1.017   9.061  20.282  0.00  0.00    +0.000 A 
ATOM      9  C   UNL     1       1.537   7.666  20.474  0.00  0.00    +0.000 C 
ATOM     10  N   UNL     1       2.192   7.369  19.201  0.00  0.00    +0.000 N 
ENDROOT
BRANCH  10  11
ATOM     11  C   UNL     1       2.822   6.130  18.905  0.00  0.00    +0.000 A 
ATOM     12  C   UNL     1       4.049   5.783  19.496  0.00  0.00    +0.000 A 
ATOM     13  C   UNL     1       4.672   4.557  19.237  0.00  0.00    +0.000 A 
ATOM     14  C   UNL     1       4.071   3.649  18.378  0.00  0.00    +0.000 A 
ATOM     15  C   UNL     1       2.864   3.986  17.779  0.00  0.00    +0.000 A 
ATOM     16  F   UNL     1       2.279   3.109  16.952  0.00  0.00    +0.000 F 
ATOM     17  C   UNL     1       2.242   5.211  18.024  0.00  0.00    +0.000 A 
ENDBRANCH  10  11
BRANCH   7  18
ATOM     18  C   UNL     1      -0.096   9.474  22.516  0.00  0.00    +0.000 C 
ATOM     19  F   UNL     1      -0.883   8.364  22.557  0.00  0.00    +0.000 F 
ATOM     20  F   UNL     1       0.989   9.195  23.290  0.00  0.00    +0.000 F 
ATOM     21  F   UNL     1      -0.782  10.447  23.178  0.00  0.00    +0.000 F 
ENDBRANCH   7  18
BRANCH   5  22
ATOM     22  C   UNL     1      -0.159  12.929  18.781  0.00  0.00    +0.000 C 
BRANCH  22  23
ATOM     23  N   UNL     1       0.243  14.079  19.618  0.00  0.00    +0.000 NA
ATOM     24  C   UNL     1       1.214  14.920  18.896  0.00  0.00    +0.000 C 
ATOM     25  C   UNL     1       1.503  16.314  19.429  0.00  0.00    +0.000 C 
ATOM     26  C   UNL     1       2.122  16.322  20.796  0.00  0.00    +0.000 C 
ATOM     27  N   UNL     1       1.610  16.025  21.932  0.00  0.00    +0.000 NA
ATOM     28  C   UNL     1       0.268  15.527  22.211  0.00  0.00    +0.000 C 
ATOM     29  C   UNL     1      -0.817  15.823  21.190  0.00  0.00    +0.000 C 
ATOM     30  C   UNL     1      -0.968  14.766  20.085  0.00  0.00    +0.000 C 
ENDBRANCH  22  23
ENDBRANCH   5  22
TORSDOF 4
ENDMDL
