MODEL 1
REMARK VINA RESULT:      -8.9      0.000      0.000
REMARK  Name = 
REMARK  6 active torsions:
REMARK  status: ('A' for Active; 'I' for Inactive)
REMARK    1  A    between atoms: C_4  and  C_5
REMARK    2  A    between atoms: C_5  and  N_6
REMARK    3  A    between atoms: C_10  and  C_11
REMARK    4  A    between atoms: C_11  and  N_12
REMARK    5  A    between atoms: N_12  and  C_13
REMARK    6  A    between atoms: C_15  and  C_16
REMARK                            x       y       z     vdW  Elec       q    Type
REMARK                         _______ _______ _______ _____ _____    ______ ____
ROOT
ATOM      1  N   UNL     1       2.718   6.956  19.976  0.00  0.00    +0.000 N 
ATOM      2  H   UNL     1       2.516   6.522  20.878  0.00  0.00    +0.000 HD
ENDROOT
BRANCH   1   3
ATOM      3  C   UNL     1       3.028   5.925  19.054  0.00  0.00    +0.000 A 
ATOM      4  N   UNL     1       3.994   6.041  18.105  0.00  0.00    +0.000 NA
ATOM      5  C   UNL     1       4.168   4.965  17.280  0.00  0.00    +0.000 A 
ATOM      6  N   UNL     1       3.432   3.839  17.319  0.00  0.00    +0.000 NA
ATOM      7  C   UNL     1       2.517   3.713  18.271  0.00  0.00    +0.000 A 
ATOM      8  C   UNL     1       1.802   2.522  18.324  0.00  0.00    +0.000 A 
ATOM      9  C   UNL     1       0.851   2.286  19.313  0.00  0.00    +0.000 A 
ATOM     10  C   UNL     1       0.632   3.246  20.282  0.00  0.00    +0.000 A 
ATOM     11  C   UNL     1       1.342   4.446  20.237  0.00  0.00    +0.000 A 
ATOM     12  C   UNL     1       2.284   4.715  19.210  0.00  0.00    +0.000 A 
BRANCH   5  13
ATOM     13  C   UNL     1       5.239   4.921  16.254  0.00  0.00    +0.000 A 
ATOM     14  C   UNL     1       5.187   4.158  15.087  0.00  0.00    +0.000 A 
ATOM     15  C   UNL     1       6.237   4.200  14.156  0.00  0.00    +0.000 A 
ATOM     16  C   UNL     1       7.332   5.008  14.408  0.00  0.00    +0.000 A 
ATOM     17  N   UNL     1       7.438   5.763  15.514  0.00  0.00    +0.000 NA
ATOM     18  C   UNL     1       6.403   5.697  16.395  0.00  0.00    +0.000 A 
ENDBRANCH   5  13
ENDBRANCH   1   3
BRANCH   1  19
ATOM     19  C   UNL     1       1.787   8.082  19.780  0.00  0.00    +0.000 C 
BRANCH  19  24
ATOM     20  N   UNL     1      -0.784  10.327  20.834  0.00  0.00    +0.000 NA
ATOM     21  C   UNL     1      -0.093  10.799  22.032  0.00  0.00    +0.000 C 
ATOM     22  C   UNL     1       1.289  10.184  22.301  0.00  0.00    +0.000 C 
ATOM     23  O   UNL     1       1.375   8.763  22.154  0.00  0.00    +0.000 OA
ATOM     24  C   UNL     1       0.781   8.216  20.958  0.00  0.00    +0.000 C 
ATOM     25  C   UNL     1      -0.581   8.885  20.617  0.00  0.00    +0.000 C 
BRANCH  20  26
ATOM     26  C   UNL     1      -0.690  11.185  19.653  0.00  0.00    +0.000 C 
BRANCH  26  30
ATOM     27  C   UNL     1      -3.721  10.636  16.566  0.00  0.00    +0.000 A 
ATOM     28  C   UNL     1      -3.971  11.433  17.680  0.00  0.00    +0.000 A 
ATOM     29  C   UNL     1      -2.992  11.589  18.670  0.00  0.00    +0.000 A 
ATOM     30  C   UNL     1      -1.749  10.943  18.573  0.00  0.00    +0.000 A 
ATOM     31  C   UNL     1      -1.506  10.172  17.423  0.00  0.00    +0.000 A 
ATOM     32  C   UNL     1      -2.486  10.010  16.434  0.00  0.00    +0.000 A 
ENDBRANCH  26  30
ENDBRANCH  20  26
ENDBRANCH  19  24
ENDBRANCH   1  19
TORSDOF 6
ENDMDL
MODEL 2
REMARK VINA RESULT:      -8.9      0.583      1.051
REMARK  Name = 
REMARK  6 active torsions:
REMARK  status: ('A' for Active; 'I' for Inactive)
REMARK    1  A    between atoms: C_4  and  C_5
REMARK    2  A    between atoms: C_5  and  N_6
REMARK    3  A    between atoms: C_10  and  C_11
REMARK    4  A    between atoms: C_11  and  N_12
REMARK    5  A    between atoms: N_12  and  C_13
REMARK    6  A    between atoms: C_15  and  C_16
REMARK                            x       y       z     vdW  Elec       q    Type
REMARK                         _______ _______ _______ _____ _____    ______ ____
ROOT
ATOM      1  N   UNL     1       2.562   6.763  20.239  0.00  0.00    +0.000 N 
ATOM      2  H   UNL     1       1.898   6.341  20.890  0.00  0.00    +0.000 HD
ENDROOT
BRANCH   1   3
ATOM      3  C   UNL     1       2.896   5.792  19.263  0.00  0.00    +0.000 A 
ATOM      4  N   UNL     1       3.884   5.967  18.347  0.00  0.00    +0.000 NA
ATOM      5  C   UNL     1       4.081   4.944  17.461  0.00  0.00    +0.000 A 
ATOM      6  N   UNL     1       3.348   3.816  17.415  0.00  0.00    +0.000 NA
ATOM      7  C   UNL     1       2.411   3.631  18.335  0.00  0.00    +0.000 A 
ATOM      8  C   UNL     1       1.699   2.437  18.298  0.00  0.00    +0.000 A 
ATOM      9  C   UNL     1       0.727   2.140  19.248  0.00  0.00    +0.000 A 
ATOM     10  C   UNL     1       0.481   3.038  20.268  0.00  0.00    +0.000 A 
ATOM     11  C   UNL     1       1.188   4.240  20.314  0.00  0.00    +0.000 A 
ATOM     12  C   UNL     1       2.154   4.573  19.327  0.00  0.00    +0.000 A 
BRANCH   5  13
ATOM     13  C   UNL     1       5.176   4.965  16.460  0.00  0.00    +0.000 A 
ATOM     14  C   UNL     1       5.217   4.171  15.314  0.00  0.00    +0.000 A 
ATOM     15  C   UNL     1       6.281   4.278  14.405  0.00  0.00    +0.000 A 
ATOM     16  C   UNL     1       7.298   5.182  14.659  0.00  0.00    +0.000 A 
ATOM     17  N   UNL     1       7.313   5.972  15.745  0.00  0.00    +0.000 NA
ATOM     18  C   UNL     1       6.266   5.841  16.605  0.00  0.00    +0.000 A 
ENDBRANCH   5  13
ENDBRANCH   1   3
BRANCH   1  19
ATOM     19  C   UNL     1       2.164   8.164  20.008  0.00  0.00    +0.000 C 
BRANCH  19  24
ATOM     20  N   UNL     1      -0.760  10.216  19.967  0.00  0.00    +0.000 NA
ATOM     21  C   UNL     1      -0.233  11.252  20.853  0.00  0.00    +0.000 C 
ATOM     22  C   UNL     1       1.196  11.031  21.374  0.00  0.00    +0.000 C 
ATOM     23  O   UNL     1       1.484   9.714  21.853  0.00  0.00    +0.000 OA
ATOM     24  C   UNL     1       1.063   8.627  21.003  0.00  0.00    +0.000 C 
ATOM     25  C   UNL     1      -0.348   8.869  20.394  0.00  0.00    +0.000 C 
BRANCH  20  26
ATOM     26  C   UNL     1      -0.694  10.496  18.533  0.00  0.00    +0.000 C 
BRANCH  26  30
ATOM     27  C   UNL     1      -4.530  11.145  16.563  0.00  0.00    +0.000 A 
ATOM     28  C   UNL     1      -3.523  10.408  15.944  0.00  0.00    +0.000 A 
ATOM     29  C   UNL     1      -2.292  10.219  16.584  0.00  0.00    +0.000 A 
ATOM     30  C   UNL     1      -2.036  10.772  17.849  0.00  0.00    +0.000 A 
ATOM     31  C   UNL     1      -3.079  11.482  18.470  0.00  0.00    +0.000 A 
ATOM     32  C   UNL     1      -4.310  11.678  17.829  0.00  0.00    +0.000 A 
ENDBRANCH  26  30
ENDBRANCH  20  26
ENDBRANCH  19  24
ENDBRANCH   1  19
TORSDOF 6
ENDMDL
MODEL 3
REMARK VINA RESULT:      -8.8      2.665      3.292
REMARK  Name = 
REMARK  6 active torsions:
REMARK  status: ('A' for Active; 'I' for Inactive)
REMARK    1  A    between atoms: C_4  and  C_5
REMARK    2  A    between atoms: C_5  and  N_6
REMARK    3  A    between atoms: C_10  and  C_11
REMARK    4  A    between atoms: C_11  and  N_12
REMARK    5  A    between atoms: N_12  and  C_13
REMARK    6  A    between atoms: C_15  and  C_16
REMARK                            x       y       z     vdW  Elec       q    Type
REMARK                         _______ _______ _______ _____ _____    ______ ____
ROOT
ATOM      1  N   UNL     1       2.252   7.470  19.235  0.00  0.00    +0.000 N 
ATOM      2  H   UNL     1       1.402   7.206  19.735  0.00  0.00    +0.000 HD
ENDROOT
BRANCH   1   3
ATOM      3  C   UNL     1       2.818   6.295  18.681  0.00  0.00    +0.000 A 
ATOM      4  N   UNL     1       3.732   6.312  17.675  0.00  0.00    +0.000 NA
ATOM      5  C   UNL     1       4.178   5.096  17.238  0.00  0.00    +0.000 A 
ATOM      6  N   UNL     1       3.749   3.908  17.702  0.00  0.00    +0.000 NA
ATOM      7  C   UNL     1       2.886   3.895  18.710  0.00  0.00    +0.000 A 
ATOM      8  C   UNL     1       2.493   2.657  19.206  0.00  0.00    +0.000 A 
ATOM      9  C   UNL     1       1.625   2.548  20.288  0.00  0.00    +0.000 A 
ATOM     10  C   UNL     1       1.163   3.696  20.902  0.00  0.00    +0.000 A 
ATOM     11  C   UNL     1       1.548   4.944  20.411  0.00  0.00    +0.000 A 
ATOM     12  C   UNL     1       2.402   5.067  19.283  0.00  0.00    +0.000 A 
BRANCH   5  13
ATOM     13  C   UNL     1       5.235   4.966  16.204  0.00  0.00    +0.000 A 
ATOM     14  C   UNL     1       5.144   4.147  15.079  0.00  0.00    +0.000 A 
ATOM     15  C   UNL     1       6.183   4.109  14.135  0.00  0.00    +0.000 A 
ATOM     16  C   UNL     1       7.306   4.893  14.334  0.00  0.00    +0.000 A 
ATOM     17  N   UNL     1       7.449   5.700  15.398  0.00  0.00    +0.000 NA
ATOM     18  C   UNL     1       6.423   5.712  16.293  0.00  0.00    +0.000 A 
ENDBRANCH   5  13
ENDBRANCH   1   3
BRANCH   1  19
ATOM     19  C   UNL     1       2.013   8.756  18.553  0.00  0.00    +0.000 C 
BRANCH  19  24
ATOM     20  N   UNL     1       0.897  12.050  19.364  0.00  0.00    +0.000 NA
ATOM     21  C   UNL     1       0.715  11.803  20.793  0.00  0.00    +0.000 C 
ATOM     22  C   UNL     1       1.036  10.381  21.278  0.00  0.00    +0.000 C 
ATOM     23  O   UNL     1       0.511   9.319  20.476  0.00  0.00    +0.000 OA
ATOM     24  C   UNL     1       0.712   9.445  19.052  0.00  0.00    +0.000 C 
ATOM     25  C   UNL     1       0.476  10.898  18.551  0.00  0.00    +0.000 C 
BRANCH  20  26
ATOM     26  C   UNL     1       2.146  12.703  18.974  0.00  0.00    +0.000 C 
BRANCH  26  30
ATOM     27  C   UNL     1       1.790  16.965  18.120  0.00  0.00    +0.000 A 
ATOM     28  C   UNL     1       0.727  16.255  18.674  0.00  0.00    +0.000 A 
ATOM     29  C   UNL     1       0.852  14.883  18.930  0.00  0.00    +0.000 A 
ATOM     30  C   UNL     1       2.037  14.191  18.628  0.00  0.00    +0.000 A 
ATOM     31  C   UNL     1       3.107  14.935  18.103  0.00  0.00    +0.000 A 
ATOM     32  C   UNL     1       2.982  16.306  17.840  0.00  0.00    +0.000 A 
ENDBRANCH  26  30
ENDBRANCH  20  26
ENDBRANCH  19  24
ENDBRANCH   1  19
TORSDOF 6
ENDMDL
MODEL 4
REMARK VINA RESULT:      -8.7      1.806      3.203
REMARK  Name = 
REMARK  6 active torsions:
REMARK  status: ('A' for Active; 'I' for Inactive)
REMARK    1  A    between atoms: C_4  and  C_5
REMARK    2  A    between atoms: C_5  and  N_6
REMARK    3  A    between atoms: C_10  and  C_11
REMARK    4  A    between atoms: C_11  and  N_12
REMARK    5  A    between atoms: N_12  and  C_13
REMARK    6  A    between atoms: C_15  and  C_16
REMARK                            x       y       z     vdW  Elec       q    Type
REMARK                         _______ _______ _______ _____ _____    ______ ____
ROOT
ATOM      1  N   UNL     1       1.764   7.225  18.809  0.00  0.00    +0.000 N 
ATOM      2  H   UNL     1       0.930   7.258  18.220  0.00  0.00    +0.000 HD
ENDROOT
BRANCH   1   3
ATOM      3  C   UNL     1       2.531   6.099  18.418  0.00  0.00    +0.000 A 
ATOM      4  N   UNL     1       3.473   6.144  17.440  0.00  0.00    +0.000 NA
ATOM      5  C   UNL     1       4.123   4.973  17.167  0.00  0.00    +0.000 A 
ATOM      6  N   UNL     1       3.866   3.794  17.764  0.00  0.00    +0.000 NA
ATOM      7  C   UNL     1       2.973   3.762  18.745  0.00  0.00    +0.000 A 
ATOM      8  C   UNL     1       2.758   2.544  19.381  0.00  0.00    +0.000 A 
ATOM      9  C   UNL     1       1.871   2.425  20.447  0.00  0.00    +0.000 A 
ATOM     10  C   UNL     1       1.209   3.548  20.903  0.00  0.00    +0.000 A 
ATOM     11  C   UNL     1       1.415   4.775  20.271  0.00  0.00    +0.000 A 
ATOM     12  C   UNL     1       2.287   4.900  19.157  0.00  0.00    +0.000 A 
BRANCH   5  13
ATOM     13  C   UNL     1       5.230   4.893  16.182  0.00  0.00    +0.000 A 
ATOM     14  C   UNL     1       5.215   4.098  15.036  0.00  0.00    +0.000 A 
ATOM     15  C   UNL     1       6.298   4.108  14.143  0.00  0.00    +0.000 A 
ATOM     16  C   UNL     1       7.389   4.915  14.413  0.00  0.00    +0.000 A 
ATOM     17  N   UNL     1       7.461   5.700  15.500  0.00  0.00    +0.000 NA
ATOM     18  C   UNL     1       6.394   5.665  16.345  0.00  0.00    +0.000 A 
ENDBRANCH   5  13
ENDBRANCH   1   3
BRANCH   1  19
ATOM     19  C   UNL     1       2.242   8.604  19.020  0.00  0.00    +0.000 C 
BRANCH  19  24
ATOM     20  N   UNL     1       1.091  11.981  18.843  0.00  0.00    +0.000 NA
ATOM     21  C   UNL     1      -0.299  11.653  18.534  0.00  0.00    +0.000 C 
ATOM     22  C   UNL     1      -0.630  10.157  18.418  0.00  0.00    +0.000 C 
ATOM     23  O   UNL     1       0.292   9.375  17.652  0.00  0.00    +0.000 OA
ATOM     24  C   UNL     1       1.690   9.582  17.945  0.00  0.00    +0.000 C 
ATOM     25  C   UNL     1       2.032  11.085  18.152  0.00  0.00    +0.000 C 
BRANCH  20  26
ATOM     26  C   UNL     1       1.388  12.286  20.243  0.00  0.00    +0.000 C 
BRANCH  26  30
ATOM     27  C   UNL     1      -0.926  10.152  23.261  0.00  0.00    +0.000 A 
ATOM     28  C   UNL     1       0.152   9.543  22.622  0.00  0.00    +0.000 A 
ATOM     29  C   UNL     1       0.877  10.236  21.645  0.00  0.00    +0.000 A 
ATOM     30  C   UNL     1       0.534  11.548  21.278  0.00  0.00    +0.000 A 
ATOM     31  C   UNL     1      -0.534  12.155  21.961  0.00  0.00    +0.000 A 
ATOM     32  C   UNL     1      -1.265  11.461  22.935  0.00  0.00    +0.000 A 
ENDBRANCH  26  30
ENDBRANCH  20  26
ENDBRANCH  19  24
ENDBRANCH   1  19
TORSDOF 6
ENDMDL
MODEL 5
REMARK VINA RESULT:      -8.6      1.231      1.741
REMARK  Name = 
REMARK  6 active torsions:
REMARK  status: ('A' for Active; 'I' for Inactive)
REMARK    1  A    between atoms: C_4  and  C_5
REMARK    2  A    between atoms: C_5  and  N_6
REMARK    3  A    between atoms: C_10  and  C_11
REMARK    4  A    between atoms: C_11  and  N_12
REMARK    5  A    between atoms: N_12  and  C_13
REMARK    6  A    between atoms: C_15  and  C_16
REMARK                            x       y       z     vdW  Elec       q    Type
REMARK                         _______ _______ _______ _____ _____    ______ ____
ROOT
ATOM      1  N   UNL     1       2.338   7.550  19.380  0.00  0.00    +0.000 N 
ATOM      2  H   UNL     1       1.855   7.274  20.236  0.00  0.00    +0.000 HD
ENDROOT
BRANCH   1   3
ATOM      3  C   UNL     1       2.839   6.377  18.763  0.00  0.00    +0.000 A 
ATOM      4  N   UNL     1       3.764   6.397  17.766  0.00  0.00    +0.000 NA
ATOM      5  C   UNL     1       4.141   5.184  17.262  0.00  0.00    +0.000 A 
ATOM      6  N   UNL     1       3.636   3.998  17.652  0.00  0.00    +0.000 NA
ATOM      7  C   UNL     1       2.764   3.979  18.651  0.00  0.00    +0.000 A 
ATOM      8  C   UNL     1       2.292   2.740  19.071  0.00  0.00    +0.000 A 
ATOM      9  C   UNL     1       1.407   2.622  20.138  0.00  0.00    +0.000 A 
ATOM     10  C   UNL     1       1.008   3.758  20.815  0.00  0.00    +0.000 A 
ATOM     11  C   UNL     1       1.472   5.006  20.401  0.00  0.00    +0.000 A 
ATOM     12  C   UNL     1       2.344   5.143  19.288  0.00  0.00    +0.000 A 
BRANCH   5  13
ATOM     13  C   UNL     1       5.199   5.051  16.230  0.00  0.00    +0.000 A 
ATOM     14  C   UNL     1       5.105   4.237  15.101  0.00  0.00    +0.000 A 
ATOM     15  C   UNL     1       6.146   4.195  14.159  0.00  0.00    +0.000 A 
ATOM     16  C   UNL     1       7.274   4.971  14.365  0.00  0.00    +0.000 A 
ATOM     17  N   UNL     1       7.420   5.772  15.433  0.00  0.00    +0.000 NA
ATOM     18  C   UNL     1       6.392   5.787  16.325  0.00  0.00    +0.000 A 
ENDBRANCH   5  13
ENDBRANCH   1   3
BRANCH   1  19
ATOM     19  C   UNL     1       1.577   8.640  18.744  0.00  0.00    +0.000 C 
BRANCH  19  24
ATOM     20  N   UNL     1      -1.109  10.925  19.316  0.00  0.00    +0.000 NA
ATOM     21  C   UNL     1      -0.345  12.136  19.027  0.00  0.00    +0.000 C 
ATOM     22  C   UNL     1       1.131  11.930  18.653  0.00  0.00    +0.000 C 
ATOM     23  O   UNL     1       1.859  11.017  19.481  0.00  0.00    +0.000 OA
ATOM     24  C   UNL     1       1.207   9.759  19.758  0.00  0.00    +0.000 C 
ATOM     25  C   UNL     1      -0.310   9.935  20.056  0.00  0.00    +0.000 C 
BRANCH  20  26
ATOM     26  C   UNL     1      -1.942  10.411  18.229  0.00  0.00    +0.000 C 
BRANCH  26  30
ATOM     27  C   UNL     1      -5.776  12.447  17.816  0.00  0.00    +0.000 A 
ATOM     28  C   UNL     1      -5.102  12.431  19.035  0.00  0.00    +0.000 A 
ATOM     29  C   UNL     1      -3.878  11.761  19.155  0.00  0.00    +0.000 A 
ATOM     30  C   UNL     1      -3.307  11.084  18.064  0.00  0.00    +0.000 A 
ATOM     31  C   UNL     1      -3.987  11.145  16.836  0.00  0.00    +0.000 A 
ATOM     32  C   UNL     1      -5.215  11.809  16.714  0.00  0.00    +0.000 A 
ENDBRANCH  26  30
ENDBRANCH  20  26
ENDBRANCH  19  24
ENDBRANCH   1  19
TORSDOF 6
ENDMDL
MODEL 6
REMARK VINA RESULT:      -8.5      1.849      3.251
REMARK  Name = 
REMARK  6 active torsions:
REMARK  status: ('A' for Active; 'I' for Inactive)
REMARK    1  A    between atoms: C_4  and  C_5
REMARK    2  A    between atoms: C_5  and  N_6
REMARK    3  A    between atoms: C_10  and  C_11
REMARK    4  A    between atoms: C_11  and  N_12
REMARK    5  A    between atoms: N_12  and  C_13
REMARK    6  A    between atoms: C_15  and  C_16
REMARK                            x       y       z     vdW  Elec       q    Type
REMARK                         _______ _______ _______ _____ _____    ______ ____
ROOT
ATOM      1  N   UNL     1       2.599   7.310  19.897  0.00  0.00    +0.000 N 
ATOM      2  H   UNL     1       2.807   7.156  20.885  0.00  0.00    +0.000 HD
ENDROOT
BRANCH   1   3
ATOM      3  C   UNL     1       3.037   6.173  19.175  0.00  0.00    +0.000 A 
ATOM      4  N   UNL     1       3.907   6.243  18.132  0.00  0.00    +0.000 NA
ATOM      5  C   UNL     1       4.227   5.061  17.526  0.00  0.00    +0.000 A 
ATOM      6  N   UNL     1       3.716   3.862  17.862  0.00  0.00    +0.000 NA
ATOM      7  C   UNL     1       2.898   3.791  18.904  0.00  0.00    +0.000 A 
ATOM      8  C   UNL     1       2.420   2.536  19.264  0.00  0.00    +0.000 A 
ATOM      9  C   UNL     1       1.591   2.361  20.368  0.00  0.00    +0.000 A 
ATOM     10  C   UNL     1       1.256   3.455  21.141  0.00  0.00    +0.000 A 
ATOM     11  C   UNL     1       1.728   4.720  20.789  0.00  0.00    +0.000 A 
ATOM     12  C   UNL     1       2.541   4.916  19.641  0.00  0.00    +0.000 A 
BRANCH   5  13
ATOM     13  C   UNL     1       5.225   4.979  16.430  0.00  0.00    +0.000 A 
ATOM     14  C   UNL     1       5.075   4.203  15.281  0.00  0.00    +0.000 A 
ATOM     15  C   UNL     1       6.060   4.208  14.280  0.00  0.00    +0.000 A 
ATOM     16  C   UNL     1       7.188   4.992  14.446  0.00  0.00    +0.000 A 
ATOM     17  N   UNL     1       7.387   5.758  15.532  0.00  0.00    +0.000 NA
ATOM     18  C   UNL     1       6.413   5.728  16.482  0.00  0.00    +0.000 A 
ENDBRANCH   5  13
ENDBRANCH   1   3
BRANCH   1  19
ATOM     19  C   UNL     1       1.292   7.986  19.795  0.00  0.00    +0.000 C 
BRANCH  19  24
ATOM     20  N   UNL     1      -0.004  11.255  20.426  0.00  0.00    +0.000 NA
ATOM     21  C   UNL     1      -0.774  11.356  19.188  0.00  0.00    +0.000 C 
ATOM     22  C   UNL     1      -0.694  10.148  18.243  0.00  0.00    +0.000 C 
ATOM     23  O   UNL     1       0.617   9.620  18.021  0.00  0.00    +0.000 OA
ATOM     24  C   UNL     1       1.424   9.417  19.200  0.00  0.00    +0.000 C 
ATOM     25  C   UNL     1       1.292  10.590  20.213  0.00  0.00    +0.000 C 
BRANCH  20  26
ATOM     26  C   UNL     1      -0.749  10.863  21.622  0.00  0.00    +0.000 C 
BRANCH  26  30
ATOM     27  C   UNL     1      -2.335  14.229  23.895  0.00  0.00    +0.000 A 
ATOM     28  C   UNL     1      -1.099  14.314  23.259  0.00  0.00    +0.000 A 
ATOM     29  C   UNL     1      -0.597  13.220  22.544  0.00  0.00    +0.000 A 
ATOM     30  C   UNL     1      -1.313  12.014  22.459  0.00  0.00    +0.000 A 
ATOM     31  C   UNL     1      -2.574  11.964  23.078  0.00  0.00    +0.000 A 
ATOM     32  C   UNL     1      -3.076  13.056  23.800  0.00  0.00    +0.000 A 
ENDBRANCH  26  30
ENDBRANCH  20  26
ENDBRANCH  19  24
ENDBRANCH   1  19
TORSDOF 6
ENDMDL
MODEL 7
REMARK VINA RESULT:      -8.4      2.041      8.695
REMARK  Name = 
REMARK  6 active torsions:
REMARK  status: ('A' for Active; 'I' for Inactive)
REMARK    1  A    between atoms: C_4  and  C_5
REMARK    2  A    between atoms: C_5  and  N_6
REMARK    3  A    between atoms: C_10  and  C_11
REMARK    4  A    between atoms: C_11  and  N_12
REMARK    5  A    between atoms: N_12  and  C_13
REMARK    6  A    between atoms: C_15  and  C_16
REMARK                            x       y       z     vdW  Elec       q    Type
REMARK                         _______ _______ _______ _____ _____    ______ ____
ROOT
ATOM      1  N   UNL     1       2.254   8.410  18.860  0.00  0.00    +0.000 N 
ATOM      2  H   UNL     1       2.929   9.098  18.522  0.00  0.00    +0.000 HD
ENDROOT
BRANCH   1   3
ATOM      3  C   UNL     1       1.020   9.073  19.073  0.00  0.00    +0.000 A 
ATOM      4  N   UNL     1       0.171   9.406  18.066  0.00  0.00    +0.000 NA
ATOM      5  C   UNL     1      -0.977  10.055  18.427  0.00  0.00    +0.000 A 
ATOM      6  N   UNL     1      -1.294  10.413  19.685  0.00  0.00    +0.000 NA
ATOM      7  C   UNL     1      -0.482  10.052  20.670  0.00  0.00    +0.000 A 
ATOM      8  C   UNL     1      -0.853  10.389  21.967  0.00  0.00    +0.000 A 
ATOM      9  C   UNL     1      -0.084  10.015  23.065  0.00  0.00    +0.000 A 
ATOM     10  C   UNL     1       1.060   9.268  22.866  0.00  0.00    +0.000 A 
ATOM     11  C   UNL     1       1.444   8.926  21.569  0.00  0.00    +0.000 A 
ATOM     12  C   UNL     1       0.689   9.336  20.438  0.00  0.00    +0.000 A 
BRANCH   5  13
ATOM     13  C   UNL     1      -2.031  10.406  17.443  0.00  0.00    +0.000 A 
ATOM     14  C   UNL     1      -2.131   9.860  16.163  0.00  0.00    +0.000 A 
ATOM     15  C   UNL     1      -3.181  10.231  15.306  0.00  0.00    +0.000 A 
ATOM     16  C   UNL     1      -4.118  11.150  15.745  0.00  0.00    +0.000 A 
ATOM     17  N   UNL     1      -4.071  11.709  16.965  0.00  0.00    +0.000 NA
ATOM     18  C   UNL     1      -3.040  11.328  17.769  0.00  0.00    +0.000 A 
ENDBRANCH   5  13
ENDBRANCH   1   3
BRANCH   1  19
ATOM     19  C   UNL     1       2.476   7.144  18.136  0.00  0.00    +0.000 C 
BRANCH  19  24
ATOM     20  N   UNL     1       4.318   4.111  18.548  0.00  0.00    +0.000 NA
ATOM     21  C   UNL     1       3.209   3.214  18.232  0.00  0.00    +0.000 C 
ATOM     22  C   UNL     1       1.867   3.888  17.906  0.00  0.00    +0.000 C 
ATOM     23  O   UNL     1       1.473   4.944  18.787  0.00  0.00    +0.000 OA
ATOM     24  C   UNL     1       2.489   5.921  19.096  0.00  0.00    +0.000 C 
ATOM     25  C   UNL     1       3.878   5.266  19.347  0.00  0.00    +0.000 C 
BRANCH  20  26
ATOM     26  C   UNL     1       5.256   4.388  17.461  0.00  0.00    +0.000 C 
BRANCH  26  30
ATOM     27  C   UNL     1       8.155   7.535  18.300  0.00  0.00    +0.000 A 
ATOM     28  C   UNL     1       7.201   7.690  17.297  0.00  0.00    +0.000 A 
ATOM     29  C   UNL     1       6.285   6.665  17.030  0.00  0.00    +0.000 A 
ATOM     30  C   UNL     1       6.311   5.460  17.752  0.00  0.00    +0.000 A 
ATOM     31  C   UNL     1       7.259   5.340  18.783  0.00  0.00    +0.000 A 
ATOM     32  C   UNL     1       8.180   6.363  19.047  0.00  0.00    +0.000 A 
ENDBRANCH  26  30
ENDBRANCH  20  26
ENDBRANCH  19  24
ENDBRANCH   1  19
TORSDOF 6
ENDMDL
MODEL 8
REMARK VINA RESULT:      -8.2      2.137      8.722
REMARK  Name = 
REMARK  6 active torsions:
REMARK  status: ('A' for Active; 'I' for Inactive)
REMARK    1  A    between atoms: C_4  and  C_5
REMARK    2  A    between atoms: C_5  and  N_6
REMARK    3  A    between atoms: C_10  and  C_11
REMARK    4  A    between atoms: C_11  and  N_12
REMARK    5  A    between atoms: N_12  and  C_13
REMARK    6  A    between atoms: C_15  and  C_16
REMARK                            x       y       z     vdW  Elec       q    Type
REMARK                         _______ _______ _______ _____ _____    ______ ____
ROOT
ATOM      1  N   UNL     1       2.220   8.538  18.713  0.00  0.00    +0.000 N 
ATOM      2  H   UNL     1       2.853   9.248  18.341  0.00  0.00    +0.000 HD
ENDROOT
BRANCH   1   3
ATOM      3  C   UNL     1       0.973   9.157  18.976  0.00  0.00    +0.000 A 
ATOM      4  N   UNL     1       0.089   9.494  18.001  0.00  0.00    +0.000 NA
ATOM      5  C   UNL     1      -1.068  10.096  18.410  0.00  0.00    +0.000 A 
ATOM      6  N   UNL     1      -1.363  10.408  19.685  0.00  0.00    +0.000 NA
ATOM      7  C   UNL     1      -0.516  10.044  20.639  0.00  0.00    +0.000 A 
ATOM      8  C   UNL     1      -0.863  10.332  21.954  0.00  0.00    +0.000 A 
ATOM      9  C   UNL     1      -0.055   9.950  23.021  0.00  0.00    +0.000 A 
ATOM     10  C   UNL     1       1.105   9.244  22.771  0.00  0.00    +0.000 A 
ATOM     11  C   UNL     1       1.465   8.951  21.455  0.00  0.00    +0.000 A 
ATOM     12  C   UNL     1       0.669   9.371  20.356  0.00  0.00    +0.000 A 
BRANCH   5  13
ATOM     13  C   UNL     1      -2.157  10.444  17.463  0.00  0.00    +0.000 A 
ATOM     14  C   UNL     1      -3.226  11.288  17.761  0.00  0.00    +0.000 A 
ATOM     15  C   UNL     1      -4.198  11.584  16.791  0.00  0.00    +0.000 A 
ATOM     16  C   UNL     1      -4.085  11.025  15.530  0.00  0.00    +0.000 A 
ATOM     17  N   UNL     1      -3.079  10.205  15.186  0.00  0.00    +0.000 NA
ATOM     18  C   UNL     1      -2.156   9.939  16.151  0.00  0.00    +0.000 A 
ENDBRANCH   5  13
ENDBRANCH   1   3
BRANCH   1  19
ATOM     19  C   UNL     1       2.457   7.275  17.989  0.00  0.00    +0.000 C 
BRANCH  19  24
ATOM     20  N   UNL     1       4.256   4.227  18.476  0.00  0.00    +0.000 NA
ATOM     21  C   UNL     1       3.161   3.340  18.093  0.00  0.00    +0.000 C 
ATOM     22  C   UNL     1       1.843   4.025  17.699  0.00  0.00    +0.000 C 
ATOM     23  O   UNL     1       1.407   5.076  18.567  0.00  0.00    +0.000 OA
ATOM     24  C   UNL     1       2.411   6.044  18.939  0.00  0.00    +0.000 C 
ATOM     25  C   UNL     1       3.780   5.379  19.259  0.00  0.00    +0.000 C 
BRANCH  20  26
ATOM     26  C   UNL     1       5.254   4.507  17.444  0.00  0.00    +0.000 C 
BRANCH  26  30
ATOM     27  C   UNL     1       8.222   7.562  18.379  0.00  0.00    +0.000 A 
ATOM     28  C   UNL     1       8.190   6.358  19.078  0.00  0.00    +0.000 A 
ATOM     29  C   UNL     1       7.222   5.392  18.775  0.00  0.00    +0.000 A 
ATOM     30  C   UNL     1       6.259   5.613  17.776  0.00  0.00    +0.000 A 
ATOM     31  C   UNL     1       6.333   6.821  17.060  0.00  0.00    +0.000 A 
ATOM     32  C   UNL     1       7.297   7.792  17.366  0.00  0.00    +0.000 A 
ENDBRANCH  26  30
ENDBRANCH  20  26
ENDBRANCH  19  24
ENDBRANCH   1  19
TORSDOF 6
ENDMDL
MODEL 9
REMARK VINA RESULT:      -8.2      2.005      8.329
REMARK  Name = 
REMARK  6 active torsions:
REMARK  status: ('A' for Active; 'I' for Inactive)
REMARK    1  A    between atoms: C_4  and  C_5
REMARK    2  A    between atoms: C_5  and  N_6
REMARK    3  A    between atoms: C_10  and  C_11
REMARK    4  A    between atoms: C_11  and  N_12
REMARK    5  A    between atoms: N_12  and  C_13
REMARK    6  A    between atoms: C_15  and  C_16
REMARK                            x       y       z     vdW  Elec       q    Type
REMARK                         _______ _______ _______ _____ _____    ______ ____
ROOT
ATOM      1  N   UNL     1       2.492   8.567  18.428  0.00  0.00    +0.000 N 
ATOM      2  H   UNL     1       2.757   8.885  17.494  0.00  0.00    +0.000 HD
ENDROOT
BRANCH   1   3
ATOM      3  C   UNL     1       1.227   9.125  18.738  0.00  0.00    +0.000 A 
ATOM      4  N   UNL     1       0.315   9.472  17.792  0.00  0.00    +0.000 NA
ATOM      5  C   UNL     1      -0.857  10.010  18.245  0.00  0.00    +0.000 A 
ATOM      6  N   UNL     1      -1.142  10.252  19.538  0.00  0.00    +0.000 NA
ATOM      7  C   UNL     1      -0.266   9.877  20.461  0.00  0.00    +0.000 A 
ATOM      8  C   UNL     1      -0.602  10.091  21.794  0.00  0.00    +0.000 A 
ATOM      9  C   UNL     1       0.236   9.692  22.830  0.00  0.00    +0.000 A 
ATOM     10  C   UNL     1       1.418   9.043  22.530  0.00  0.00    +0.000 A 
ATOM     11  C   UNL     1       1.767   8.825  21.197  0.00  0.00    +0.000 A 
ATOM     12  C   UNL     1       0.938   9.264  20.131  0.00  0.00    +0.000 A 
BRANCH   5  13
ATOM     13  C   UNL     1      -1.973  10.359  17.331  0.00  0.00    +0.000 A 
ATOM     14  C   UNL     1      -2.163   9.803  16.066  0.00  0.00    +0.000 A 
ATOM     15  C   UNL     1      -3.266  10.172  15.279  0.00  0.00    +0.000 A 
ATOM     16  C   UNL     1      -4.167  11.100  15.773  0.00  0.00    +0.000 A 
ATOM     17  N   UNL     1      -4.035  11.669  16.982  0.00  0.00    +0.000 NA
ATOM     18  C   UNL     1      -2.954  11.289  17.717  0.00  0.00    +0.000 A 
ENDBRANCH   5  13
ENDBRANCH   1   3
BRANCH   1  19
ATOM     19  C   UNL     1       2.912   7.162  18.580  0.00  0.00    +0.000 C 
BRANCH  19  24
ATOM     20  N   UNL     1       4.968   4.368  17.729  0.00  0.00    +0.000 NA
ATOM     21  C   UNL     1       6.220   5.117  17.648  0.00  0.00    +0.000 C 
ATOM     22  C   UNL     1       6.122   6.625  17.923  0.00  0.00    +0.000 C 
ATOM     23  O   UNL     1       5.043   7.305  17.274  0.00  0.00    +0.000 OA
ATOM     24  C   UNL     1       3.750   6.671  17.366  0.00  0.00    +0.000 C 
ATOM     25  C   UNL     1       3.836   5.129  17.177  0.00  0.00    +0.000 C 
BRANCH  20  26
ATOM     26  C   UNL     1       4.723   3.649  18.979  0.00  0.00    +0.000 C 
BRANCH  26  30
ATOM     27  C   UNL     1       0.555   2.928  20.037  0.00  0.00    +0.000 A 
ATOM     28  C   UNL     1       1.149   2.257  18.971  0.00  0.00    +0.000 A 
ATOM     29  C   UNL     1       2.485   2.509  18.635  0.00  0.00    +0.000 A 
ATOM     30  C   UNL     1       3.251   3.445  19.349  0.00  0.00    +0.000 A 
ATOM     31  C   UNL     1       2.642   4.083  20.443  0.00  0.00    +0.000 A 
ATOM     32  C   UNL     1       1.303   3.837  20.778  0.00  0.00    +0.000 A 
ENDBRANCH  26  30
ENDBRANCH  20  26
ENDBRANCH  19  24
ENDBRANCH   1  19
TORSDOF 6
ENDMDL
