MODEL 1
REMARK VINA RESULT:      -8.0      0.000      0.000
REMARK  Name = 
REMARK  5 active torsions:
REMARK  status: ('A' for Active; 'I' for Inactive)
REMARK    1  A    between atoms: C_4  and  C_5
REMARK    2  A    between atoms: C_7  and  C_8
REMARK    3  A    between atoms: C_8  and  N_9
REMARK    4  A    between atoms: N_9  and  C_10
REMARK    5  A    between atoms: C_14  and  N_15
REMARK                            x       y       z     vdW  Elec       q    Type
REMARK                         _______ _______ _______ _____ _____    ______ ____
ROOT
ATOM      1  C   UNL     1       6.860   5.183  19.508  0.00  0.00    +0.000 C 
ENDROOT
BRANCH   1   4
ATOM      2  C   UNL     1       7.191   5.265  15.809  0.00  0.00    +0.000 A 
ATOM      3  C   UNL     1       6.870   4.502  16.970  0.00  0.00    +0.000 A 
ATOM      4  C   UNL     1       7.094   5.332  18.047  0.00  0.00    +0.000 A 
ATOM      5  N   UNL     1       7.589   6.485  17.509  0.00  0.00    +0.000 N 
ATOM      6  N   UNL     1       7.642   6.483  16.166  0.00  0.00    +0.000 NA
ATOM      7  H   UNL     1       7.882   7.324  17.999  0.00  0.00    +0.000 HD
BRANCH   2  11
ATOM      8  C   UNL     1       6.880   4.085  11.770  0.00  0.00    +0.000 A 
ATOM      9  C   UNL     1       6.099   3.430  12.711  0.00  0.00    +0.000 A 
ATOM     10  C   UNL     1       6.174   3.816  14.049  0.00  0.00    +0.000 A 
ATOM     11  C   UNL     1       7.033   4.850  14.406  0.00  0.00    +0.000 A 
ATOM     12  N   UNL     1       7.797   5.508  13.494  0.00  0.00    +0.000 NA
ATOM     13  C   UNL     1       7.703   5.110  12.205  0.00  0.00    +0.000 A 
ENDBRANCH   2  11
ENDBRANCH   1   4
BRANCH   1  14
ATOM     14  N   UNL     1       5.669   4.396  19.818  0.00  0.00    +0.000 N 
ATOM     15  H   UNL     1       5.855   3.407  19.665  0.00  0.00    +0.000 HD
BRANCH  14  16
ATOM     16  C   UNL     1       4.451   4.773  19.223  0.00  0.00    +0.000 A 
ATOM     17  C   UNL     1       3.676   3.802  18.575  0.00  0.00    +0.000 A 
ATOM     18  C   UNL     1       2.446   4.120  17.984  0.00  0.00    +0.000 A 
ATOM     19  C   UNL     1       1.954   5.421  18.051  0.00  0.00    +0.000 A 
ATOM     20  C   UNL     1       2.677   6.393  18.749  0.00  0.00    +0.000 A 
ATOM     21  C   UNL     1       3.906   6.057  19.351  0.00  0.00    +0.000 A 
BRANCH  20  22
ATOM     22  N   UNL     1       2.212   7.734  18.784  0.00  0.00    +0.000 N 
ATOM     23  C   UNL     1       2.172   8.640  17.743  0.00  0.00    +0.000 A 
ATOM     24  C   UNL     1       1.319   9.647  18.124  0.00  0.00    +0.000 A 
ATOM     25  C   UNL     1       1.014   9.354  19.461  0.00  0.00    +0.000 A 
ATOM     26  N   UNL     1       1.619   8.246  19.894  0.00  0.00    +0.000 NA
ENDBRANCH  20  22
ENDBRANCH  14  16
ENDBRANCH   1  14
TORSDOF 5
ENDMDL
MODEL 2
REMARK VINA RESULT:      -7.9      1.477      2.349
REMARK  Name = 
REMARK  5 active torsions:
REMARK  status: ('A' for Active; 'I' for Inactive)
REMARK    1  A    between atoms: C_4  and  C_5
REMARK    2  A    between atoms: C_7  and  C_8
REMARK    3  A    between atoms: C_8  and  N_9
REMARK    4  A    between atoms: N_9  and  C_10
REMARK    5  A    between atoms: C_14  and  N_15
REMARK                            x       y       z     vdW  Elec       q    Type
REMARK                         _______ _______ _______ _____ _____    ______ ____
ROOT
ATOM      1  C   UNL     1       5.055   4.954  19.409  0.00  0.00    +0.000 C 
ENDROOT
BRANCH   1   4
ATOM      2  C   UNL     1       6.629   4.996  16.045  0.00  0.00    +0.000 A 
ATOM      3  C   UNL     1       5.636   4.434  16.899  0.00  0.00    +0.000 A 
ATOM      4  C   UNL     1       5.813   5.024  18.131  0.00  0.00    +0.000 A 
ATOM      5  N   UNL     1       6.908   5.827  17.985  0.00  0.00    +0.000 N 
ATOM      6  N   UNL     1       7.409   5.846  16.739  0.00  0.00    +0.000 NA
ATOM      7  H   UNL     1       7.348   6.413  18.688  0.00  0.00    +0.000 HD
BRANCH   2  11
ATOM      8  C   UNL     1       7.252   4.305  11.929  0.00  0.00    +0.000 A 
ATOM      9  C   UNL     1       6.287   3.555  12.586  0.00  0.00    +0.000 A 
ATOM     10  C   UNL     1       6.055   3.779  13.942  0.00  0.00    +0.000 A 
ATOM     11  C   UNL     1       6.797   4.751  14.603  0.00  0.00    +0.000 A 
ATOM     12  N   UNL     1       7.738   5.502  13.971  0.00  0.00    +0.000 NA
ATOM     13  C   UNL     1       7.942   5.260  12.657  0.00  0.00    +0.000 A 
ENDBRANCH   2  11
ENDBRANCH   1   4
BRANCH   1  14
ATOM     14  N   UNL     1       3.610   5.058  19.222  0.00  0.00    +0.000 N 
ATOM     15  H   UNL     1       3.308   4.430  18.479  0.00  0.00    +0.000 HD
BRANCH  14  16
ATOM     16  C   UNL     1       3.054   6.339  19.048  0.00  0.00    +0.000 A 
ATOM     17  C   UNL     1       3.264   7.019  17.839  0.00  0.00    +0.000 A 
ATOM     18  C   UNL     1       2.717   8.287  17.607  0.00  0.00    +0.000 A 
ATOM     19  C   UNL     1       1.923   8.895  18.578  0.00  0.00    +0.000 A 
ATOM     20  C   UNL     1       1.645   8.209  19.764  0.00  0.00    +0.000 A 
ATOM     21  C   UNL     1       2.190   6.929  19.980  0.00  0.00    +0.000 A 
BRANCH  20  22
ATOM     22  N   UNL     1       0.879   8.836  20.782  0.00  0.00    +0.000 N 
ATOM     23  C   UNL     1       1.069   8.763  22.147  0.00  0.00    +0.000 A 
ATOM     24  C   UNL     1       0.358   9.798  22.704  0.00  0.00    +0.000 A 
ATOM     25  C   UNL     1      -0.354  10.347  21.628  0.00  0.00    +0.000 A 
ATOM     26  N   UNL     1      -0.112   9.715  20.478  0.00  0.00    +0.000 NA
ENDBRANCH  20  22
ENDBRANCH  14  16
ENDBRANCH   1  14
TORSDOF 5
ENDMDL
MODEL 3
REMARK VINA RESULT:      -7.7      1.905      3.070
REMARK  Name = 
REMARK  5 active torsions:
REMARK  status: ('A' for Active; 'I' for Inactive)
REMARK    1  A    between atoms: C_4  and  C_5
REMARK    2  A    between atoms: C_7  and  C_8
REMARK    3  A    between atoms: C_8  and  N_9
REMARK    4  A    between atoms: N_9  and  C_10
REMARK    5  A    between atoms: C_14  and  N_15
REMARK                            x       y       z     vdW  Elec       q    Type
REMARK                         _______ _______ _______ _____ _____    ______ ____
ROOT
ATOM      1  C   UNL     1       3.128   4.753  18.882  0.00  0.00    +0.000 C 
ENDROOT
BRANCH   1   4
ATOM      2  C   UNL     1       5.658   4.497  16.174  0.00  0.00    +0.000 A 
ATOM      3  C   UNL     1       4.279   4.485  16.535  0.00  0.00    +0.000 A 
ATOM      4  C   UNL     1       4.241   4.603  17.907  0.00  0.00    +0.000 A 
ATOM      5  N   UNL     1       5.549   4.609  18.298  0.00  0.00    +0.000 N 
ATOM      6  N   UNL     1       6.425   4.565  17.280  0.00  0.00    +0.000 NA
ATOM      7  H   UNL     1       5.916   4.670  19.243  0.00  0.00    +0.000 HD
BRANCH   2  11
ATOM      8  C   UNL     1       7.391   4.457  12.327  0.00  0.00    +0.000 A 
ATOM      9  C   UNL     1       6.271   3.671  12.555  0.00  0.00    +0.000 A 
ATOM     10  C   UNL     1       5.673   3.682  13.815  0.00  0.00    +0.000 A 
ATOM     11  C   UNL     1       6.216   4.484  14.812  0.00  0.00    +0.000 A 
ATOM     12  N   UNL     1       7.308   5.268  14.602  0.00  0.00    +0.000 NA
ATOM     13  C   UNL     1       7.866   5.234  13.371  0.00  0.00    +0.000 A 
ENDBRANCH   2  11
ENDBRANCH   1   4
BRANCH   1  14
ATOM     14  N   UNL     1       3.315   5.881  19.792  0.00  0.00    +0.000 N 
ATOM     15  H   UNL     1       3.180   5.578  20.755  0.00  0.00    +0.000 HD
BRANCH  14  16
ATOM     16  C   UNL     1       2.597   7.064  19.537  0.00  0.00    +0.000 A 
ATOM     17  C   UNL     1       2.479   7.522  18.217  0.00  0.00    +0.000 A 
ATOM     18  C   UNL     1       1.759   8.683  17.907  0.00  0.00    +0.000 A 
ATOM     19  C   UNL     1       1.119   9.400  18.915  0.00  0.00    +0.000 A 
ATOM     20  C   UNL     1       1.167   8.927  20.229  0.00  0.00    +0.000 A 
ATOM     21  C   UNL     1       1.883   7.751  20.527  0.00  0.00    +0.000 A 
BRANCH  20  22
ATOM     22  N   UNL     1       0.561   9.674  21.273  0.00  0.00    +0.000 N 
ATOM     23  C   UNL     1       0.055  10.957  21.209  0.00  0.00    +0.000 A 
ATOM     24  C   UNL     1      -0.752  11.122  22.308  0.00  0.00    +0.000 A 
ATOM     25  C   UNL     1      -0.554   9.956  23.062  0.00  0.00    +0.000 A 
ATOM     26  N   UNL     1       0.306   9.114  22.485  0.00  0.00    +0.000 NA
ENDBRANCH  20  22
ENDBRANCH  14  16
ENDBRANCH   1  14
TORSDOF 5
ENDMDL
MODEL 4
REMARK VINA RESULT:      -7.7      2.145      3.525
REMARK  Name = 
REMARK  5 active torsions:
REMARK  status: ('A' for Active; 'I' for Inactive)
REMARK    1  A    between atoms: C_4  and  C_5
REMARK    2  A    between atoms: C_7  and  C_8
REMARK    3  A    between atoms: C_8  and  N_9
REMARK    4  A    between atoms: N_9  and  C_10
REMARK    5  A    between atoms: C_14  and  N_15
REMARK                            x       y       z     vdW  Elec       q    Type
REMARK                         _______ _______ _______ _____ _____    ______ ____
ROOT
ATOM      1  C   UNL     1       7.212   4.976  17.499  0.00  0.00    +0.000 C 
ENDROOT
BRANCH   1   4
ATOM      2  C   UNL     1       6.493   4.133  13.953  0.00  0.00    +0.000 A 
ATOM      3  C   UNL     1       6.335   3.785  15.327  0.00  0.00    +0.000 A 
ATOM      4  C   UNL     1       7.053   4.718  16.043  0.00  0.00    +0.000 A 
ATOM      5  N   UNL     1       7.643   5.510  15.100  0.00  0.00    +0.000 N 
ATOM      6  N   UNL     1       7.312   5.196  13.837  0.00  0.00    +0.000 NA
ATOM      7  H   UNL     1       8.261   6.301  15.251  0.00  0.00    +0.000 HD
BRANCH   2  11
ATOM      8  C   UNL     1       4.679   2.160  10.694  0.00  0.00    +0.000 A 
ATOM      9  C   UNL     1       4.018   3.240  11.263  0.00  0.00    +0.000 A 
ATOM     10  C   UNL     1       4.609   3.916  12.330  0.00  0.00    +0.000 A 
ATOM     11  C   UNL     1       5.847   3.490  12.798  0.00  0.00    +0.000 A 
ATOM     12  N   UNL     1       6.511   2.440  12.245  0.00  0.00    +0.000 NA
ATOM     13  C   UNL     1       5.913   1.804  11.212  0.00  0.00    +0.000 A 
ENDBRANCH   2  11
ENDBRANCH   1   4
BRANCH   1  14
ATOM     14  N   UNL     1       6.554   6.205  17.937  0.00  0.00    +0.000 N 
ATOM     15  H   UNL     1       7.022   6.576  18.761  0.00  0.00    +0.000 HD
BRANCH  14  16
ATOM     16  C   UNL     1       5.159   6.180  18.122  0.00  0.00    +0.000 A 
ATOM     17  C   UNL     1       4.376   7.201  17.566  0.00  0.00    +0.000 A 
ATOM     18  C   UNL     1       2.982   7.213  17.704  0.00  0.00    +0.000 A 
ATOM     19  C   UNL     1       2.338   6.183  18.386  0.00  0.00    +0.000 A 
ATOM     20  C   UNL     1       3.091   5.119  18.892  0.00  0.00    +0.000 A 
ATOM     21  C   UNL     1       4.491   5.112  18.735  0.00  0.00    +0.000 A 
BRANCH  20  22
ATOM     22  N   UNL     1       2.453   4.088  19.631  0.00  0.00    +0.000 N 
ATOM     23  C   UNL     1       2.369   3.962  21.003  0.00  0.00    +0.000 A 
ATOM     24  C   UNL     1       1.368   3.058  21.259  0.00  0.00    +0.000 A 
ATOM     25  C   UNL     1       1.010   2.570  19.993  0.00  0.00    +0.000 A 
ATOM     26  N   UNL     1       1.723   3.124  19.011  0.00  0.00    +0.000 NA
ENDBRANCH  20  22
ENDBRANCH  14  16
ENDBRANCH   1  14
TORSDOF 5
ENDMDL
MODEL 5
REMARK VINA RESULT:      -7.7      1.994      3.120
REMARK  Name = 
REMARK  5 active torsions:
REMARK  status: ('A' for Active; 'I' for Inactive)
REMARK    1  A    between atoms: C_4  and  C_5
REMARK    2  A    between atoms: C_7  and  C_8
REMARK    3  A    between atoms: C_8  and  N_9
REMARK    4  A    between atoms: N_9  and  C_10
REMARK    5  A    between atoms: C_14  and  N_15
REMARK                            x       y       z     vdW  Elec       q    Type
REMARK                         _______ _______ _______ _____ _____    ______ ____
ROOT
ATOM      1  C   UNL     1       4.636   5.754  19.225  0.00  0.00    +0.000 C 
ENDROOT
BRANCH   1   4
ATOM      2  C   UNL     1       5.688   4.482  15.897  0.00  0.00    +0.000 A 
ATOM      3  C   UNL     1       5.423   5.614  16.721  0.00  0.00    +0.000 A 
ATOM      4  C   UNL     1       4.978   5.115  17.925  0.00  0.00    +0.000 A 
ATOM      5  N   UNL     1       4.929   3.762  17.752  0.00  0.00    +0.000 N 
ATOM      6  N   UNL     1       5.367   3.349  16.551  0.00  0.00    +0.000 NA
ATOM      7  H   UNL     1       4.636   3.059  18.423  0.00  0.00    +0.000 HD
BRANCH   2  11
ATOM      8  C   UNL     1       7.476   4.503  12.075  0.00  0.00    +0.000 A 
ATOM      9  C   UNL     1       6.376   3.683  12.285  0.00  0.00    +0.000 A 
ATOM     10  C   UNL     1       5.761   3.673  13.536  0.00  0.00    +0.000 A 
ATOM     11  C   UNL     1       6.266   4.489  14.543  0.00  0.00    +0.000 A 
ATOM     12  N   UNL     1       7.335   5.306  14.350  0.00  0.00    +0.000 NA
ATOM     13  C   UNL     1       7.911   5.292  13.127  0.00  0.00    +0.000 A 
ENDBRANCH   2  11
ENDBRANCH   1   4
BRANCH   1  14
ATOM     14  N   UNL     1       3.197   5.823  19.466  0.00  0.00    +0.000 N 
ATOM     15  H   UNL     1       2.719   5.098  18.933  0.00  0.00    +0.000 HD
BRANCH  14  16
ATOM     16  C   UNL     1       2.556   7.065  19.305  0.00  0.00    +0.000 A 
ATOM     17  C   UNL     1       2.672   7.742  18.082  0.00  0.00    +0.000 A 
ATOM     18  C   UNL     1       2.037   8.971  17.863  0.00  0.00    +0.000 A 
ATOM     19  C   UNL     1       1.249   9.540  18.861  0.00  0.00    +0.000 A 
ATOM     20  C   UNL     1       1.064   8.852  20.064  0.00  0.00    +0.000 A 
ATOM     21  C   UNL     1       1.697   7.611  20.267  0.00  0.00    +0.000 A 
BRANCH  20  22
ATOM     22  N   UNL     1       0.304   9.443  21.107  0.00  0.00    +0.000 N 
ATOM     23  C   UNL     1       0.044   8.923  22.360  0.00  0.00    +0.000 A 
ATOM     24  C   UNL     1      -0.388   9.966  23.141  0.00  0.00    +0.000 A 
ATOM     25  C   UNL     1      -0.511  11.041  22.249  0.00  0.00    +0.000 A 
ATOM     26  N   UNL     1      -0.178  10.709  20.999  0.00  0.00    +0.000 NA
ENDBRANCH  20  22
ENDBRANCH  14  16
ENDBRANCH   1  14
TORSDOF 5
ENDMDL
MODEL 6
REMARK VINA RESULT:      -7.6      1.404      7.195
REMARK  Name = 
REMARK  5 active torsions:
REMARK  status: ('A' for Active; 'I' for Inactive)
REMARK    1  A    between atoms: C_4  and  C_5
REMARK    2  A    between atoms: C_7  and  C_8
REMARK    3  A    between atoms: C_8  and  N_9
REMARK    4  A    between atoms: N_9  and  C_10
REMARK    5  A    between atoms: C_14  and  N_15
REMARK                            x       y       z     vdW  Elec       q    Type
REMARK                         _______ _______ _______ _____ _____    ______ ____
ROOT
ATOM      1  C   UNL     1       3.859   3.492  19.262  0.00  0.00    +0.000 C 
ENDROOT
BRANCH   1   4
ATOM      2  C   UNL     1       2.286   6.827  19.715  0.00  0.00    +0.000 A 
ATOM      3  C   UNL     1       3.130   5.994  18.923  0.00  0.00    +0.000 A 
ATOM      4  C   UNL     1       3.224   4.796  19.595  0.00  0.00    +0.000 A 
ATOM      5  N   UNL     1       2.519   4.981  20.750  0.00  0.00    +0.000 N 
ATOM      6  N   UNL     1       1.928   6.184  20.843  0.00  0.00    +0.000 NA
ATOM      7  H   UNL     1       2.375   4.317  21.504  0.00  0.00    +0.000 HD
BRANCH   2  11
ATOM      8  C   UNL     1       0.964  10.747  18.882  0.00  0.00    +0.000 A 
ATOM      9  C   UNL     1       1.620  10.045  17.881  0.00  0.00    +0.000 A 
ATOM     10  C   UNL     1       2.051   8.742  18.131  0.00  0.00    +0.000 A 
ATOM     11  C   UNL     1       1.810   8.179  19.379  0.00  0.00    +0.000 A 
ATOM     12  N   UNL     1       1.159   8.850  20.366  0.00  0.00    +0.000 NA
ATOM     13  C   UNL     1       0.755  10.111  20.095  0.00  0.00    +0.000 A 
ENDBRANCH   2  11
ENDBRANCH   1   4
BRANCH   1  14
ATOM     14  N   UNL     1       5.319   3.551  19.265  0.00  0.00    +0.000 N 
ATOM     15  H   UNL     1       5.658   3.742  20.206  0.00  0.00    +0.000 HD
BRANCH  14  16
ATOM     16  C   UNL     1       5.951   4.388  18.327  0.00  0.00    +0.000 A 
ATOM     17  C   UNL     1       6.687   5.492  18.781  0.00  0.00    +0.000 A 
ATOM     18  C   UNL     1       7.352   6.344  17.891  0.00  0.00    +0.000 A 
ATOM     19  C   UNL     1       7.313   6.095  16.521  0.00  0.00    +0.000 A 
ATOM     20  C   UNL     1       6.641   4.963  16.050  0.00  0.00    +0.000 A 
ATOM     21  C   UNL     1       5.987   4.106  16.956  0.00  0.00    +0.000 A 
BRANCH  20  22
ATOM     22  N   UNL     1       6.552   4.723  14.653  0.00  0.00    +0.000 N 
ATOM     23  C   UNL     1       7.440   5.115  13.672  0.00  0.00    +0.000 A 
ATOM     24  C   UNL     1       7.162   4.360  12.559  0.00  0.00    +0.000 A 
ATOM     25  C   UNL     1       5.998   3.656  12.900  0.00  0.00    +0.000 A 
ATOM     26  N   UNL     1       5.574   3.936  14.134  0.00  0.00    +0.000 NA
ENDBRANCH  20  22
ENDBRANCH  14  16
ENDBRANCH   1  14
TORSDOF 5
ENDMDL
MODEL 7
REMARK VINA RESULT:      -7.6      1.566      2.260
REMARK  Name = 
REMARK  5 active torsions:
REMARK  status: ('A' for Active; 'I' for Inactive)
REMARK    1  A    between atoms: C_4  and  C_5
REMARK    2  A    between atoms: C_7  and  C_8
REMARK    3  A    between atoms: C_8  and  N_9
REMARK    4  A    between atoms: N_9  and  C_10
REMARK    5  A    between atoms: C_14  and  N_15
REMARK                            x       y       z     vdW  Elec       q    Type
REMARK                         _______ _______ _______ _____ _____    ______ ____
ROOT
ATOM      1  C   UNL     1       7.038   5.321  17.476  0.00  0.00    +0.000 C 
ENDROOT
BRANCH   1   4
ATOM      2  C   UNL     1       6.474   4.259  13.961  0.00  0.00    +0.000 A 
ATOM      3  C   UNL     1       6.205   4.032  15.342  0.00  0.00    +0.000 A 
ATOM      4  C   UNL     1       6.949   4.963  16.035  0.00  0.00    +0.000 A 
ATOM      5  N   UNL     1       7.658   5.632  15.079  0.00  0.00    +0.000 N 
ATOM      6  N   UNL     1       7.381   5.245  13.823  0.00  0.00    +0.000 NA
ATOM      7  H   UNL     1       8.326   6.384  15.213  0.00  0.00    +0.000 HD
BRANCH   2  11
ATOM      8  C   UNL     1       4.725   2.178  10.734  0.00  0.00    +0.000 A 
ATOM      9  C   UNL     1       4.064   3.289  11.239  0.00  0.00    +0.000 A 
ATOM     10  C   UNL     1       4.634   4.001  12.295  0.00  0.00    +0.000 A 
ATOM     11  C   UNL     1       5.852   3.578  12.815  0.00  0.00    +0.000 A 
ATOM     12  N   UNL     1       6.516   2.497  12.324  0.00  0.00    +0.000 NA
ATOM     13  C   UNL     1       5.938   1.827  11.302  0.00  0.00    +0.000 A 
ENDBRANCH   2  11
ENDBRANCH   1   4
BRANCH   1  14
ATOM     14  N   UNL     1       6.560   4.260  18.359  0.00  0.00    +0.000 N 
ATOM     15  H   UNL     1       6.707   3.352  17.923  0.00  0.00    +0.000 HD
BRANCH  14  16
ATOM     16  C   UNL     1       5.254   4.362  18.873  0.00  0.00    +0.000 A 
ATOM     17  C   UNL     1       4.684   3.256  19.518  0.00  0.00    +0.000 A 
ATOM     18  C   UNL     1       3.396   3.311  20.065  0.00  0.00    +0.000 A 
ATOM     19  C   UNL     1       2.657   4.490  19.998  0.00  0.00    +0.000 A 
ATOM     20  C   UNL     1       3.230   5.626  19.419  0.00  0.00    +0.000 A 
ATOM     21  C   UNL     1       4.531   5.562  18.884  0.00  0.00    +0.000 A 
BRANCH  20  22
ATOM     22  N   UNL     1       2.471   6.820  19.300  0.00  0.00    +0.000 N 
ATOM     23  C   UNL     1       1.797   7.494  20.299  0.00  0.00    +0.000 A 
ATOM     24  C   UNL     1       1.536   8.755  19.821  0.00  0.00    +0.000 A 
ATOM     25  C   UNL     1       1.941   8.709  18.480  0.00  0.00    +0.000 A 
ATOM     26  N   UNL     1       2.427   7.515  18.133  0.00  0.00    +0.000 NA
ENDBRANCH  20  22
ENDBRANCH  14  16
ENDBRANCH   1  14
TORSDOF 5
ENDMDL
MODEL 8
REMARK VINA RESULT:      -7.5      2.125      3.451
REMARK  Name = 
REMARK  5 active torsions:
REMARK  status: ('A' for Active; 'I' for Inactive)
REMARK    1  A    between atoms: C_4  and  C_5
REMARK    2  A    between atoms: C_7  and  C_8
REMARK    3  A    between atoms: C_8  and  N_9
REMARK    4  A    between atoms: N_9  and  C_10
REMARK    5  A    between atoms: C_14  and  N_15
REMARK                            x       y       z     vdW  Elec       q    Type
REMARK                         _______ _______ _______ _____ _____    ______ ____
ROOT
ATOM      1  C   UNL     1       7.419   4.812  17.667  0.00  0.00    +0.000 C 
ENDROOT
BRANCH   1   4
ATOM      2  C   UNL     1       6.521   4.127  14.128  0.00  0.00    +0.000 A 
ATOM      3  C   UNL     1       6.510   3.674  15.480  0.00  0.00    +0.000 A 
ATOM      4  C   UNL     1       7.175   4.634  16.210  0.00  0.00    +0.000 A 
ATOM      5  N   UNL     1       7.601   5.547  15.290  0.00  0.00    +0.000 N 
ATOM      6  N   UNL     1       7.208   5.281  14.033  0.00  0.00    +0.000 NA
ATOM      7  H   UNL     1       8.139   6.393  15.455  0.00  0.00    +0.000 HD
BRANCH   2  11
ATOM      8  C   UNL     1       4.585   2.435  10.782  0.00  0.00    +0.000 A 
ATOM      9  C   UNL     1       5.827   1.936  11.149  0.00  0.00    +0.000 A 
ATOM     10  C   UNL     1       6.476   2.471  12.261  0.00  0.00    +0.000 A 
ATOM     11  C   UNL     1       5.861   3.492  12.977  0.00  0.00    +0.000 A 
ATOM     12  N   UNL     1       4.639   3.984  12.636  0.00  0.00    +0.000 NA
ATOM     13  C   UNL     1       4.036   3.447  11.552  0.00  0.00    +0.000 A 
ENDBRANCH   2  11
ENDBRANCH   1   4
BRANCH   1  14
ATOM     14  N   UNL     1       6.763   5.997  18.215  0.00  0.00    +0.000 N 
ATOM     15  H   UNL     1       7.144   6.213  19.134  0.00  0.00    +0.000 HD
BRANCH  14  16
ATOM     16  C   UNL     1       5.356   6.025  18.239  0.00  0.00    +0.000 A 
ATOM     17  C   UNL     1       4.680   7.060  17.577  0.00  0.00    +0.000 A 
ATOM     18  C   UNL     1       3.281   7.122  17.553  0.00  0.00    +0.000 A 
ATOM     19  C   UNL     1       2.525   6.131  18.175  0.00  0.00    +0.000 A 
ATOM     20  C   UNL     1       3.175   5.054  18.784  0.00  0.00    +0.000 A 
ATOM     21  C   UNL     1       4.583   4.995  18.790  0.00  0.00    +0.000 A 
BRANCH  20  22
ATOM     22  N   UNL     1       2.420   4.063  19.463  0.00  0.00    +0.000 N 
ATOM     23  C   UNL     1       2.521   3.683  20.787  0.00  0.00    +0.000 A 
ATOM     24  C   UNL     1       1.375   2.991  21.092  0.00  0.00    +0.000 A 
ATOM     25  C   UNL     1       0.712   2.861  19.863  0.00  0.00    +0.000 A 
ATOM     26  N   UNL     1       1.380   3.430  18.858  0.00  0.00    +0.000 NA
ENDBRANCH  20  22
ENDBRANCH  14  16
ENDBRANCH   1  14
TORSDOF 5
ENDMDL
MODEL 9
REMARK VINA RESULT:      -7.5      3.116      9.270
REMARK  Name = 
REMARK  5 active torsions:
REMARK  status: ('A' for Active; 'I' for Inactive)
REMARK    1  A    between atoms: C_4  and  C_5
REMARK    2  A    between atoms: C_7  and  C_8
REMARK    3  A    between atoms: C_8  and  N_9
REMARK    4  A    between atoms: N_9  and  C_10
REMARK    5  A    between atoms: C_14  and  N_15
REMARK                            x       y       z     vdW  Elec       q    Type
REMARK                         _______ _______ _______ _____ _____    ______ ____
ROOT
ATOM      1  C   UNL     1       1.987   7.477  20.118  0.00  0.00    +0.000 C 
ENDROOT
BRANCH   1   4
ATOM      2  C   UNL     1       0.010  10.166  21.748  0.00  0.00    +0.000 A 
ATOM      3  C   UNL     1       0.306   9.449  20.552  0.00  0.00    +0.000 A 
ATOM      4  C   UNL     1       1.310   8.563  20.875  0.00  0.00    +0.000 A 
ATOM      5  N   UNL     1       1.609   8.828  22.180  0.00  0.00    +0.000 N 
ATOM      6  N   UNL     1       0.834   9.772  22.739  0.00  0.00    +0.000 NA
ATOM      7  H   UNL     1       2.312   8.380  22.761  0.00  0.00    +0.000 HD
BRANCH   2  11
ATOM      8  C   UNL     1      -3.098  12.988  22.176  0.00  0.00    +0.000 A 
ATOM      9  C   UNL     1      -2.684  12.286  23.299  0.00  0.00    +0.000 A 
ATOM     10  C   UNL     1      -1.648  11.360  23.183  0.00  0.00    +0.000 A 
ATOM     11  C   UNL     1      -1.053  11.165  21.941  0.00  0.00    +0.000 A 
ATOM     12  N   UNL     1      -1.440  11.853  20.833  0.00  0.00    +0.000 NA
ATOM     13  C   UNL     1      -2.448  12.742  20.978  0.00  0.00    +0.000 A 
ENDBRANCH   2  11
ENDBRANCH   1   4
BRANCH   1  14
ATOM     14  N   UNL     1       1.864   6.170  20.760  0.00  0.00    +0.000 N 
ATOM     15  H   UNL     1       1.956   6.269  21.770  0.00  0.00    +0.000 HD
BRANCH  14  16
ATOM     16  C   UNL     1       2.671   5.119  20.286  0.00  0.00    +0.000 A 
ATOM     17  C   UNL     1       2.471   3.824  20.784  0.00  0.00    +0.000 A 
ATOM     18  C   UNL     1       3.232   2.739  20.331  0.00  0.00    +0.000 A 
ATOM     19  C   UNL     1       4.200   2.926  19.346  0.00  0.00    +0.000 A 
ATOM     20  C   UNL     1       4.372   4.196  18.786  0.00  0.00    +0.000 A 
ATOM     21  C   UNL     1       3.590   5.276  19.241  0.00  0.00    +0.000 A 
BRANCH  20  22
ATOM     22  N   UNL     1       5.386   4.411  17.817  0.00  0.00    +0.000 N 
ATOM     23  C   UNL     1       6.692   4.803  18.035  0.00  0.00    +0.000 A 
ATOM     24  C   UNL     1       7.390   4.519  16.887  0.00  0.00    +0.000 A 
ATOM     25  C   UNL     1       6.406   4.107  15.976  0.00  0.00    +0.000 A 
ATOM     26  N   UNL     1       5.181   4.122  16.505  0.00  0.00    +0.000 NA
ENDBRANCH  20  22
ENDBRANCH  14  16
ENDBRANCH   1  14
TORSDOF 5
ENDMDL
