MODEL 1
REMARK VINA RESULT:      -8.0      0.000      0.000
REMARK  Name = 
REMARK  8 active torsions:
REMARK  status: ('A' for Active; 'I' for Inactive)
REMARK    1  A    between atoms: C_2  and  C_3
REMARK    2  A    between atoms: C_3  and  C_4
REMARK    3  A    between atoms: C_4  and  C_5
REMARK    4  A    between atoms: C_5  and  C_6
REMARK    5  A    between atoms: N_15  and  C_16
REMARK    6  A    between atoms: C_16  and  C_17
REMARK    7  A    between atoms: C_17  and  C_18
REMARK    8  A    between atoms: N_21  and  C_22
REMARK                            x       y       z     vdW  Elec       q    Type
REMARK                         _______ _______ _______ _____ _____    ______ ____
ROOT
ATOM      1  O   UNL     1       3.227   1.290  19.147  0.00  0.00    +0.000 OA
ATOM      2  C   UNL     1       2.429   2.072  18.649  0.00  0.00    +0.000 C 
ATOM      3  N   UNL     1       1.442   2.702  19.369  0.00  0.00    +0.000 N 
ATOM      4  H   UNL     1       0.934   3.465  18.938  0.00  0.00    +0.000 HD
ENDROOT
BRANCH   2   5
ATOM      5  C   UNL     1       2.432   2.447  17.179  0.00  0.00    +0.000 C 
BRANCH   5   6
ATOM      6  C   UNL     1       3.114   3.790  16.938  0.00  0.00    +0.000 C 
BRANCH   6   7
ATOM      7  C   UNL     1       4.641   3.652  16.915  0.00  0.00    +0.000 C 
BRANCH   7   8
ATOM      8  C   UNL     1       5.314   4.968  16.712  0.00  0.00    +0.000 A 
ATOM      9  C   UNL     1       5.076   5.867  15.692  0.00  0.00    +0.000 A 
ATOM     10  N   UNL     1       5.894   6.948  15.876  0.00  0.00    +0.000 N 
ATOM     11  C   UNL     1       6.672   6.773  16.995  0.00  0.00    +0.000 A 
ATOM     12  C   UNL     1       7.643   7.608  17.562  0.00  0.00    +0.000 A 
ATOM     13  C   UNL     1       8.284   7.162  18.721  0.00  0.00    +0.000 A 
ATOM     14  C   UNL     1       7.964   5.932  19.292  0.00  0.00    +0.000 A 
ATOM     15  C   UNL     1       6.987   5.113  18.716  0.00  0.00    +0.000 A 
ATOM     16  C   UNL     1       6.330   5.537  17.544  0.00  0.00    +0.000 A 
ATOM     17  H   UNL     1       5.926   7.762  15.279  0.00  0.00    +0.000 HD
ENDBRANCH   7   8
ENDBRANCH   6   7
ENDBRANCH   5   6
ENDBRANCH   2   5
BRANCH   3  18
ATOM     18  C   UNL     1       1.323   2.495  20.800  0.00  0.00    +0.000 C 
BRANCH  18  19
ATOM     19  C   UNL     1       2.153   3.492  21.607  0.00  0.00    +0.000 C 
BRANCH  19  20
ATOM     20  C   UNL     1       2.433   4.745  20.848  0.00  0.00    +0.000 A 
ATOM     21  C   UNL     1       3.561   5.068  20.072  0.00  0.00    +0.000 A 
ATOM     22  N   UNL     1       3.459   6.259  19.485  0.00  0.00    +0.000 NA
ATOM     23  N   UNL     1       2.265   6.751  19.900  0.00  0.00    +0.000 N 
ATOM     24  C   UNL     1       1.616   5.846  20.715  0.00  0.00    +0.000 A 
BRANCH  23  25
ATOM     25  C   UNL     1       1.813   8.037  19.500  0.00  0.00    +0.000 A 
ATOM     26  C   UNL     1       1.062   8.818  20.393  0.00  0.00    +0.000 A 
ATOM     27  C   UNL     1       0.602  10.078  20.004  0.00  0.00    +0.000 A 
ATOM     28  C   UNL     1       0.884  10.563  18.728  0.00  0.00    +0.000 A 
ATOM     29  C   UNL     1       1.631   9.795  17.839  0.00  0.00    +0.000 A 
ATOM     30  C   UNL     1       2.099   8.536  18.221  0.00  0.00    +0.000 A 
ENDBRANCH  23  25
ENDBRANCH  19  20
ENDBRANCH  18  19
ENDBRANCH   3  18
TORSDOF 8
ENDMDL
MODEL 2
REMARK VINA RESULT:      -7.8      4.508      7.837
REMARK  Name = 
REMARK  8 active torsions:
REMARK  status: ('A' for Active; 'I' for Inactive)
REMARK    1  A    between atoms: C_2  and  C_3
REMARK    2  A    between atoms: C_3  and  C_4
REMARK    3  A    between atoms: C_4  and  C_5
REMARK    4  A    between atoms: C_5  and  C_6
REMARK    5  A    between atoms: N_15  and  C_16
REMARK    6  A    between atoms: C_16  and  C_17
REMARK    7  A    between atoms: C_17  and  C_18
REMARK    8  A    between atoms: N_21  and  C_22
REMARK                            x       y       z     vdW  Elec       q    Type
REMARK                         _______ _______ _______ _____ _____    ______ ____
ROOT
ATOM      1  O   UNL     1       6.913   5.493  19.743  0.00  0.00    +0.000 OA
ATOM      2  C   UNL     1       6.974   5.534  18.521  0.00  0.00    +0.000 C 
ATOM      3  N   UNL     1       7.536   6.580  17.830  0.00  0.00    +0.000 N 
ATOM      4  H   UNL     1       7.713   6.472  16.839  0.00  0.00    +0.000 HD
ENDROOT
BRANCH   2   5
ATOM      5  C   UNL     1       6.441   4.436  17.620  0.00  0.00    +0.000 C 
BRANCH   5   6
ATOM      6  C   UNL     1       4.937   4.249  17.783  0.00  0.00    +0.000 C 
BRANCH   6   7
ATOM      7  C   UNL     1       4.163   5.515  17.395  0.00  0.00    +0.000 C 
BRANCH   7   8
ATOM      8  C   UNL     1       3.388   6.066  18.544  0.00  0.00    +0.000 A 
ATOM      9  C   UNL     1       3.236   5.489  19.788  0.00  0.00    +0.000 A 
ATOM     10  N   UNL     1       2.460   6.318  20.552  0.00  0.00    +0.000 N 
ATOM     11  C   UNL     1       2.092   7.427  19.829  0.00  0.00    +0.000 A 
ATOM     12  C   UNL     1       1.308   8.527  20.197  0.00  0.00    +0.000 A 
ATOM     13  C   UNL     1       1.097   9.522  19.237  0.00  0.00    +0.000 A 
ATOM     14  C   UNL     1       1.652   9.422  17.963  0.00  0.00    +0.000 A 
ATOM     15  C   UNL     1       2.438   8.318  17.614  0.00  0.00    +0.000 A 
ATOM     16  C   UNL     1       2.660   7.298  18.561  0.00  0.00    +0.000 A 
ATOM     17  H   UNL     1       2.193   6.146  21.510  0.00  0.00    +0.000 HD
ENDBRANCH   7   8
ENDBRANCH   6   7
ENDBRANCH   5   6
ENDBRANCH   2   5
BRANCH   3  18
ATOM     18  C   UNL     1       8.137   7.696  18.537  0.00  0.00    +0.000 C 
BRANCH  18  19
ATOM     19  C   UNL     1       7.970   9.020  17.792  0.00  0.00    +0.000 C 
BRANCH  19  20
ATOM     20  C   UNL     1       8.747  10.127  18.420  0.00  0.00    +0.000 A 
ATOM     21  C   UNL     1       9.441  10.128  19.644  0.00  0.00    +0.000 A 
ATOM     22  N   UNL     1      10.074  11.277  19.876  0.00  0.00    +0.000 NA
ATOM     23  N   UNL     1       9.772  12.062  18.812  0.00  0.00    +0.000 N 
ATOM     24  C   UNL     1       8.982  11.384  17.908  0.00  0.00    +0.000 A 
BRANCH  23  25
ATOM     25  C   UNL     1      10.250  13.397  18.716  0.00  0.00    +0.000 A 
ATOM     26  C   UNL     1      10.641  13.907  17.469  0.00  0.00    +0.000 A 
ATOM     27  C   UNL     1      11.125  15.213  17.367  0.00  0.00    +0.000 A 
ATOM     28  C   UNL     1      11.223  16.014  18.504  0.00  0.00    +0.000 A 
ATOM     29  C   UNL     1      10.833  15.515  19.744  0.00  0.00    +0.000 A 
ATOM     30  C   UNL     1      10.344  14.212  19.854  0.00  0.00    +0.000 A 
ENDBRANCH  23  25
ENDBRANCH  19  20
ENDBRANCH  18  19
ENDBRANCH   3  18
TORSDOF 8
ENDMDL
MODEL 3
REMARK VINA RESULT:      -7.7      3.934      6.750
REMARK  Name = 
REMARK  8 active torsions:
REMARK  status: ('A' for Active; 'I' for Inactive)
REMARK    1  A    between atoms: C_2  and  C_3
REMARK    2  A    between atoms: C_3  and  C_4
REMARK    3  A    between atoms: C_4  and  C_5
REMARK    4  A    between atoms: C_5  and  C_6
REMARK    5  A    between atoms: N_15  and  C_16
REMARK    6  A    between atoms: C_16  and  C_17
REMARK    7  A    between atoms: C_17  and  C_18
REMARK    8  A    between atoms: N_21  and  C_22
REMARK                            x       y       z     vdW  Elec       q    Type
REMARK                         _______ _______ _______ _____ _____    ______ ____
ROOT
ATOM      1  O   UNL     1       7.090   5.504  18.608  0.00  0.00    +0.000 OA
ATOM      2  C   UNL     1       7.614   6.454  18.041  0.00  0.00    +0.000 C 
ATOM      3  N   UNL     1       7.480   6.695  16.695  0.00  0.00    +0.000 N 
ATOM      4  H   UNL     1       7.787   7.586  16.325  0.00  0.00    +0.000 HD
ENDROOT
BRANCH   2   5
ATOM      5  C   UNL     1       8.471   7.484  18.753  0.00  0.00    +0.000 C 
BRANCH   5   6
ATOM      6  C   UNL     1       8.289   8.878  18.164  0.00  0.00    +0.000 C 
BRANCH   6   7
ATOM      7  C   UNL     1       9.144   9.919  18.897  0.00  0.00    +0.000 C 
BRANCH   7   8
ATOM      8  C   UNL     1       8.962  11.286  18.329  0.00  0.00    +0.000 A 
ATOM      9  C   UNL     1       8.022  11.673  17.396  0.00  0.00    +0.000 A 
ATOM     10  N   UNL     1       8.187  13.009  17.152  0.00  0.00    +0.000 N 
ATOM     11  C   UNL     1       9.225  13.507  17.902  0.00  0.00    +0.000 A 
ATOM     12  C   UNL     1       9.748  14.804  17.974  0.00  0.00    +0.000 A 
ATOM     13  C   UNL     1      10.825  15.020  18.839  0.00  0.00    +0.000 A 
ATOM     14  C   UNL     1      11.355  13.982  19.603  0.00  0.00    +0.000 A 
ATOM     15  C   UNL     1      10.816  12.693  19.523  0.00  0.00    +0.000 A 
ATOM     16  C   UNL     1       9.733  12.448  18.654  0.00  0.00    +0.000 A 
ATOM     17  H   UNL     1       7.628  13.557  16.514  0.00  0.00    +0.000 HD
ENDBRANCH   7   8
ENDBRANCH   6   7
ENDBRANCH   5   6
ENDBRANCH   2   5
BRANCH   3  18
ATOM     18  C   UNL     1       6.654   5.835  15.868  0.00  0.00    +0.000 C 
BRANCH  18  19
ATOM     19  C   UNL     1       5.246   6.394  15.664  0.00  0.00    +0.000 C 
BRANCH  19  20
ATOM     20  C   UNL     1       4.377   6.194  16.859  0.00  0.00    +0.000 A 
ATOM     21  C   UNL     1       3.660   7.156  17.594  0.00  0.00    +0.000 A 
ATOM     22  N   UNL     1       2.938   6.620  18.577  0.00  0.00    +0.000 NA
ATOM     23  N   UNL     1       3.201   5.290  18.518  0.00  0.00    +0.000 N 
ATOM     24  C   UNL     1       4.058   5.004  17.476  0.00  0.00    +0.000 A 
BRANCH  23  25
ATOM     25  C   UNL     1       2.627   4.379  19.444  0.00  0.00    +0.000 A 
ATOM     26  C   UNL     1       3.461   3.556  20.217  0.00  0.00    +0.000 A 
ATOM     27  C   UNL     1       2.905   2.647  21.119  0.00  0.00    +0.000 A 
ATOM     28  C   UNL     1       1.521   2.552  21.254  0.00  0.00    +0.000 A 
ATOM     29  C   UNL     1       0.688   3.367  20.493  0.00  0.00    +0.000 A 
ATOM     30  C   UNL     1       1.235   4.282  19.591  0.00  0.00    +0.000 A 
ENDBRANCH  23  25
ENDBRANCH  19  20
ENDBRANCH  18  19
ENDBRANCH   3  18
TORSDOF 8
ENDMDL
MODEL 4
REMARK VINA RESULT:      -7.6      4.366      7.200
REMARK  Name = 
REMARK  8 active torsions:
REMARK  status: ('A' for Active; 'I' for Inactive)
REMARK    1  A    between atoms: C_2  and  C_3
REMARK    2  A    between atoms: C_3  and  C_4
REMARK    3  A    between atoms: C_4  and  C_5
REMARK    4  A    between atoms: C_5  and  C_6
REMARK    5  A    between atoms: N_15  and  C_16
REMARK    6  A    between atoms: C_16  and  C_17
REMARK    7  A    between atoms: C_17  and  C_18
REMARK    8  A    between atoms: N_21  and  C_22
REMARK                            x       y       z     vdW  Elec       q    Type
REMARK                         _______ _______ _______ _____ _____    ______ ____
ROOT
ATOM      1  O   UNL     1       6.190   7.833  17.205  0.00  0.00    +0.000 OA
ATOM      2  C   UNL     1       7.312   7.377  17.380  0.00  0.00    +0.000 C 
ATOM      3  N   UNL     1       7.794   6.283  16.703  0.00  0.00    +0.000 N 
ATOM      4  H   UNL     1       8.782   6.068  16.762  0.00  0.00    +0.000 HD
ENDROOT
BRANCH   2   5
ATOM      5  C   UNL     1       8.310   7.965  18.359  0.00  0.00    +0.000 C 
BRANCH   5   6
ATOM      6  C   UNL     1       8.431   9.478  18.206  0.00  0.00    +0.000 C 
BRANCH   6   7
ATOM      7  C   UNL     1       9.197  10.106  19.376  0.00  0.00    +0.000 C 
BRANCH   7   8
ATOM      8  C   UNL     1       9.966  11.312  18.953  0.00  0.00    +0.000 A 
ATOM      9  C   UNL     1      10.612  11.497  17.748  0.00  0.00    +0.000 A 
ATOM     10  N   UNL     1      11.187  12.739  17.757  0.00  0.00    +0.000 N 
ATOM     11  C   UNL     1      10.937  13.371  18.952  0.00  0.00    +0.000 A 
ATOM     12  C   UNL     1      11.326  14.639  19.402  0.00  0.00    +0.000 A 
ATOM     13  C   UNL     1      10.921  15.023  20.684  0.00  0.00    +0.000 A 
ATOM     14  C   UNL     1      10.154  14.174  21.481  0.00  0.00    +0.000 A 
ATOM     15  C   UNL     1       9.770  12.913  21.012  0.00  0.00    +0.000 A 
ATOM     16  C   UNL     1      10.171  12.500  19.726  0.00  0.00    +0.000 A 
ATOM     17  H   UNL     1      11.719  13.139  16.998  0.00  0.00    +0.000 HD
ENDBRANCH   7   8
ENDBRANCH   6   7
ENDBRANCH   5   6
ENDBRANCH   2   5
BRANCH   3  18
ATOM     18  C   UNL     1       6.988   5.624  15.692  0.00  0.00    +0.000 C 
BRANCH  18  19
ATOM     19  C   UNL     1       6.458   4.268  16.157  0.00  0.00    +0.000 C 
BRANCH  19  20
ATOM     20  C   UNL     1       5.208   4.392  16.961  0.00  0.00    +0.000 A 
ATOM     21  C   UNL     1       4.143   5.297  16.794  0.00  0.00    +0.000 A 
ATOM     22  N   UNL     1       3.154   5.094  17.662  0.00  0.00    +0.000 NA
ATOM     23  N   UNL     1       3.576   4.064  18.437  0.00  0.00    +0.000 N 
ATOM     24  C   UNL     1       4.812   3.611  18.024  0.00  0.00    +0.000 A 
BRANCH  23  25
ATOM     25  C   UNL     1       2.789   3.574  19.514  0.00  0.00    +0.000 A 
ATOM     26  C   UNL     1       1.392   3.700  19.466  0.00  0.00    +0.000 A 
ATOM     27  C   UNL     1       0.611   3.235  20.526  0.00  0.00    +0.000 A 
ATOM     28  C   UNL     1       1.216   2.645  21.635  0.00  0.00    +0.000 A 
ATOM     29  C   UNL     1       2.601   2.513  21.687  0.00  0.00    +0.000 A 
ATOM     30  C   UNL     1       3.389   2.972  20.630  0.00  0.00    +0.000 A 
ENDBRANCH  23  25
ENDBRANCH  19  20
ENDBRANCH  18  19
ENDBRANCH   3  18
TORSDOF 8
ENDMDL
MODEL 5
REMARK VINA RESULT:      -7.6      4.338      6.423
REMARK  Name = 
REMARK  8 active torsions:
REMARK  status: ('A' for Active; 'I' for Inactive)
REMARK    1  A    between atoms: C_2  and  C_3
REMARK    2  A    between atoms: C_3  and  C_4
REMARK    3  A    between atoms: C_4  and  C_5
REMARK    4  A    between atoms: C_5  and  C_6
REMARK    5  A    between atoms: N_15  and  C_16
REMARK    6  A    between atoms: C_16  and  C_17
REMARK    7  A    between atoms: C_17  and  C_18
REMARK    8  A    between atoms: N_21  and  C_22
REMARK                            x       y       z     vdW  Elec       q    Type
REMARK                         _______ _______ _______ _____ _____    ______ ____
ROOT
ATOM      1  O   UNL     1       6.687   7.759  16.979  0.00  0.00    +0.000 OA
ATOM      2  C   UNL     1       7.548   7.289  17.712  0.00  0.00    +0.000 C 
ATOM      3  N   UNL     1       7.735   5.939  17.884  0.00  0.00    +0.000 N 
ATOM      4  H   UNL     1       8.570   5.618  18.359  0.00  0.00    +0.000 HD
ENDROOT
BRANCH   2   5
ATOM      5  C   UNL     1       8.516   8.137  18.515  0.00  0.00    +0.000 C 
BRANCH   5   6
ATOM      6  C   UNL     1       8.500   9.595  18.066  0.00  0.00    +0.000 C 
BRANCH   6   7
ATOM      7  C   UNL     1       9.214  10.505  19.072  0.00  0.00    +0.000 C 
BRANCH   7   8
ATOM      8  C   UNL     1      10.151  11.450  18.398  0.00  0.00    +0.000 A 
ATOM      9  C   UNL     1      11.380  11.143  17.851  0.00  0.00    +0.000 A 
ATOM     10  N   UNL     1      11.912  12.289  17.326  0.00  0.00    +0.000 N 
ATOM     11  C   UNL     1      11.058  13.348  17.525  0.00  0.00    +0.000 A 
ATOM     12  C   UNL     1      11.186  14.694  17.164  0.00  0.00    +0.000 A 
ATOM     13  C   UNL     1      10.141  15.558  17.503  0.00  0.00    +0.000 A 
ATOM     14  C   UNL     1       9.012  15.093  18.174  0.00  0.00    +0.000 A 
ATOM     15  C   UNL     1       8.898  13.743  18.523  0.00  0.00    +0.000 A 
ATOM     16  C   UNL     1       9.940  12.852  18.197  0.00  0.00    +0.000 A 
ATOM     17  H   UNL     1      12.804  12.355  16.857  0.00  0.00    +0.000 HD
ENDBRANCH   7   8
ENDBRANCH   6   7
ENDBRANCH   5   6
ENDBRANCH   2   5
BRANCH   3  18
ATOM     18  C   UNL     1       6.926   4.980  17.154  0.00  0.00    +0.000 C 
BRANCH  18  19
ATOM     19  C   UNL     1       5.919   4.260  18.051  0.00  0.00    +0.000 C 
BRANCH  19  20
ATOM     20  C   UNL     1       4.600   4.954  18.095  0.00  0.00    +0.000 A 
ATOM     21  C   UNL     1       3.371   4.538  17.548  0.00  0.00    +0.000 A 
ATOM     22  N   UNL     1       2.375   5.380  17.821  0.00  0.00    +0.000 NA
ATOM     23  N   UNL     1       2.951   6.383  18.529  0.00  0.00    +0.000 N 
ATOM     24  C   UNL     1       4.296   6.142  18.722  0.00  0.00    +0.000 A 
BRANCH  23  25
ATOM     25  C   UNL     1       2.198   7.501  18.979  0.00  0.00    +0.000 A 
ATOM     26  C   UNL     1       1.850   8.514  18.072  0.00  0.00    +0.000 A 
ATOM     27  C   UNL     1       1.122   9.623  18.508  0.00  0.00    +0.000 A 
ATOM     28  C   UNL     1       0.740   9.729  19.845  0.00  0.00    +0.000 A 
ATOM     29  C   UNL     1       1.079   8.725  20.749  0.00  0.00    +0.000 A 
ATOM     30  C   UNL     1       1.802   7.611  20.320  0.00  0.00    +0.000 A 
ENDBRANCH  23  25
ENDBRANCH  19  20
ENDBRANCH  18  19
ENDBRANCH   3  18
TORSDOF 8
ENDMDL
MODEL 6
REMARK VINA RESULT:      -7.5      2.954      7.896
REMARK  Name = 
REMARK  8 active torsions:
REMARK  status: ('A' for Active; 'I' for Inactive)
REMARK    1  A    between atoms: C_2  and  C_3
REMARK    2  A    between atoms: C_3  and  C_4
REMARK    3  A    between atoms: C_4  and  C_5
REMARK    4  A    between atoms: C_5  and  C_6
REMARK    5  A    between atoms: N_15  and  C_16
REMARK    6  A    between atoms: C_16  and  C_17
REMARK    7  A    between atoms: C_17  and  C_18
REMARK    8  A    between atoms: N_21  and  C_22
REMARK                            x       y       z     vdW  Elec       q    Type
REMARK                         _______ _______ _______ _____ _____    ______ ____
ROOT
ATOM      1  O   UNL     1       4.387   7.398  17.670  0.00  0.00    +0.000 OA
ATOM      2  C   UNL     1       3.248   7.174  18.058  0.00  0.00    +0.000 C 
ATOM      3  N   UNL     1       2.948   6.214  18.995  0.00  0.00    +0.000 N 
ATOM      4  H   UNL     1       2.020   6.200  19.400  0.00  0.00    +0.000 HD
ENDROOT
BRANCH   2   5
ATOM      5  C   UNL     1       2.030   7.928  17.558  0.00  0.00    +0.000 C 
BRANCH   5   6
ATOM      6  C   UNL     1       1.743   9.163  18.405  0.00  0.00    +0.000 C 
BRANCH   6   7
ATOM      7  C   UNL     1       0.373   9.769  18.074  0.00  0.00    +0.000 C 
BRANCH   7   8
ATOM      8  C   UNL     1      -0.098  10.693  19.146  0.00  0.00    +0.000 A 
ATOM      9  C   UNL     1      -0.419  12.028  19.002  0.00  0.00    +0.000 A 
ATOM     10  N   UNL     1      -0.814  12.507  20.221  0.00  0.00    +0.000 N 
ATOM     11  C   UNL     1      -0.750  11.512  21.168  0.00  0.00    +0.000 A 
ATOM     12  C   UNL     1      -1.053  11.544  22.535  0.00  0.00    +0.000 A 
ATOM     13  C   UNL     1      -0.890  10.361  23.261  0.00  0.00    +0.000 A 
ATOM     14  C   UNL     1      -0.447   9.192  22.645  0.00  0.00    +0.000 A 
ATOM     15  C   UNL     1      -0.154   9.177  21.277  0.00  0.00    +0.000 A 
ATOM     16  C   UNL     1      -0.304  10.359  20.523  0.00  0.00    +0.000 A 
ATOM     17  H   UNL     1      -1.111  13.453  20.406  0.00  0.00    +0.000 HD
ENDBRANCH   7   8
ENDBRANCH   6   7
ENDBRANCH   5   6
ENDBRANCH   2   5
BRANCH   3  18
ATOM     18  C   UNL     1       4.000   5.430  19.614  0.00  0.00    +0.000 C 
BRANCH  18  19
ATOM     19  C   UNL     1       4.285   4.132  18.859  0.00  0.00    +0.000 C 
BRANCH  19  20
ATOM     20  C   UNL     1       5.311   4.309  17.791  0.00  0.00    +0.000 A 
ATOM     21  C   UNL     1       6.683   4.590  17.930  0.00  0.00    +0.000 A 
ATOM     22  N   UNL     1       7.321   4.631  16.761  0.00  0.00    +0.000 NA
ATOM     23  N   UNL     1       6.359   4.407  15.831  0.00  0.00    +0.000 N 
ATOM     24  C   UNL     1       5.135   4.194  16.430  0.00  0.00    +0.000 A 
BRANCH  23  25
ATOM     25  C   UNL     1       6.656   4.406  14.442  0.00  0.00    +0.000 A 
ATOM     26  C   UNL     1       6.017   3.487  13.595  0.00  0.00    +0.000 A 
ATOM     27  C   UNL     1       6.314   3.469  12.231  0.00  0.00    +0.000 A 
ATOM     28  C   UNL     1       7.246   4.363  11.705  0.00  0.00    +0.000 A 
ATOM     29  C   UNL     1       7.881   5.280  12.539  0.00  0.00    +0.000 A 
ATOM     30  C   UNL     1       7.587   5.307  13.904  0.00  0.00    +0.000 A 
ENDBRANCH  23  25
ENDBRANCH  19  20
ENDBRANCH  18  19
ENDBRANCH   3  18
TORSDOF 8
ENDMDL
MODEL 7
REMARK VINA RESULT:      -7.5      4.045      6.971
REMARK  Name = 
REMARK  8 active torsions:
REMARK  status: ('A' for Active; 'I' for Inactive)
REMARK    1  A    between atoms: C_2  and  C_3
REMARK    2  A    between atoms: C_3  and  C_4
REMARK    3  A    between atoms: C_4  and  C_5
REMARK    4  A    between atoms: C_5  and  C_6
REMARK    5  A    between atoms: N_15  and  C_16
REMARK    6  A    between atoms: C_16  and  C_17
REMARK    7  A    between atoms: C_17  and  C_18
REMARK    8  A    between atoms: N_21  and  C_22
REMARK                            x       y       z     vdW  Elec       q    Type
REMARK                         _______ _______ _______ _____ _____    ______ ____
ROOT
ATOM      1  O   UNL     1       7.263   6.000  18.720  0.00  0.00    +0.000 OA
ATOM      2  C   UNL     1       7.698   6.932  18.057  0.00  0.00    +0.000 C 
ATOM      3  N   UNL     1       7.474   7.065  16.707  0.00  0.00    +0.000 N 
ATOM      4  H   UNL     1       7.708   7.941  16.257  0.00  0.00    +0.000 HD
ENDROOT
BRANCH   2   5
ATOM      5  C   UNL     1       8.534   8.056  18.640  0.00  0.00    +0.000 C 
BRANCH   5   6
ATOM      6  C   UNL     1       8.246   9.389  17.957  0.00  0.00    +0.000 C 
BRANCH   6   7
ATOM      7  C   UNL     1       9.469  10.314  17.984  0.00  0.00    +0.000 C 
BRANCH   7   8
ATOM      8  C   UNL     1       9.342  11.372  19.027  0.00  0.00    +0.000 A 
ATOM      9  C   UNL     1       9.760  11.290  20.340  0.00  0.00    +0.000 A 
ATOM     10  N   UNL     1       9.466  12.475  20.957  0.00  0.00    +0.000 N 
ATOM     11  C   UNL     1       8.853  13.334  20.075  0.00  0.00    +0.000 A 
ATOM     12  C   UNL     1       8.379  14.637  20.263  0.00  0.00    +0.000 A 
ATOM     13  C   UNL     1       7.790  15.277  19.168  0.00  0.00    +0.000 A 
ATOM     14  C   UNL     1       7.684  14.639  17.934  0.00  0.00    +0.000 A 
ATOM     15  C   UNL     1       8.169  13.338  17.762  0.00  0.00    +0.000 A 
ATOM     16  C   UNL     1       8.761  12.669  18.852  0.00  0.00    +0.000 A 
ATOM     17  H   UNL     1       9.668  12.695  21.921  0.00  0.00    +0.000 HD
ENDBRANCH   7   8
ENDBRANCH   6   7
ENDBRANCH   5   6
ENDBRANCH   2   5
BRANCH   3  18
ATOM     18  C   UNL     1       6.654   6.103  15.995  0.00  0.00    +0.000 C 
BRANCH  18  19
ATOM     19  C   UNL     1       5.240   6.620  15.731  0.00  0.00    +0.000 C 
BRANCH  19  20
ATOM     20  C   UNL     1       4.324   6.385  16.883  0.00  0.00    +0.000 A 
ATOM     21  C   UNL     1       3.590   7.328  17.628  0.00  0.00    +0.000 A 
ATOM     22  N   UNL     1       2.826   6.765  18.562  0.00  0.00    +0.000 NA
ATOM     23  N   UNL     1       3.077   5.435  18.462  0.00  0.00    +0.000 N 
ATOM     24  C   UNL     1       3.970   5.178  17.443  0.00  0.00    +0.000 A 
BRANCH  23  25
ATOM     25  C   UNL     1       2.458   4.496  19.331  0.00  0.00    +0.000 A 
ATOM     26  C   UNL     1       1.724   3.429  18.791  0.00  0.00    +0.000 A 
ATOM     27  C   UNL     1       1.101   2.510  19.637  0.00  0.00    +0.000 A 
ATOM     28  C   UNL     1       1.204   2.650  21.020  0.00  0.00    +0.000 A 
ATOM     29  C   UNL     1       1.934   3.704  21.563  0.00  0.00    +0.000 A 
ATOM     30  C   UNL     1       2.564   4.625  20.724  0.00  0.00    +0.000 A 
ENDBRANCH  23  25
ENDBRANCH  19  20
ENDBRANCH  18  19
ENDBRANCH   3  18
TORSDOF 8
ENDMDL
MODEL 8
REMARK VINA RESULT:      -7.5      2.339      5.107
REMARK  Name = 
REMARK  8 active torsions:
REMARK  status: ('A' for Active; 'I' for Inactive)
REMARK    1  A    between atoms: C_2  and  C_3
REMARK    2  A    between atoms: C_3  and  C_4
REMARK    3  A    between atoms: C_4  and  C_5
REMARK    4  A    between atoms: C_5  and  C_6
REMARK    5  A    between atoms: N_15  and  C_16
REMARK    6  A    between atoms: C_16  and  C_17
REMARK    7  A    between atoms: C_17  and  C_18
REMARK    8  A    between atoms: N_21  and  C_22
REMARK                            x       y       z     vdW  Elec       q    Type
REMARK                         _______ _______ _______ _____ _____    ______ ____
ROOT
ATOM      1  O   UNL     1       5.196   6.029  15.333  0.00  0.00    +0.000 OA
ATOM      2  C   UNL     1       5.713   6.295  16.409  0.00  0.00    +0.000 C 
ATOM      3  N   UNL     1       5.146   7.147  17.326  0.00  0.00    +0.000 N 
ATOM      4  H   UNL     1       5.532   7.185  18.262  0.00  0.00    +0.000 HD
ENDROOT
BRANCH   2   5
ATOM      5  C   UNL     1       7.039   5.716  16.867  0.00  0.00    +0.000 C 
BRANCH   5   6
ATOM      6  C   UNL     1       6.861   4.362  17.545  0.00  0.00    +0.000 C 
BRANCH   6   7
ATOM      7  C   UNL     1       5.908   4.449  18.742  0.00  0.00    +0.000 C 
BRANCH   7   8
ATOM      8  C   UNL     1       4.593   3.805  18.454  0.00  0.00    +0.000 A 
ATOM      9  C   UNL     1       4.301   2.966  17.398  0.00  0.00    +0.000 A 
ATOM     10  N   UNL     1       2.990   2.588  17.503  0.00  0.00    +0.000 N 
ATOM     11  C   UNL     1       2.412   3.170  18.606  0.00  0.00    +0.000 A 
ATOM     12  C   UNL     1       1.106   3.073  19.101  0.00  0.00    +0.000 A 
ATOM     13  C   UNL     1       0.798   3.789  20.261  0.00  0.00    +0.000 A 
ATOM     14  C   UNL     1       1.759   4.569  20.902  0.00  0.00    +0.000 A 
ATOM     15  C   UNL     1       3.061   4.650  20.397  0.00  0.00    +0.000 A 
ATOM     16  C   UNL     1       3.396   3.942  19.225  0.00  0.00    +0.000 A 
ATOM     17  H   UNL     1       2.510   1.969  16.866  0.00  0.00    +0.000 HD
ENDBRANCH   7   8
ENDBRANCH   6   7
ENDBRANCH   5   6
ENDBRANCH   2   5
BRANCH   3  18
ATOM     18  C   UNL     1       3.853   7.755  17.072  0.00  0.00    +0.000 C 
BRANCH  18  19
ATOM     19  C   UNL     1       2.780   7.280  18.050  0.00  0.00    +0.000 C 
BRANCH  19  20
ATOM     20  C   UNL     1       1.936   8.400  18.556  0.00  0.00    +0.000 A 
ATOM     21  C   UNL     1       1.417   9.499  17.845  0.00  0.00    +0.000 A 
ATOM     22  N   UNL     1       0.655  10.288  18.600  0.00  0.00    +0.000 NA
ATOM     23  N   UNL     1       0.691   9.728  19.835  0.00  0.00    +0.000 N 
ATOM     24  C   UNL     1       1.448   8.575  19.832  0.00  0.00    +0.000 A 
BRANCH  23  25
ATOM     25  C   UNL     1       0.009  10.315  20.935  0.00  0.00    +0.000 A 
ATOM     26  C   UNL     1      -0.163   9.579  22.118  0.00  0.00    +0.000 A 
ATOM     27  C   UNL     1      -0.844  10.142  23.199  0.00  0.00    +0.000 A 
ATOM     28  C   UNL     1      -1.358  11.435  23.107  0.00  0.00    +0.000 A 
ATOM     29  C   UNL     1      -1.187  12.171  21.938  0.00  0.00    +0.000 A 
ATOM     30  C   UNL     1      -0.504  11.618  20.854  0.00  0.00    +0.000 A 
ENDBRANCH  23  25
ENDBRANCH  19  20
ENDBRANCH  18  19
ENDBRANCH   3  18
TORSDOF 8
ENDMDL
MODEL 9
REMARK VINA RESULT:      -7.5      5.563      8.661
REMARK  Name = 
REMARK  8 active torsions:
REMARK  status: ('A' for Active; 'I' for Inactive)
REMARK    1  A    between atoms: C_2  and  C_3
REMARK    2  A    between atoms: C_3  and  C_4
REMARK    3  A    between atoms: C_4  and  C_5
REMARK    4  A    between atoms: C_5  and  C_6
REMARK    5  A    between atoms: N_15  and  C_16
REMARK    6  A    between atoms: C_16  and  C_17
REMARK    7  A    between atoms: C_17  and  C_18
REMARK    8  A    between atoms: N_21  and  C_22
REMARK                            x       y       z     vdW  Elec       q    Type
REMARK                         _______ _______ _______ _____ _____    ______ ____
ROOT
ATOM      1  O   UNL     1       7.799   7.436  16.595  0.00  0.00    +0.000 OA
ATOM      2  C   UNL     1       7.849   7.238  17.802  0.00  0.00    +0.000 C 
ATOM      3  N   UNL     1       8.252   8.193  18.705  0.00  0.00    +0.000 N 
ATOM      4  H   UNL     1       8.102   8.025  19.692  0.00  0.00    +0.000 HD
ENDROOT
BRANCH   2   5
ATOM      5  C   UNL     1       7.469   5.920  18.450  0.00  0.00    +0.000 C 
BRANCH   5   6
ATOM      6  C   UNL     1       6.394   5.188  17.654  0.00  0.00    +0.000 C 
BRANCH   6   7
ATOM      7  C   UNL     1       5.692   4.119  18.502  0.00  0.00    +0.000 C 
BRANCH   7   8
ATOM      8  C   UNL     1       4.229   4.385  18.630  0.00  0.00    +0.000 A 
ATOM      9  C   UNL     1       3.472   5.226  17.840  0.00  0.00    +0.000 A 
ATOM     10  N   UNL     1       2.179   5.178  18.283  0.00  0.00    +0.000 N 
ATOM     11  C   UNL     1       2.073   4.327  19.357  0.00  0.00    +0.000 A 
ATOM     12  C   UNL     1       0.956   3.973  20.125  0.00  0.00    +0.000 A 
ATOM     13  C   UNL     1       1.152   3.069  21.173  0.00  0.00    +0.000 A 
ATOM     14  C   UNL     1       2.412   2.537  21.440  0.00  0.00    +0.000 A 
ATOM     15  C   UNL     1       3.515   2.897  20.658  0.00  0.00    +0.000 A 
ATOM     16  C   UNL     1       3.346   3.811  19.599  0.00  0.00    +0.000 A 
ATOM     17  H   UNL     1       1.407   5.692  17.883  0.00  0.00    +0.000 HD
ENDBRANCH   7   8
ENDBRANCH   6   7
ENDBRANCH   5   6
ENDBRANCH   2   5
BRANCH   3  18
ATOM     18  C   UNL     1       8.608   9.528  18.262  0.00  0.00    +0.000 C 
BRANCH  18  19
ATOM     19  C   UNL     1       9.392  10.306  19.318  0.00  0.00    +0.000 C 
BRANCH  19  20
ATOM     20  C   UNL     1       9.958  11.577  18.783  0.00  0.00    +0.000 A 
ATOM     21  C   UNL     1      11.148  11.771  18.056  0.00  0.00    +0.000 A 
ATOM     22  N   UNL     1      11.325  13.038  17.686  0.00  0.00    +0.000 NA
ATOM     23  N   UNL     1      10.259  13.703  18.198  0.00  0.00    +0.000 N 
ATOM     24  C   UNL     1       9.408  12.838  18.855  0.00  0.00    +0.000 A 
BRANCH  23  25
ATOM     25  C   UNL     1      10.111  15.107  18.035  0.00  0.00    +0.000 A 
ATOM     26  C   UNL     1      11.110  15.837  17.372  0.00  0.00    +0.000 A 
ATOM     27  C   UNL     1      10.980  17.219  17.219  0.00  0.00    +0.000 A 
ATOM     28  C   UNL     1       9.861  17.878  17.725  0.00  0.00    +0.000 A 
ATOM     29  C   UNL     1       8.865  17.158  18.381  0.00  0.00    +0.000 A 
ATOM     30  C   UNL     1       8.984  15.776  18.534  0.00  0.00    +0.000 A 
ENDBRANCH  23  25
ENDBRANCH  19  20
ENDBRANCH  18  19
ENDBRANCH   3  18
TORSDOF 8
ENDMDL
