MODEL 1
REMARK VINA RESULT:      -9.6      0.000      0.000
REMARK  Name = 
REMARK  4 active torsions:
REMARK  status: ('A' for Active; 'I' for Inactive)
REMARK    1  A    between atoms: C_2  and  C_24
REMARK    2  A    between atoms: N_3  and  C_4
REMARK    3  A    between atoms: C_4  and  C_5
REMARK    4  A    between atoms: C_7  and  C_8
REMARK                            x       y       z     vdW  Elec       q    Type
REMARK                         _______ _______ _______ _____ _____    ______ ____
ROOT
ATOM      1  C   UNL     1       4.821   5.339  17.648  0.00  0.00    +0.000 A 
ATOM      2  N   UNL     1       4.332   6.495  18.068  0.00  0.00    +0.000 NA
ATOM      3  C   UNL     1       3.051   6.334  18.567  0.00  0.00    +0.000 A 
ATOM      4  C   UNL     1       2.600   5.030  18.581  0.00  0.00    +0.000 A 
ATOM      5  S   UNL     1       3.799   3.984  17.954  0.00  0.00    +0.000 S 
ENDROOT
BRANCH   3   6
ATOM      6  C   UNL     1       2.256   7.474  19.003  0.00  0.00    +0.000 A 
ATOM      7  C   UNL     1       1.815   7.549  20.355  0.00  0.00    +0.000 A 
ATOM      8  C   UNL     1       1.050   8.630  20.821  0.00  0.00    +0.000 A 
ATOM      9  C   UNL     1       0.757   9.613  19.908  0.00  0.00    +0.000 A 
ATOM     10  N   UNL     1       0.026  10.787  20.065  0.00  0.00    +0.000 N 
ATOM     11  C   UNL     1       0.009  11.473  18.838  0.00  0.00    +0.000 A 
ATOM     12  O   UNL     1      -0.537  12.534  18.610  0.00  0.00    +0.000 OA
ATOM     13  N   UNL     1       0.742  10.693  17.933  0.00  0.00    +0.000 N 
ATOM     14  C   UNL     1       1.194   9.557  18.590  0.00  0.00    +0.000 A 
ATOM     15  C   UNL     1       1.945   8.512  18.106  0.00  0.00    +0.000 A 
ATOM     16  H   UNL     1      -0.426  11.120  20.898  0.00  0.00    +0.000 HD
ATOM     17  H   UNL     1       0.890  10.951  16.973  0.00  0.00    +0.000 HD
ENDBRANCH   3   6
BRANCH   1  18
ATOM     18  C   UNL     1       6.134   5.214  16.871  0.00  0.00    +0.000 C 
ATOM     19  C   UNL     1       6.736   6.620  16.630  0.00  0.00    +0.000 C 
ATOM     20  C   UNL     1       7.520   6.955  17.897  0.00  0.00    +0.000 C 
ATOM     21  C   UNL     1       7.844   5.620  18.558  0.00  0.00    +0.000 C 
ATOM     22  C   UNL     1       7.303   4.553  17.618  0.00  0.00    +0.000 C 
BRANCH  18  25
ATOM     23  O   UNL     1       7.693   5.404  14.446  0.00  0.00    +0.000 OA
ATOM     24  C   UNL     1       6.681   4.713  14.477  0.00  0.00    +0.000 C 
ATOM     25  N   UNL     1       5.853   4.590  15.572  0.00  0.00    +0.000 N 
ATOM     26  H   UNL     1       5.214   3.807  15.592  0.00  0.00    +0.000 HD
BRANCH  24  27
ATOM     27  C   UNL     1       6.287   3.950  13.263  0.00  0.00    +0.000 A 
ATOM     28  C   UNL     1       4.927   3.862  12.942  0.00  0.00    +0.000 A 
ATOM     29  C   UNL     1       4.517   3.113  11.838  0.00  0.00    +0.000 A 
ATOM     30  C   UNL     1       5.463   2.446  11.059  0.00  0.00    +0.000 A 
ATOM     31  C   UNL     1       6.818   2.524  11.383  0.00  0.00    +0.000 A 
ATOM     32  C   UNL     1       7.233   3.274  12.485  0.00  0.00    +0.000 A 
ENDBRANCH  24  27
ENDBRANCH  18  25
ENDBRANCH   1  18
TORSDOF 4
ENDMDL
MODEL 2
REMARK VINA RESULT:      -9.5      0.981      1.527
REMARK  Name = 
REMARK  4 active torsions:
REMARK  status: ('A' for Active; 'I' for Inactive)
REMARK    1  A    between atoms: C_2  and  C_24
REMARK    2  A    between atoms: N_3  and  C_4
REMARK    3  A    between atoms: C_4  and  C_5
REMARK    4  A    between atoms: C_7  and  C_8
REMARK                            x       y       z     vdW  Elec       q    Type
REMARK                         _______ _______ _______ _____ _____    ______ ____
ROOT
ATOM      1  C   UNL     1       4.816   5.374  17.630  0.00  0.00    +0.000 A 
ATOM      2  N   UNL     1       4.339   6.542  18.030  0.00  0.00    +0.000 NA
ATOM      3  C   UNL     1       3.051   6.407  18.518  0.00  0.00    +0.000 A 
ATOM      4  C   UNL     1       2.581   5.110  18.545  0.00  0.00    +0.000 A 
ATOM      5  S   UNL     1       3.771   4.038  17.944  0.00  0.00    +0.000 S 
ENDROOT
BRANCH   3   6
ATOM      6  C   UNL     1       2.269   7.565  18.931  0.00  0.00    +0.000 A 
ATOM      7  C   UNL     1       1.927   8.562  17.974  0.00  0.00    +0.000 A 
ATOM      8  C   UNL     1       1.173   9.692  18.326  0.00  0.00    +0.000 A 
ATOM      9  C   UNL     1       0.775   9.781  19.638  0.00  0.00    +0.000 A 
ATOM     10  N   UNL     1       0.034  10.767  20.281  0.00  0.00    +0.000 N 
ATOM     11  C   UNL     1      -0.120  10.406  21.630  0.00  0.00    +0.000 A 
ATOM     12  O   UNL     1      -0.711  11.036  22.485  0.00  0.00    +0.000 OA
ATOM     13  N   UNL     1       0.544   9.183  21.796  0.00  0.00    +0.000 N 
ATOM     14  C   UNL     1       1.092   8.807  20.577  0.00  0.00    +0.000 A 
ATOM     15  C   UNL     1       1.828   7.689  20.261  0.00  0.00    +0.000 A 
ATOM     16  H   UNL     1      -0.344  11.608  19.880  0.00  0.00    +0.000 HD
ATOM     17  H   UNL     1       0.593   8.693  22.672  0.00  0.00    +0.000 HD
ENDBRANCH   3   6
BRANCH   1  18
ATOM     18  C   UNL     1       6.134   5.219  16.868  0.00  0.00    +0.000 C 
ATOM     19  C   UNL     1       6.771   6.612  16.634  0.00  0.00    +0.000 C 
ATOM     20  C   UNL     1       7.548   6.928  17.911  0.00  0.00    +0.000 C 
ATOM     21  C   UNL     1       7.833   5.587  18.575  0.00  0.00    +0.000 C 
ATOM     22  C   UNL     1       7.279   4.532  17.629  0.00  0.00    +0.000 C 
BRANCH  18  25
ATOM     23  O   UNL     1       7.715   5.389  14.456  0.00  0.00    +0.000 OA
ATOM     24  C   UNL     1       6.692   4.714  14.478  0.00  0.00    +0.000 C 
ATOM     25  N   UNL     1       5.854   4.601  15.566  0.00  0.00    +0.000 N 
ATOM     26  H   UNL     1       5.203   3.828  15.580  0.00  0.00    +0.000 HD
BRANCH  24  27
ATOM     27  C   UNL     1       6.296   3.959  13.260  0.00  0.00    +0.000 A 
ATOM     28  C   UNL     1       4.935   3.868  12.943  0.00  0.00    +0.000 A 
ATOM     29  C   UNL     1       4.523   3.127  11.835  0.00  0.00    +0.000 A 
ATOM     30  C   UNL     1       5.469   2.469  11.047  0.00  0.00    +0.000 A 
ATOM     31  C   UNL     1       6.825   2.550  11.367  0.00  0.00    +0.000 A 
ATOM     32  C   UNL     1       7.242   3.293  12.473  0.00  0.00    +0.000 A 
ENDBRANCH  24  27
ENDBRANCH  18  25
ENDBRANCH   1  18
TORSDOF 4
ENDMDL
MODEL 3
REMARK VINA RESULT:      -9.1      4.137      7.417
REMARK  Name = 
REMARK  4 active torsions:
REMARK  status: ('A' for Active; 'I' for Inactive)
REMARK    1  A    between atoms: C_2  and  C_24
REMARK    2  A    between atoms: N_3  and  C_4
REMARK    3  A    between atoms: C_4  and  C_5
REMARK    4  A    between atoms: C_7  and  C_8
REMARK                            x       y       z     vdW  Elec       q    Type
REMARK                         _______ _______ _______ _____ _____    ______ ____
ROOT
ATOM      1  C   UNL     1       6.439   6.745  17.346  0.00  0.00    +0.000 A 
ATOM      2  N   UNL     1       6.823   8.013  17.316  0.00  0.00    +0.000 NA
ATOM      3  C   UNL     1       7.915   8.215  18.142  0.00  0.00    +0.000 A 
ATOM      4  C   UNL     1       8.397   7.072  18.746  0.00  0.00    +0.000 A 
ATOM      5  S   UNL     1       7.464   5.718  18.278  0.00  0.00    +0.000 S 
ENDROOT
BRANCH   3   6
ATOM      6  C   UNL     1       8.467   9.545  18.359  0.00  0.00    +0.000 A 
ATOM      7  C   UNL     1       9.458   9.742  19.362  0.00  0.00    +0.000 A 
ATOM      8  C   UNL     1      10.021  11.004  19.604  0.00  0.00    +0.000 A 
ATOM      9  C   UNL     1       9.572  12.038  18.819  0.00  0.00    +0.000 A 
ATOM     10  N   UNL     1       9.929  13.382  18.823  0.00  0.00    +0.000 N 
ATOM     11  C   UNL     1       9.196  14.045  17.825  0.00  0.00    +0.000 A 
ATOM     12  O   UNL     1       9.254  15.228  17.548  0.00  0.00    +0.000 OA
ATOM     13  N   UNL     1       8.383  13.079  17.216  0.00  0.00    +0.000 N 
ATOM     14  C   UNL     1       8.614  11.855  17.828  0.00  0.00    +0.000 A 
ATOM     15  C   UNL     1       8.047  10.630  17.568  0.00  0.00    +0.000 A 
ATOM     16  H   UNL     1      10.596  13.837  19.422  0.00  0.00    +0.000 HD
ATOM     17  H   UNL     1       7.750  13.283  16.462  0.00  0.00    +0.000 HD
ENDBRANCH   3   6
BRANCH   1  18
ATOM     18  C   UNL     1       5.149   6.242  16.694  0.00  0.00    +0.000 C 
ATOM     19  C   UNL     1       5.249   6.385  15.155  0.00  0.00    +0.000 C 
ATOM     20  C   UNL     1       5.979   5.134  14.672  0.00  0.00    +0.000 C 
ATOM     21  C   UNL     1       5.781   4.083  15.758  0.00  0.00    +0.000 C 
ATOM     22  C   UNL     1       4.882   4.732  16.800  0.00  0.00    +0.000 C 
BRANCH  18  25
ATOM     23  O   UNL     1       3.683   5.952  19.167  0.00  0.00    +0.000 OA
ATOM     24  C   UNL     1       3.414   6.863  18.392  0.00  0.00    +0.000 C 
ATOM     25  N   UNL     1       4.030   7.061  17.175  0.00  0.00    +0.000 N 
ATOM     26  H   UNL     1       3.936   7.970  16.743  0.00  0.00    +0.000 HD
BRANCH  24  27
ATOM     27  C   UNL     1       2.349   7.835  18.758  0.00  0.00    +0.000 A 
ATOM     28  C   UNL     1       1.874   8.707  17.772  0.00  0.00    +0.000 A 
ATOM     29  C   UNL     1       0.910   9.664  18.091  0.00  0.00    +0.000 A 
ATOM     30  C   UNL     1       0.427   9.756  19.397  0.00  0.00    +0.000 A 
ATOM     31  C   UNL     1       0.906   8.894  20.384  0.00  0.00    +0.000 A 
ATOM     32  C   UNL     1       1.868   7.933  20.068  0.00  0.00    +0.000 A 
ENDBRANCH  24  27
ENDBRANCH  18  25
ENDBRANCH   1  18
TORSDOF 4
ENDMDL
MODEL 4
REMARK VINA RESULT:      -8.9      4.284      7.773
REMARK  Name = 
REMARK  4 active torsions:
REMARK  status: ('A' for Active; 'I' for Inactive)
REMARK    1  A    between atoms: C_2  and  C_24
REMARK    2  A    between atoms: N_3  and  C_4
REMARK    3  A    between atoms: C_4  and  C_5
REMARK    4  A    between atoms: C_7  and  C_8
REMARK                            x       y       z     vdW  Elec       q    Type
REMARK                         _______ _______ _______ _____ _____    ______ ____
ROOT
ATOM      1  C   UNL     1       6.438   6.737  17.402  0.00  0.00    +0.000 A 
ATOM      2  N   UNL     1       6.823   7.998  17.277  0.00  0.00    +0.000 NA
ATOM      3  C   UNL     1       7.908   8.264  18.093  0.00  0.00    +0.000 A 
ATOM      4  C   UNL     1       8.385   7.172  18.788  0.00  0.00    +0.000 A 
ATOM      5  S   UNL     1       7.455   5.785  18.419  0.00  0.00    +0.000 S 
ENDROOT
BRANCH   3   6
ATOM      6  C   UNL     1       8.459   9.608  18.210  0.00  0.00    +0.000 A 
ATOM      7  C   UNL     1       7.904  10.667  17.438  0.00  0.00    +0.000 A 
ATOM      8  C   UNL     1       8.400  11.977  17.521  0.00  0.00    +0.000 A 
ATOM      9  C   UNL     1       9.442  12.185  18.391  0.00  0.00    +0.000 A 
ATOM     10  N   UNL     1      10.140  13.352  18.685  0.00  0.00    +0.000 N 
ATOM     11  C   UNL     1      11.120  13.060  19.648  0.00  0.00    +0.000 A 
ATOM     12  O   UNL     1      11.913  13.842  20.136  0.00  0.00    +0.000 OA
ATOM     13  N   UNL     1      11.007  11.692  19.932  0.00  0.00    +0.000 N 
ATOM     14  C   UNL     1       9.984  11.161  19.159  0.00  0.00    +0.000 A 
ATOM     15  C   UNL     1       9.517   9.869  19.100  0.00  0.00    +0.000 A 
ATOM     16  H   UNL     1       9.994  14.267  18.296  0.00  0.00    +0.000 HD
ATOM     17  H   UNL     1      11.594  11.213  20.593  0.00  0.00    +0.000 HD
ENDBRANCH   3   6
BRANCH   1  18
ATOM     18  C   UNL     1       5.154   6.183  16.782  0.00  0.00    +0.000 C 
ATOM     19  C   UNL     1       5.239   6.267  15.237  0.00  0.00    +0.000 C 
ATOM     20  C   UNL     1       5.989   5.011  14.799  0.00  0.00    +0.000 C 
ATOM     21  C   UNL     1       5.819   4.001  15.927  0.00  0.00    +0.000 C 
ATOM     22  C   UNL     1       4.915   4.674  16.949  0.00  0.00    +0.000 C 
BRANCH  18  25
ATOM     23  O   UNL     1       3.718   5.971  19.280  0.00  0.00    +0.000 OA
ATOM     24  C   UNL     1       3.423   6.843  18.470  0.00  0.00    +0.000 C 
ATOM     25  N   UNL     1       4.023   7.000  17.239  0.00  0.00    +0.000 N 
ATOM     26  H   UNL     1       3.906   7.888  16.769  0.00  0.00    +0.000 HD
BRANCH  24  27
ATOM     27  C   UNL     1       2.342   7.807  18.805  0.00  0.00    +0.000 A 
ATOM     28  C   UNL     1       1.871   8.658  17.798  0.00  0.00    +0.000 A 
ATOM     29  C   UNL     1       0.892   9.609  18.089  0.00  0.00    +0.000 A 
ATOM     30  C   UNL     1       0.389   9.717  19.386  0.00  0.00    +0.000 A 
ATOM     31  C   UNL     1       0.864   8.876  20.393  0.00  0.00    +0.000 A 
ATOM     32  C   UNL     1       1.841   7.921  20.107  0.00  0.00    +0.000 A 
ENDBRANCH  24  27
ENDBRANCH  18  25
ENDBRANCH   1  18
TORSDOF 4
ENDMDL
MODEL 5
REMARK VINA RESULT:      -8.4      4.584     10.623
REMARK  Name = 
REMARK  4 active torsions:
REMARK  status: ('A' for Active; 'I' for Inactive)
REMARK    1  A    between atoms: C_2  and  C_24
REMARK    2  A    between atoms: N_3  and  C_4
REMARK    3  A    between atoms: C_4  and  C_5
REMARK    4  A    between atoms: C_7  and  C_8
REMARK                            x       y       z     vdW  Elec       q    Type
REMARK                         _______ _______ _______ _____ _____    ______ ____
ROOT
ATOM      1  C   UNL     1      -0.457  11.528  20.181  0.00  0.00    +0.000 A 
ATOM      2  N   UNL     1       0.171  10.644  19.421  0.00  0.00    +0.000 NA
ATOM      3  C   UNL     1       0.725   9.638  20.193  0.00  0.00    +0.000 A 
ATOM      4  C   UNL     1       0.451   9.733  21.542  0.00  0.00    +0.000 A 
ATOM      5  S   UNL     1      -0.514  11.110  21.853  0.00  0.00    +0.000 S 
ENDROOT
BRANCH   3   6
ATOM      6  C   UNL     1       1.552   8.594  19.602  0.00  0.00    +0.000 A 
ATOM      7  C   UNL     1       2.049   8.754  18.277  0.00  0.00    +0.000 A 
ATOM      8  C   UNL     1       2.851   7.777  17.669  0.00  0.00    +0.000 A 
ATOM      9  C   UNL     1       3.140   6.664  18.421  0.00  0.00    +0.000 A 
ATOM     10  N   UNL     1       3.894   5.540  18.098  0.00  0.00    +0.000 N 
ATOM     11  C   UNL     1       3.903   4.673  19.203  0.00  0.00    +0.000 A 
ATOM     12  O   UNL     1       4.463   3.596  19.274  0.00  0.00    +0.000 OA
ATOM     13  N   UNL     1       3.138   5.289  20.203  0.00  0.00    +0.000 N 
ATOM     14  C   UNL     1       2.671   6.504  19.719  0.00  0.00    +0.000 A 
ATOM     15  C   UNL     1       1.884   7.445  20.341  0.00  0.00    +0.000 A 
ATOM     16  H   UNL     1       4.366   5.348  17.232  0.00  0.00    +0.000 HD
ATOM     17  H   UNL     1       2.977   4.882  21.107  0.00  0.00    +0.000 HD
ENDBRANCH   3   6
BRANCH   1  18
ATOM     18  C   UNL     1      -1.007  12.854  19.650  0.00  0.00    +0.000 C 
ATOM     19  C   UNL     1      -0.553  14.016  20.568  0.00  0.00    +0.000 C 
ATOM     20  C   UNL     1       0.842  14.402  20.083  0.00  0.00    +0.000 C 
ATOM     21  C   UNL     1       0.936  13.921  18.639  0.00  0.00    +0.000 C 
ATOM     22  C   UNL     1      -0.430  13.339  18.311  0.00  0.00    +0.000 C 
BRANCH  18  25
ATOM     23  O   UNL     1      -2.714  11.289  17.923  0.00  0.00    +0.000 OA
ATOM     24  C   UNL     1      -3.201  11.981  18.809  0.00  0.00    +0.000 C 
ATOM     25  N   UNL     1      -2.474  12.790  19.657  0.00  0.00    +0.000 N 
ATOM     26  H   UNL     1      -2.921  13.101  20.508  0.00  0.00    +0.000 HD
BRANCH  24  27
ATOM     27  C   UNL     1      -4.675  11.978  19.005  0.00  0.00    +0.000 A 
ATOM     28  C   UNL     1      -5.492  11.635  17.920  0.00  0.00    +0.000 A 
ATOM     29  C   UNL     1      -6.880  11.668  18.053  0.00  0.00    +0.000 A 
ATOM     30  C   UNL     1      -7.455  12.051  19.266  0.00  0.00    +0.000 A 
ATOM     31  C   UNL     1      -6.643  12.402  20.346  0.00  0.00    +0.000 A 
ATOM     32  C   UNL     1      -5.253  12.368  20.218  0.00  0.00    +0.000 A 
ENDBRANCH  24  27
ENDBRANCH  18  25
ENDBRANCH   1  18
TORSDOF 4
ENDMDL
MODEL 6
REMARK VINA RESULT:      -8.3      4.397      9.964
REMARK  Name = 
REMARK  4 active torsions:
REMARK  status: ('A' for Active; 'I' for Inactive)
REMARK    1  A    between atoms: C_2  and  C_24
REMARK    2  A    between atoms: N_3  and  C_4
REMARK    3  A    between atoms: C_4  and  C_5
REMARK    4  A    between atoms: C_7  and  C_8
REMARK                            x       y       z     vdW  Elec       q    Type
REMARK                         _______ _______ _______ _____ _____    ______ ____
ROOT
ATOM      1  C   UNL     1       0.441  10.613  20.320  0.00  0.00    +0.000 A 
ATOM      2  N   UNL     1       0.985   9.688  19.544  0.00  0.00    +0.000 NA
ATOM      3  C   UNL     1       1.349   8.578  20.284  0.00  0.00    +0.000 A 
ATOM      4  C   UNL     1       1.014   8.644  21.621  0.00  0.00    +0.000 A 
ATOM      5  S   UNL     1       0.231  10.126  21.961  0.00  0.00    +0.000 S 
ENDROOT
BRANCH   3   6
ATOM      6  C   UNL     1       2.058   7.459  19.678  0.00  0.00    +0.000 A 
ATOM      7  C   UNL     1       2.727   7.639  18.434  0.00  0.00    +0.000 A 
ATOM      8  C   UNL     1       3.425   6.591  17.815  0.00  0.00    +0.000 A 
ATOM      9  C   UNL     1       3.436   5.386  18.474  0.00  0.00    +0.000 A 
ATOM     10  N   UNL     1       4.029   4.179  18.117  0.00  0.00    +0.000 N 
ATOM     11  C   UNL     1       3.765   3.234  19.123  0.00  0.00    +0.000 A 
ATOM     12  O   UNL     1       4.129   2.075  19.141  0.00  0.00    +0.000 OA
ATOM     13  N   UNL     1       2.999   3.889  20.098  0.00  0.00    +0.000 N 
ATOM     14  C   UNL     1       2.798   5.203  19.695  0.00  0.00    +0.000 A 
ATOM     15  C   UNL     1       2.108   6.212  20.326  0.00  0.00    +0.000 A 
ATOM     16  H   UNL     1       4.562   3.980  17.289  0.00  0.00    +0.000 HD
ATOM     17  H   UNL     1       2.668   3.443  20.935  0.00  0.00    +0.000 HD
ENDBRANCH   3   6
BRANCH   1  18
ATOM     18  C   UNL     1       0.110  12.027  19.837  0.00  0.00    +0.000 C 
ATOM     19  C   UNL     1       0.593  13.064  20.882  0.00  0.00    +0.000 C 
ATOM     20  C   UNL     1       2.068  13.305  20.569  0.00  0.00    +0.000 C 
ATOM     21  C   UNL     1       2.261  12.908  19.110  0.00  0.00    +0.000 C 
ATOM     22  C   UNL     1       0.880  12.520  18.603  0.00  0.00    +0.000 C 
BRANCH  18  25
ATOM     23  O   UNL     1      -1.545  10.967  17.719  0.00  0.00    +0.000 OA
ATOM     24  C   UNL     1      -2.054  11.571  18.657  0.00  0.00    +0.000 C 
ATOM     25  N   UNL     1      -1.347  12.144  19.692  0.00  0.00    +0.000 N 
ATOM     26  H   UNL     1      -1.854  12.375  20.536  0.00  0.00    +0.000 HD
BRANCH  24  27
ATOM     27  C   UNL     1      -3.533  11.719  18.706  0.00  0.00    +0.000 A 
ATOM     28  C   UNL     1      -4.093  12.476  19.743  0.00  0.00    +0.000 A 
ATOM     29  C   UNL     1      -5.480  12.596  19.848  0.00  0.00    +0.000 A 
ATOM     30  C   UNL     1      -6.307  11.955  18.925  0.00  0.00    +0.000 A 
ATOM     31  C   UNL     1      -5.750  11.192  17.898  0.00  0.00    +0.000 A 
ATOM     32  C   UNL     1      -4.364  11.071  17.786  0.00  0.00    +0.000 A 
ENDBRANCH  24  27
ENDBRANCH  18  25
ENDBRANCH   1  18
TORSDOF 4
ENDMDL
MODEL 7
REMARK VINA RESULT:      -8.2      3.062      9.752
REMARK  Name = 
REMARK  4 active torsions:
REMARK  status: ('A' for Active; 'I' for Inactive)
REMARK    1  A    between atoms: C_2  and  C_24
REMARK    2  A    between atoms: N_3  and  C_4
REMARK    3  A    between atoms: C_4  and  C_5
REMARK    4  A    between atoms: C_7  and  C_8
REMARK                            x       y       z     vdW  Elec       q    Type
REMARK                         _______ _______ _______ _____ _____    ______ ____
ROOT
ATOM      1  C   UNL     1       0.596  10.385  19.910  0.00  0.00    +0.000 A 
ATOM      2  N   UNL     1       1.254   9.645  19.031  0.00  0.00    +0.000 NA
ATOM      3  C   UNL     1       1.630   8.435  19.589  0.00  0.00    +0.000 A 
ATOM      4  C   UNL     1       1.190   8.240  20.882  0.00  0.00    +0.000 A 
ATOM      5  S   UNL     1       0.293   9.595  21.413  0.00  0.00    +0.000 S 
ENDROOT
BRANCH   3   6
ATOM      6  C   UNL     1       2.451   7.482  18.856  0.00  0.00    +0.000 A 
ATOM      7  C   UNL     1       2.392   6.099  19.189  0.00  0.00    +0.000 A 
ATOM      8  C   UNL     1       3.163   5.144  18.508  0.00  0.00    +0.000 A 
ATOM      9  C   UNL     1       3.968   5.611  17.498  0.00  0.00    +0.000 A 
ATOM     10  N   UNL     1       4.836   4.922  16.658  0.00  0.00    +0.000 N 
ATOM     11  C   UNL     1       5.435   5.840  15.779  0.00  0.00    +0.000 A 
ATOM     12  O   UNL     1       6.247   5.588  14.910  0.00  0.00    +0.000 OA
ATOM     13  N   UNL     1       4.916   7.102  16.102  0.00  0.00    +0.000 N 
ATOM     14  C   UNL     1       4.022   6.957  17.155  0.00  0.00    +0.000 A 
ATOM     15  C   UNL     1       3.278   7.914  17.804  0.00  0.00    +0.000 A 
ATOM     16  H   UNL     1       5.028   3.936  16.651  0.00  0.00    +0.000 HD
ATOM     17  H   UNL     1       5.176   7.947  15.625  0.00  0.00    +0.000 HD
ENDBRANCH   3   6
BRANCH   1  18
ATOM     18  C   UNL     1       0.216  11.846  19.662  0.00  0.00    +0.000 C 
ATOM     19  C   UNL     1       0.754  12.731  20.813  0.00  0.00    +0.000 C 
ATOM     20  C   UNL     1       2.202  13.048  20.444  0.00  0.00    +0.000 C 
ATOM     21  C   UNL     1       2.302  12.871  18.934  0.00  0.00    +0.000 C 
ATOM     22  C   UNL     1       0.896  12.530  18.466  0.00  0.00    +0.000 C 
BRANCH  18  25
ATOM     23  O   UNL     1      -1.559  11.122  17.500  0.00  0.00    +0.000 OA
ATOM     24  C   UNL     1      -2.014  11.544  18.557  0.00  0.00    +0.000 C 
ATOM     25  N   UNL     1      -1.249  11.950  19.630  0.00  0.00    +0.000 N 
ATOM     26  H   UNL     1      -1.702  12.021  20.530  0.00  0.00    +0.000 HD
BRANCH  24  27
ATOM     27  C   UNL     1      -3.488  11.645  18.723  0.00  0.00    +0.000 A 
ATOM     28  C   UNL     1      -3.991  12.462  19.744  0.00  0.00    +0.000 A 
ATOM     29  C   UNL     1      -5.367  12.543  19.959  0.00  0.00    +0.000 A 
ATOM     30  C   UNL     1      -6.241  11.803  19.162  0.00  0.00    +0.000 A 
ATOM     31  C   UNL     1      -5.742  10.982  18.150  0.00  0.00    +0.000 A 
ATOM     32  C   UNL     1      -4.366  10.900  17.929  0.00  0.00    +0.000 A 
ENDBRANCH  24  27
ENDBRANCH  18  25
ENDBRANCH   1  18
TORSDOF 4
ENDMDL
MODEL 8
REMARK VINA RESULT:      -8.2      4.684      8.163
REMARK  Name = 
REMARK  4 active torsions:
REMARK  status: ('A' for Active; 'I' for Inactive)
REMARK    1  A    between atoms: C_2  and  C_24
REMARK    2  A    between atoms: N_3  and  C_4
REMARK    3  A    between atoms: C_4  and  C_5
REMARK    4  A    between atoms: C_7  and  C_8
REMARK                            x       y       z     vdW  Elec       q    Type
REMARK                         _______ _______ _______ _____ _____    ______ ____
ROOT
ATOM      1  C   UNL     1      -0.001  10.570  20.935  0.00  0.00    +0.000 A 
ATOM      2  N   UNL     1      -0.600  11.673  21.359  0.00  0.00    +0.000 NA
ATOM      3  C   UNL     1      -1.139  11.486  22.619  0.00  0.00    +0.000 A 
ATOM      4  C   UNL     1      -0.884  10.249  23.175  0.00  0.00    +0.000 A 
ATOM      5  S   UNL     1       0.045   9.298  22.099  0.00  0.00    +0.000 S 
ENDROOT
BRANCH   3   6
ATOM      6  C   UNL     1      -1.935  12.520  23.266  0.00  0.00    +0.000 A 
ATOM      7  C   UNL     1      -3.271  12.234  23.667  0.00  0.00    +0.000 A 
ATOM      8  C   UNL     1      -4.073  13.198  24.296  0.00  0.00    +0.000 A 
ATOM      9  C   UNL     1      -3.500  14.427  24.513  0.00  0.00    +0.000 A 
ATOM     10  N   UNL     1      -4.035  15.570  25.101  0.00  0.00    +0.000 N 
ATOM     11  C   UNL     1      -3.054  16.576  25.099  0.00  0.00    +0.000 A 
ATOM     12  O   UNL     1      -3.175  17.705  25.533  0.00  0.00    +0.000 OA
ATOM     13  N   UNL     1      -1.915  16.025  24.497  0.00  0.00    +0.000 N 
ATOM     14  C   UNL     1      -2.193  14.714  24.138  0.00  0.00    +0.000 A 
ATOM     15  C   UNL     1      -1.384  13.789  23.521  0.00  0.00    +0.000 A 
ATOM     16  H   UNL     1      -4.960  15.691  25.474  0.00  0.00    +0.000 HD
ATOM     17  H   UNL     1      -1.057  16.533  24.365  0.00  0.00    +0.000 HD
ENDBRANCH   3   6
BRANCH   1  18
ATOM     18  C   UNL     1       0.525  10.393  19.509  0.00  0.00    +0.000 C 
ATOM     19  C   UNL     1      -0.663  10.317  18.518  0.00  0.00    +0.000 C 
ATOM     20  C   UNL     1      -1.027  11.766  18.201  0.00  0.00    +0.000 C 
ATOM     21  C   UNL     1       0.219  12.591  18.504  0.00  0.00    +0.000 C 
ATOM     22  C   UNL     1       1.286  11.588  18.914  0.00  0.00    +0.000 C 
BRANCH  18  25
ATOM     23  O   UNL     1       1.975   9.325  17.250  0.00  0.00    +0.000 OA
ATOM     24  C   UNL     1       1.971   8.727  18.320  0.00  0.00    +0.000 C 
ATOM     25  N   UNL     1       1.280   9.136  19.440  0.00  0.00    +0.000 N 
ATOM     26  H   UNL     1       1.550   8.738  20.330  0.00  0.00    +0.000 HD
BRANCH  24  27
ATOM     27  C   UNL     1       2.749   7.466  18.448  0.00  0.00    +0.000 A 
ATOM     28  C   UNL     1       2.493   6.632  19.543  0.00  0.00    +0.000 A 
ATOM     29  C   UNL     1       3.237   5.465  19.722  0.00  0.00    +0.000 A 
ATOM     30  C   UNL     1       4.243   5.135  18.813  0.00  0.00    +0.000 A 
ATOM     31  C   UNL     1       4.507   5.970  17.727  0.00  0.00    +0.000 A 
ATOM     32  C   UNL     1       3.763   7.137  17.542  0.00  0.00    +0.000 A 
ENDBRANCH  24  27
ENDBRANCH  18  25
ENDBRANCH   1  18
TORSDOF 4
ENDMDL
MODEL 9
REMARK VINA RESULT:      -8.2      4.295     10.334
REMARK  Name = 
REMARK  4 active torsions:
REMARK  status: ('A' for Active; 'I' for Inactive)
REMARK    1  A    between atoms: C_2  and  C_24
REMARK    2  A    between atoms: N_3  and  C_4
REMARK    3  A    between atoms: C_4  and  C_5
REMARK    4  A    between atoms: C_7  and  C_8
REMARK                            x       y       z     vdW  Elec       q    Type
REMARK                         _______ _______ _______ _____ _____    ______ ____
ROOT
ATOM      1  C   UNL     1      -0.694  10.791  19.070  0.00  0.00    +0.000 A 
ATOM      2  N   UNL     1       0.072   9.880  18.490  0.00  0.00    +0.000 NA
ATOM      3  C   UNL     1       0.868   9.240  19.423  0.00  0.00    +0.000 A 
ATOM      4  C   UNL     1       0.648   9.630  20.728  0.00  0.00    +0.000 A 
ATOM      5  S   UNL     1      -0.574  10.824  20.791  0.00  0.00    +0.000 S 
ENDROOT
BRANCH   3   6
ATOM      6  C   UNL     1       1.870   8.262  19.024  0.00  0.00    +0.000 A 
ATOM      7  C   UNL     1       2.562   8.424  17.790  0.00  0.00    +0.000 A 
ATOM      8  C   UNL     1       3.537   7.509  17.366  0.00  0.00    +0.000 A 
ATOM      9  C   UNL     1       3.796   6.454  18.207  0.00  0.00    +0.000 A 
ATOM     10  N   UNL     1       4.690   5.397  18.064  0.00  0.00    +0.000 N 
ATOM     11  C   UNL     1       4.594   4.572  19.197  0.00  0.00    +0.000 A 
ATOM     12  O   UNL     1       5.229   3.557  19.409  0.00  0.00    +0.000 OA
ATOM     13  N   UNL     1       3.624   5.145  20.030  0.00  0.00    +0.000 N 
ATOM     14  C   UNL     1       3.136   6.292  19.420  0.00  0.00    +0.000 A 
ATOM     15  C   UNL     1       2.178   7.174  19.861  0.00  0.00    +0.000 A 
ATOM     16  H   UNL     1       5.313   5.223  17.296  0.00  0.00    +0.000 HD
ATOM     17  H   UNL     1       3.354   4.755  20.916  0.00  0.00    +0.000 HD
ENDBRANCH   3   6
BRANCH   1  18
ATOM     18  C   UNL     1      -1.544  11.797  18.290  0.00  0.00    +0.000 C 
ATOM     19  C   UNL     1      -1.905  11.213  16.902  0.00  0.00    +0.000 C 
ATOM     20  C   UNL     1      -3.143  10.348  17.130  0.00  0.00    +0.000 C 
ATOM     21  C   UNL     1      -3.792  10.867  18.407  0.00  0.00    +0.000 C 
ATOM     22  C   UNL     1      -2.955  12.062  18.838  0.00  0.00    +0.000 C 
BRANCH  18  25
ATOM     23  O   UNL     1      -1.348  14.063  20.072  0.00  0.00    +0.000 OA
ATOM     24  C   UNL     1      -0.704  14.040  19.029  0.00  0.00    +0.000 C 
ATOM     25  N   UNL     1      -0.760  13.024  18.099  0.00  0.00    +0.000 N 
ATOM     26  H   UNL     1      -0.010  12.964  17.424  0.00  0.00    +0.000 HD
BRANCH  24  27
ATOM     27  C   UNL     1       0.202  15.176  18.711  0.00  0.00    +0.000 A 
ATOM     28  C   UNL     1      -0.368  16.413  18.387  0.00  0.00    +0.000 A 
ATOM     29  C   UNL     1       0.451  17.488  18.036  0.00  0.00    +0.000 A 
ATOM     30  C   UNL     1       1.836  17.326  18.001  0.00  0.00    +0.000 A 
ATOM     31  C   UNL     1       2.405  16.091  18.314  0.00  0.00    +0.000 A 
ATOM     32  C   UNL     1       1.590  15.013  18.669  0.00  0.00    +0.000 A 
ENDBRANCH  24  27
ENDBRANCH  18  25
ENDBRANCH   1  18
TORSDOF 4
ENDMDL
