MODEL 1
REMARK VINA RESULT:      -9.2      0.000      0.000
REMARK  Name = 
REMARK  4 active torsions:
REMARK  status: ('A' for Active; 'I' for Inactive)
REMARK    1  A    between atoms: C_2  and  C_3
REMARK    2  A    between atoms: C_3  and  C_4
REMARK    3  A    between atoms: C_4  and  N_5
REMARK    4  A    between atoms: N_17  and  C_18
REMARK                            x       y       z     vdW  Elec       q    Type
REMARK                         _______ _______ _______ _____ _____    ______ ____
ROOT
ATOM      1  C   UNL     1       2.545   3.908  20.525  0.00  0.00    +0.000 C 
ENDROOT
BRANCH   1   3
ATOM      2  O   UNL     1       1.551   4.776  18.525  0.00  0.00    +0.000 OA
ATOM      3  C   UNL     1       2.123   5.019  19.581  0.00  0.00    +0.000 C 
ATOM      4  N   UNL     1       2.453   6.274  20.083  0.00  0.00    +0.000 N 
ATOM      5  H   UNL     1       3.025   6.284  20.916  0.00  0.00    +0.000 HD
BRANCH   4   6
ATOM      6  C   UNL     1       2.129   7.540  19.528  0.00  0.00    +0.000 A 
ATOM      7  C   UNL     1       2.518   7.882  18.226  0.00  0.00    +0.000 A 
ATOM      8  C   UNL     1       2.170   9.108  17.664  0.00  0.00    +0.000 A 
ATOM      9  C   UNL     1       1.412  10.015  18.390  0.00  0.00    +0.000 A 
ATOM     10  C   UNL     1       0.995   9.709  19.692  0.00  0.00    +0.000 A 
ATOM     11  C   UNL     1       1.371   8.476  20.285  0.00  0.00    +0.000 A 
ATOM     12  C   UNL     1       0.925   8.177  21.704  0.00  0.00    +0.000 C 
ATOM     13  C   UNL     1       0.515   9.417  22.502  0.00  0.00    +0.000 C 
ATOM     14  C   UNL     1      -0.466  10.255  21.701  0.00  0.00    +0.000 C 
ATOM     15  C   UNL     1       0.206  10.764  20.433  0.00  0.00    +0.000 C 
ENDBRANCH   4   6
ENDBRANCH   1   3
BRANCH   1  16
ATOM     16  C   UNL     1       3.922   3.353  20.172  0.00  0.00    +0.000 C 
BRANCH  16  17
ATOM     17  N   UNL     1       4.172   3.527  18.744  0.00  0.00    +0.000 N 
ATOM     18  C   UNL     1       5.347   4.030  18.244  0.00  0.00    +0.000 C 
ATOM     19  N   UNL     1       6.357   4.372  18.992  0.00  0.00    +0.000 NA
ATOM     20  S   UNL     1       7.586   4.971  18.089  0.00  0.00    +0.000 S 
ATOM     21  O   UNL     1       8.700   4.046  18.090  0.00  0.00    +0.000 OA
ATOM     22  O   UNL     1       7.744   6.389  18.324  0.00  0.00    +0.000 OA
ATOM     23  C   UNL     1       6.780   4.796  16.560  0.00  0.00    +0.000 A 
ATOM     24  C   UNL     1       7.246   5.138  15.308  0.00  0.00    +0.000 A 
ATOM     25  C   UNL     1       6.405   4.867  14.226  0.00  0.00    +0.000 A 
ATOM     26  C   UNL     1       5.151   4.259  14.432  0.00  0.00    +0.000 A 
ATOM     27  C   UNL     1       4.706   3.933  15.722  0.00  0.00    +0.000 A 
ATOM     28  C   UNL     1       5.542   4.229  16.787  0.00  0.00    +0.000 A 
ATOM     29  H   UNL     1       3.367   3.412  18.140  0.00  0.00    +0.000 HD
ENDBRANCH  16  17
ENDBRANCH   1  16
TORSDOF 4
ENDMDL
MODEL 2
REMARK VINA RESULT:      -8.5      3.099      5.383
REMARK  Name = 
REMARK  4 active torsions:
REMARK  status: ('A' for Active; 'I' for Inactive)
REMARK    1  A    between atoms: C_2  and  C_3
REMARK    2  A    between atoms: C_3  and  C_4
REMARK    3  A    between atoms: C_4  and  N_5
REMARK    4  A    between atoms: N_17  and  C_18
REMARK                            x       y       z     vdW  Elec       q    Type
REMARK                         _______ _______ _______ _____ _____    ______ ____
ROOT
ATOM      1  C   UNL     1       2.480   9.526  18.339  0.00  0.00    +0.000 C 
ENDROOT
BRANCH   1   3
ATOM      2  O   UNL     1       0.843   9.045  20.022  0.00  0.00    +0.000 OA
ATOM      3  C   UNL     1       1.156   9.726  19.052  0.00  0.00    +0.000 C 
ATOM      4  N   UNL     1       0.411  10.752  18.476  0.00  0.00    +0.000 N 
ATOM      5  H   UNL     1       0.771  11.132  17.611  0.00  0.00    +0.000 HD
BRANCH   4   6
ATOM      6  C   UNL     1      -0.824  11.285  18.931  0.00  0.00    +0.000 A 
ATOM      7  C   UNL     1      -0.904  12.009  20.127  0.00  0.00    +0.000 A 
ATOM      8  C   UNL     1      -2.106  12.566  20.558  0.00  0.00    +0.000 A 
ATOM      9  C   UNL     1      -3.253  12.421  19.791  0.00  0.00    +0.000 A 
ATOM     10  C   UNL     1      -3.214  11.712  18.583  0.00  0.00    +0.000 A 
ATOM     11  C   UNL     1      -2.001  11.114  18.152  0.00  0.00    +0.000 A 
ATOM     12  C   UNL     1      -1.990  10.333  16.850  0.00  0.00    +0.000 C 
ATOM     13  C   UNL     1      -3.376   9.887  16.381  0.00  0.00    +0.000 C 
ATOM     14  C   UNL     1      -4.340  11.060  16.398  0.00  0.00    +0.000 C 
ATOM     15  C   UNL     1      -4.513  11.565  17.824  0.00  0.00    +0.000 C 
ENDBRANCH   4   6
ENDBRANCH   1   3
BRANCH   1  16
ATOM     16  C   UNL     1       2.552   8.172  17.640  0.00  0.00    +0.000 C 
BRANCH  16  17
ATOM     17  N   UNL     1       2.302   7.105  18.605  0.00  0.00    +0.000 N 
ATOM     18  C   UNL     1       3.083   5.982  18.703  0.00  0.00    +0.000 C 
ATOM     19  N   UNL     1       4.136   5.775  17.966  0.00  0.00    +0.000 NA
ATOM     20  S   UNL     1       4.820   4.325  18.303  0.00  0.00    +0.000 S 
ATOM     21  O   UNL     1       6.093   4.517  18.967  0.00  0.00    +0.000 OA
ATOM     22  O   UNL     1       4.645   3.410  17.197  0.00  0.00    +0.000 OA
ATOM     23  C   UNL     1       3.672   3.871  19.525  0.00  0.00    +0.000 A 
ATOM     24  C   UNL     1       3.625   2.704  20.258  0.00  0.00    +0.000 A 
ATOM     25  C   UNL     1       2.606   2.596  21.207  0.00  0.00    +0.000 A 
ATOM     26  C   UNL     1       1.691   3.651  21.395  0.00  0.00    +0.000 A 
ATOM     27  C   UNL     1       1.764   4.821  20.624  0.00  0.00    +0.000 A 
ATOM     28  C   UNL     1       2.767   4.903  19.671  0.00  0.00    +0.000 A 
ATOM     29  H   UNL     1       1.416   7.156  19.096  0.00  0.00    +0.000 HD
ENDBRANCH  16  17
ENDBRANCH   1  16
TORSDOF 4
ENDMDL
MODEL 3
REMARK VINA RESULT:      -8.5      6.557      8.502
REMARK  Name = 
REMARK  4 active torsions:
REMARK  status: ('A' for Active; 'I' for Inactive)
REMARK    1  A    between atoms: C_2  and  C_3
REMARK    2  A    between atoms: C_3  and  C_4
REMARK    3  A    between atoms: C_4  and  N_5
REMARK    4  A    between atoms: N_17  and  C_18
REMARK                            x       y       z     vdW  Elec       q    Type
REMARK                         _______ _______ _______ _____ _____    ______ ____
ROOT
ATOM      1  C   UNL     1       7.953   9.257  17.819  0.00  0.00    +0.000 C 
ENDROOT
BRANCH   1   3
ATOM      2  O   UNL     1       8.201   7.003  18.597  0.00  0.00    +0.000 OA
ATOM      3  C   UNL     1       7.656   7.769  17.810  0.00  0.00    +0.000 C 
ATOM      4  N   UNL     1       6.714   7.438  16.841  0.00  0.00    +0.000 N 
ATOM      5  H   UNL     1       6.454   8.177  16.202  0.00  0.00    +0.000 HD
BRANCH   4   6
ATOM      6  C   UNL     1       6.121   6.169  16.607  0.00  0.00    +0.000 A 
ATOM      7  C   UNL     1       6.792   5.180  15.877  0.00  0.00    +0.000 A 
ATOM      8  C   UNL     1       6.230   3.920  15.677  0.00  0.00    +0.000 A 
ATOM      9  C   UNL     1       4.988   3.620  16.216  0.00  0.00    +0.000 A 
ATOM     10  C   UNL     1       4.288   4.578  16.961  0.00  0.00    +0.000 A 
ATOM     11  C   UNL     1       4.838   5.874  17.144  0.00  0.00    +0.000 A 
ATOM     12  C   UNL     1       4.050   6.900  17.936  0.00  0.00    +0.000 C 
ATOM     13  C   UNL     1       2.558   6.581  18.059  0.00  0.00    +0.000 C 
ATOM     14  C   UNL     1       2.365   5.149  18.524  0.00  0.00    +0.000 C 
ATOM     15  C   UNL     1       2.924   4.188  17.484  0.00  0.00    +0.000 C 
ENDBRANCH   4   6
ENDBRANCH   1   3
BRANCH   1  16
ATOM     16  C   UNL     1       8.983   9.625  18.882  0.00  0.00    +0.000 C 
BRANCH  16  17
ATOM     17  N   UNL     1       9.850  10.688  18.382  0.00  0.00    +0.000 N 
ATOM     18  C   UNL     1       9.896  11.942  18.936  0.00  0.00    +0.000 C 
ATOM     19  N   UNL     1       9.194  12.294  19.975  0.00  0.00    +0.000 NA
ATOM     20  S   UNL     1       9.450  13.866  20.359  0.00  0.00    +0.000 S 
ATOM     21  O   UNL     1      10.185  13.962  21.603  0.00  0.00    +0.000 OA
ATOM     22  O   UNL     1       8.269  14.655  20.084  0.00  0.00    +0.000 OA
ATOM     23  C   UNL     1      10.578  14.177  19.075  0.00  0.00    +0.000 A 
ATOM     24  C   UNL     1      11.215  15.362  18.769  0.00  0.00    +0.000 A 
ATOM     25  C   UNL     1      12.105  15.339  17.693  0.00  0.00    +0.000 A 
ATOM     26  C   UNL     1      12.332  14.146  16.979  0.00  0.00    +0.000 A 
ATOM     27  C   UNL     1      11.658  12.962  17.313  0.00  0.00    +0.000 A 
ATOM     28  C   UNL     1      10.762  13.005  18.369  0.00  0.00    +0.000 A 
ATOM     29  H   UNL     1      10.301  10.505  17.494  0.00  0.00    +0.000 HD
ENDBRANCH  16  17
ENDBRANCH   1  16
TORSDOF 4
ENDMDL
MODEL 4
REMARK VINA RESULT:      -8.3      3.165      4.956
REMARK  Name = 
REMARK  4 active torsions:
REMARK  status: ('A' for Active; 'I' for Inactive)
REMARK    1  A    between atoms: C_2  and  C_3
REMARK    2  A    between atoms: C_3  and  C_4
REMARK    3  A    between atoms: C_4  and  N_5
REMARK    4  A    between atoms: N_17  and  C_18
REMARK                            x       y       z     vdW  Elec       q    Type
REMARK                         _______ _______ _______ _____ _____    ______ ____
ROOT
ATOM      1  C   UNL     1       1.817   9.178  17.555  0.00  0.00    +0.000 C 
ENDROOT
BRANCH   1   3
ATOM      2  O   UNL     1       1.040   9.165  19.822  0.00  0.00    +0.000 OA
ATOM      3  C   UNL     1       0.945   9.654  18.702  0.00  0.00    +0.000 C 
ATOM      4  N   UNL     1       0.089  10.678  18.308  0.00  0.00    +0.000 N 
ATOM      5  H   UNL     1       0.063  10.880  17.317  0.00  0.00    +0.000 HD
BRANCH   4   6
ATOM      6  C   UNL     1      -0.794  11.431  19.125  0.00  0.00    +0.000 A 
ATOM      7  C   UNL     1      -0.317  12.179  20.209  0.00  0.00    +0.000 A 
ATOM      8  C   UNL     1      -1.174  12.950  20.991  0.00  0.00    +0.000 A 
ATOM      9  C   UNL     1      -2.529  12.999  20.696  0.00  0.00    +0.000 A 
ATOM     10  C   UNL     1      -3.045  12.273  19.615  0.00  0.00    +0.000 A 
ATOM     11  C   UNL     1      -2.185  11.460  18.831  0.00  0.00    +0.000 A 
ATOM     12  C   UNL     1      -2.773  10.667  17.679  0.00  0.00    +0.000 C 
ATOM     13  C   UNL     1      -4.287  10.466  17.769  0.00  0.00    +0.000 C 
ATOM     14  C   UNL     1      -4.977  11.793  18.032  0.00  0.00    +0.000 C 
ATOM     15  C   UNL     1      -4.537  12.346  19.380  0.00  0.00    +0.000 C 
ENDBRANCH   4   6
ENDBRANCH   1   3
BRANCH   1  16
ATOM     16  C   UNL     1       2.947   8.273  18.036  0.00  0.00    +0.000 C 
BRANCH  16  17
ATOM     17  N   UNL     1       2.449   6.911  18.206  0.00  0.00    +0.000 N 
ATOM     18  C   UNL     1       3.257   5.804  18.155  0.00  0.00    +0.000 C 
ATOM     19  N   UNL     1       4.546   5.865  17.979  0.00  0.00    +0.000 NA
ATOM     20  S   UNL     1       5.208   4.367  17.927  0.00  0.00    +0.000 S 
ATOM     21  O   UNL     1       6.010   4.136  19.110  0.00  0.00    +0.000 OA
ATOM     22  O   UNL     1       5.676   4.064  16.592  0.00  0.00    +0.000 OA
ATOM     23  C   UNL     1       3.714   3.508  18.147  0.00  0.00    +0.000 A 
ATOM     24  C   UNL     1       3.514   2.144  18.188  0.00  0.00    +0.000 A 
ATOM     25  C   UNL     1       2.206   1.706  18.407  0.00  0.00    +0.000 A 
ATOM     26  C   UNL     1       1.162   2.635  18.589  0.00  0.00    +0.000 A 
ATOM     27  C   UNL     1       1.403   4.016  18.532  0.00  0.00    +0.000 A 
ATOM     28  C   UNL     1       2.701   4.435  18.292  0.00  0.00    +0.000 A 
ATOM     29  H   UNL     1       1.441   6.809  18.200  0.00  0.00    +0.000 HD
ENDBRANCH  16  17
ENDBRANCH   1  16
TORSDOF 4
ENDMDL
MODEL 5
REMARK VINA RESULT:      -8.2      6.372      7.747
REMARK  Name = 
REMARK  4 active torsions:
REMARK  status: ('A' for Active; 'I' for Inactive)
REMARK    1  A    between atoms: C_2  and  C_3
REMARK    2  A    between atoms: C_3  and  C_4
REMARK    3  A    between atoms: C_4  and  N_5
REMARK    4  A    between atoms: N_17  and  C_18
REMARK                            x       y       z     vdW  Elec       q    Type
REMARK                         _______ _______ _______ _____ _____    ______ ____
ROOT
ATOM      1  C   UNL     1       8.719   9.038  18.674  0.00  0.00    +0.000 C 
ENDROOT
BRANCH   1   3
ATOM      2  O   UNL     1       9.536  10.694  20.202  0.00  0.00    +0.000 OA
ATOM      3  C   UNL     1       9.334  10.378  19.036  0.00  0.00    +0.000 C 
ATOM      4  N   UNL     1       9.629  11.131  17.903  0.00  0.00    +0.000 N 
ATOM      5  H   UNL     1       9.291  10.764  17.024  0.00  0.00    +0.000 HD
BRANCH   4   6
ATOM      6  C   UNL     1      10.297  12.383  17.847  0.00  0.00    +0.000 A 
ATOM      7  C   UNL     1      11.679  12.458  17.631  0.00  0.00    +0.000 A 
ATOM      8  C   UNL     1      12.333  13.684  17.537  0.00  0.00    +0.000 A 
ATOM      9  C   UNL     1      11.613  14.865  17.644  0.00  0.00    +0.000 A 
ATOM     10  C   UNL     1      10.227  14.835  17.850  0.00  0.00    +0.000 A 
ATOM     11  C   UNL     1       9.557  13.590  17.979  0.00  0.00    +0.000 A 
ATOM     12  C   UNL     1       8.059  13.585  18.224  0.00  0.00    +0.000 C 
ATOM     13  C   UNL     1       7.512  14.908  18.762  0.00  0.00    +0.000 C 
ATOM     14  C   UNL     1       8.002  16.065  17.909  0.00  0.00    +0.000 C 
ATOM     15  C   UNL     1       9.519  16.163  17.994  0.00  0.00    +0.000 C 
ENDBRANCH   4   6
ENDBRANCH   1   3
BRANCH   1  16
ATOM     16  C   UNL     1       7.759   9.153  17.494  0.00  0.00    +0.000 C 
BRANCH  16  17
ATOM     17  N   UNL     1       6.630   8.248  17.688  0.00  0.00    +0.000 N 
ATOM     18  C   UNL     1       6.560   7.002  17.119  0.00  0.00    +0.000 C 
ATOM     19  N   UNL     1       7.504   6.498  16.378  0.00  0.00    +0.000 NA
ATOM     20  S   UNL     1       7.093   5.012  15.822  0.00  0.00    +0.000 S 
ATOM     21  O   UNL     1       7.909   3.999  16.458  0.00  0.00    +0.000 OA
ATOM     22  O   UNL     1       6.861   5.049  14.395  0.00  0.00    +0.000 OA
ATOM     23  C   UNL     1       5.535   4.965  16.589  0.00  0.00    +0.000 A 
ATOM     24  C   UNL     1       4.587   3.965  16.532  0.00  0.00    +0.000 A 
ATOM     25  C   UNL     1       3.417   4.162  17.268  0.00  0.00    +0.000 A 
ATOM     26  C   UNL     1       3.245   5.331  18.036  0.00  0.00    +0.000 A 
ATOM     27  C   UNL     1       4.227   6.331  18.063  0.00  0.00    +0.000 A 
ATOM     28  C   UNL     1       5.373   6.131  17.310  0.00  0.00    +0.000 A 
ATOM     29  H   UNL     1       5.815   8.652  18.134  0.00  0.00    +0.000 HD
ENDBRANCH  16  17
ENDBRANCH   1  16
TORSDOF 4
ENDMDL
MODEL 6
REMARK VINA RESULT:      -8.2      2.987      5.085
REMARK  Name = 
REMARK  4 active torsions:
REMARK  status: ('A' for Active; 'I' for Inactive)
REMARK    1  A    between atoms: C_2  and  C_3
REMARK    2  A    between atoms: C_3  and  C_4
REMARK    3  A    between atoms: C_4  and  N_5
REMARK    4  A    between atoms: N_17  and  C_18
REMARK                            x       y       z     vdW  Elec       q    Type
REMARK                         _______ _______ _______ _____ _____    ______ ____
ROOT
ATOM      1  C   UNL     1       2.314   9.549  18.221  0.00  0.00    +0.000 C 
ENDROOT
BRANCH   1   3
ATOM      2  O   UNL     1       0.567   9.163  19.816  0.00  0.00    +0.000 OA
ATOM      3  C   UNL     1       0.884   9.621  18.724  0.00  0.00    +0.000 C 
ATOM      4  N   UNL     1       0.050  10.264  17.814  0.00  0.00    +0.000 N 
ATOM      5  H   UNL     1       0.456  10.477  16.913  0.00  0.00    +0.000 HD
BRANCH   4   6
ATOM      6  C   UNL     1      -1.319  10.602  17.983  0.00  0.00    +0.000 A 
ATOM      7  C   UNL     1      -2.324   9.922  17.283  0.00  0.00    +0.000 A 
ATOM      8  C   UNL     1      -3.670  10.224  17.473  0.00  0.00    +0.000 A 
ATOM      9  C   UNL     1      -4.041  11.206  18.381  0.00  0.00    +0.000 A 
ATOM     10  C   UNL     1      -3.067  11.903  19.108  0.00  0.00    +0.000 A 
ATOM     11  C   UNL     1      -1.691  11.624  18.898  0.00  0.00    +0.000 A 
ATOM     12  C   UNL     1      -0.655  12.408  19.683  0.00  0.00    +0.000 C 
ATOM     13  C   UNL     1      -1.180  13.720  20.270  0.00  0.00    +0.000 C 
ATOM     14  C   UNL     1      -2.480  13.478  21.017  0.00  0.00    +0.000 C 
ATOM     15  C   UNL     1      -3.547  12.984  20.050  0.00  0.00    +0.000 C 
ENDBRANCH   4   6
ENDBRANCH   1   3
BRANCH   1  16
ATOM     16  C   UNL     1       2.632   8.192  17.602  0.00  0.00    +0.000 C 
BRANCH  16  17
ATOM     17  N   UNL     1       2.346   7.131  18.564  0.00  0.00    +0.000 N 
ATOM     18  C   UNL     1       3.110   5.998  18.681  0.00  0.00    +0.000 C 
ATOM     19  N   UNL     1       4.176   5.775  17.968  0.00  0.00    +0.000 NA
ATOM     20  S   UNL     1       4.833   4.316  18.325  0.00  0.00    +0.000 S 
ATOM     21  O   UNL     1       6.093   4.493  19.017  0.00  0.00    +0.000 OA
ATOM     22  O   UNL     1       4.669   3.401  17.217  0.00  0.00    +0.000 OA
ATOM     23  C   UNL     1       3.651   3.881  19.521  0.00  0.00    +0.000 A 
ATOM     24  C   UNL     1       3.572   2.717  20.256  0.00  0.00    +0.000 A 
ATOM     25  C   UNL     1       2.530   2.625  21.182  0.00  0.00    +0.000 A 
ATOM     26  C   UNL     1       1.626   3.693  21.347  0.00  0.00    +0.000 A 
ATOM     27  C   UNL     1       1.733   4.859  20.575  0.00  0.00    +0.000 A 
ATOM     28  C   UNL     1       2.758   4.926  19.645  0.00  0.00    +0.000 A 
ATOM     29  H   UNL     1       1.450   7.195  19.034  0.00  0.00    +0.000 HD
ENDBRANCH  16  17
ENDBRANCH   1  16
TORSDOF 4
ENDMDL
MODEL 7
REMARK VINA RESULT:      -8.1      6.366      8.652
REMARK  Name = 
REMARK  4 active torsions:
REMARK  status: ('A' for Active; 'I' for Inactive)
REMARK    1  A    between atoms: C_2  and  C_3
REMARK    2  A    between atoms: C_3  and  C_4
REMARK    3  A    between atoms: C_4  and  N_5
REMARK    4  A    between atoms: N_17  and  C_18
REMARK                            x       y       z     vdW  Elec       q    Type
REMARK                         _______ _______ _______ _____ _____    ______ ____
ROOT
ATOM      1  C   UNL     1       7.877   9.323  17.862  0.00  0.00    +0.000 C 
ENDROOT
BRANCH   1   3
ATOM      2  O   UNL     1       8.204   7.060  18.578  0.00  0.00    +0.000 OA
ATOM      3  C   UNL     1       7.628   7.827  17.816  0.00  0.00    +0.000 C 
ATOM      4  N   UNL     1       6.688   7.491  16.846  0.00  0.00    +0.000 N 
ATOM      5  H   UNL     1       6.398   8.239  16.230  0.00  0.00    +0.000 HD
BRANCH   4   6
ATOM      6  C   UNL     1       6.135   6.210  16.583  0.00  0.00    +0.000 A 
ATOM      7  C   UNL     1       6.828   5.266  15.814  0.00  0.00    +0.000 A 
ATOM      8  C   UNL     1       6.306   3.995  15.585  0.00  0.00    +0.000 A 
ATOM      9  C   UNL     1       5.083   3.637  16.133  0.00  0.00    +0.000 A 
ATOM     10  C   UNL     1       4.363   4.548  16.916  0.00  0.00    +0.000 A 
ATOM     11  C   UNL     1       4.871   5.856  17.129  0.00  0.00    +0.000 A 
ATOM     12  C   UNL     1       4.061   6.831  17.963  0.00  0.00    +0.000 C 
ATOM     13  C   UNL     1       2.583   6.458  18.098  0.00  0.00    +0.000 C 
ATOM     14  C   UNL     1       2.445   5.007  18.522  0.00  0.00    +0.000 C 
ATOM     15  C   UNL     1       3.021   4.097  17.446  0.00  0.00    +0.000 C 
ENDBRANCH   4   6
ENDBRANCH   1   3
BRANCH   1  16
ATOM     16  C   UNL     1       9.249   9.655  18.440  0.00  0.00    +0.000 C 
BRANCH  16  17
ATOM     17  N   UNL     1       9.105  10.605  19.539  0.00  0.00    +0.000 N 
ATOM     18  C   UNL     1       9.625  11.874  19.508  0.00  0.00    +0.000 C 
ATOM     19  N   UNL     1      10.270  12.359  18.486  0.00  0.00    +0.000 NA
ATOM     20  S   UNL     1      10.793  13.884  18.785  0.00  0.00    +0.000 S 
ATOM     21  O   UNL     1      10.054  14.831  17.976  0.00  0.00    +0.000 OA
ATOM     22  O   UNL     1      12.234  13.912  18.906  0.00  0.00    +0.000 OA
ATOM     23  C   UNL     1      10.147  13.976  20.395  0.00  0.00    +0.000 A 
ATOM     24  C   UNL     1      10.235  15.022  21.290  0.00  0.00    +0.000 A 
ATOM     25  C   UNL     1       9.600  14.853  22.522  0.00  0.00    +0.000 A 
ATOM     26  C   UNL     1       8.897  13.666  22.806  0.00  0.00    +0.000 A 
ATOM     27  C   UNL     1       8.836  12.619  21.875  0.00  0.00    +0.000 A 
ATOM     28  C   UNL     1       9.490  12.792  20.665  0.00  0.00    +0.000 A 
ATOM     29  H   UNL     1       8.740  10.223  20.404  0.00  0.00    +0.000 HD
ENDBRANCH  16  17
ENDBRANCH   1  16
TORSDOF 4
ENDMDL
MODEL 8
REMARK VINA RESULT:      -8.1      2.587      4.614
REMARK  Name = 
REMARK  4 active torsions:
REMARK  status: ('A' for Active; 'I' for Inactive)
REMARK    1  A    between atoms: C_2  and  C_3
REMARK    2  A    between atoms: C_3  and  C_4
REMARK    3  A    between atoms: C_4  and  N_5
REMARK    4  A    between atoms: N_17  and  C_18
REMARK                            x       y       z     vdW  Elec       q    Type
REMARK                         _______ _______ _______ _____ _____    ______ ____
ROOT
ATOM      1  C   UNL     1       1.665   9.176  17.597  0.00  0.00    +0.000 C 
ENDROOT
BRANCH   1   3
ATOM      2  O   UNL     1       1.829  11.149  18.949  0.00  0.00    +0.000 OA
ATOM      3  C   UNL     1       1.344  10.032  18.809  0.00  0.00    +0.000 C 
ATOM      4  N   UNL     1       0.456   9.393  19.669  0.00  0.00    +0.000 N 
ATOM      5  H   UNL     1       0.246   8.428  19.456  0.00  0.00    +0.000 HD
BRANCH   4   6
ATOM      6  C   UNL     1      -0.143   9.921  20.844  0.00  0.00    +0.000 A 
ATOM      7  C   UNL     1       0.220   9.455  22.114  0.00  0.00    +0.000 A 
ATOM      8  C   UNL     1      -0.337   9.996  23.271  0.00  0.00    +0.000 A 
ATOM      9  C   UNL     1      -1.261  11.027  23.181  0.00  0.00    +0.000 A 
ATOM     10  C   UNL     1      -1.643  11.529  21.930  0.00  0.00    +0.000 A 
ATOM     11  C   UNL     1      -1.106  10.963  20.745  0.00  0.00    +0.000 A 
ATOM     12  C   UNL     1      -1.553  11.510  19.402  0.00  0.00    +0.000 C 
ATOM     13  C   UNL     1      -2.868  12.291  19.454  0.00  0.00    +0.000 C 
ATOM     14  C   UNL     1      -2.822  13.323  20.566  0.00  0.00    +0.000 C 
ATOM     15  C   UNL     1      -2.683  12.626  21.912  0.00  0.00    +0.000 C 
ENDBRANCH   4   6
ENDBRANCH   1   3
BRANCH   1  16
ATOM     16  C   UNL     1       2.858   8.260  17.847  0.00  0.00    +0.000 C 
BRANCH  16  17
ATOM     17  N   UNL     1       2.392   6.895  18.075  0.00  0.00    +0.000 N 
ATOM     18  C   UNL     1       3.222   5.803  18.043  0.00  0.00    +0.000 C 
ATOM     19  N   UNL     1       4.505   5.883  17.835  0.00  0.00    +0.000 NA
ATOM     20  S   UNL     1       5.196   4.398  17.819  0.00  0.00    +0.000 S 
ATOM     21  O   UNL     1       6.029   4.224  18.990  0.00  0.00    +0.000 OA
ATOM     22  O   UNL     1       5.640   4.058  16.485  0.00  0.00    +0.000 OA
ATOM     23  C   UNL     1       3.726   3.518  18.104  0.00  0.00    +0.000 A 
ATOM     24  C   UNL     1       3.554   2.152  18.196  0.00  0.00    +0.000 A 
ATOM     25  C   UNL     1       2.261   1.696  18.460  0.00  0.00    +0.000 A 
ATOM     26  C   UNL     1       1.203   2.610  18.635  0.00  0.00    +0.000 A 
ATOM     27  C   UNL     1       1.414   3.993  18.525  0.00  0.00    +0.000 A 
ATOM     28  C   UNL     1       2.698   4.429  18.240  0.00  0.00    +0.000 A 
ATOM     29  H   UNL     1       1.387   6.773  18.097  0.00  0.00    +0.000 HD
ENDBRANCH  16  17
ENDBRANCH   1  16
TORSDOF 4
ENDMDL
MODEL 9
REMARK VINA RESULT:      -8.0      2.844      4.724
REMARK  Name = 
REMARK  4 active torsions:
REMARK  status: ('A' for Active; 'I' for Inactive)
REMARK    1  A    between atoms: C_2  and  C_3
REMARK    2  A    between atoms: C_3  and  C_4
REMARK    3  A    between atoms: C_4  and  N_5
REMARK    4  A    between atoms: N_17  and  C_18
REMARK                            x       y       z     vdW  Elec       q    Type
REMARK                         _______ _______ _______ _____ _____    ______ ____
ROOT
ATOM      1  C   UNL     1       1.413   8.544  17.496  0.00  0.00    +0.000 C 
ENDROOT
BRANCH   1   3
ATOM      2  O   UNL     1      -0.592   9.843  17.696  0.00  0.00    +0.000 OA
ATOM      3  C   UNL     1       0.584   9.706  18.014  0.00  0.00    +0.000 C 
ATOM      4  N   UNL     1       1.321  10.524  18.865  0.00  0.00    +0.000 N 
ATOM      5  H   UNL     1       2.310  10.327  18.926  0.00  0.00    +0.000 HD
BRANCH   4   6
ATOM      6  C   UNL     1       0.855  11.640  19.610  0.00  0.00    +0.000 A 
ATOM      7  C   UNL     1       1.017  12.947  19.134  0.00  0.00    +0.000 A 
ATOM      8  C   UNL     1       0.528  14.042  19.843  0.00  0.00    +0.000 A 
ATOM      9  C   UNL     1      -0.145  13.850  21.041  0.00  0.00    +0.000 A 
ATOM     10  C   UNL     1      -0.337  12.558  21.547  0.00  0.00    +0.000 A 
ATOM     11  C   UNL     1       0.185  11.438  20.848  0.00  0.00    +0.000 A 
ATOM     12  C   UNL     1      -0.017  10.051  21.428  0.00  0.00    +0.000 C 
ATOM     13  C   UNL     1      -0.353  10.043  22.921  0.00  0.00    +0.000 C 
ATOM     14  C   UNL     1      -1.485  11.013  23.210  0.00  0.00    +0.000 C 
ATOM     15  C   UNL     1      -1.046  12.433  22.876  0.00  0.00    +0.000 C 
ENDBRANCH   4   6
ENDBRANCH   1   3
BRANCH   1  16
ATOM     16  C   UNL     1       2.655   8.306  18.348  0.00  0.00    +0.000 C 
BRANCH  16  17
ATOM     17  N   UNL     1       2.447   7.144  19.208  0.00  0.00    +0.000 N 
ATOM     18  C   UNL     1       3.196   5.998  19.115  0.00  0.00    +0.000 C 
ATOM     19  N   UNL     1       4.178   5.850  18.274  0.00  0.00    +0.000 NA
ATOM     20  S   UNL     1       4.838   4.354  18.392  0.00  0.00    +0.000 S 
ATOM     21  O   UNL     1       6.165   4.439  18.964  0.00  0.00    +0.000 OA
ATOM     22  O   UNL     1       4.542   3.574  17.210  0.00  0.00    +0.000 OA
ATOM     23  C   UNL     1       3.777   3.794  19.648  0.00  0.00    +0.000 A 
ATOM     24  C   UNL     1       3.749   2.554  20.250  0.00  0.00    +0.000 A 
ATOM     25  C   UNL     1       2.807   2.365  21.263  0.00  0.00    +0.000 A 
ATOM     26  C   UNL     1       1.947   3.415  21.642  0.00  0.00    +0.000 A 
ATOM     27  C   UNL     1       1.997   4.661  21.001  0.00  0.00    +0.000 A 
ATOM     28  C   UNL     1       2.922   4.826  19.983  0.00  0.00    +0.000 A 
ATOM     29  H   UNL     1       1.606   7.162  19.773  0.00  0.00    +0.000 HD
ENDBRANCH  16  17
ENDBRANCH   1  16
TORSDOF 4
ENDMDL
