MODEL 1
REMARK VINA RESULT:      -8.0      0.000      0.000
REMARK  Name = 
REMARK  0 active torsions:
REMARK  status: ('A' for Active; 'I' for Inactive)
REMARK                            x       y       z     vdW  Elec       q    Type
REMARK                         _______ _______ _______ _____ _____    ______ ____
ROOT
ATOM      1  O   UNL     1       1.807   9.360  17.653  0.00  0.00    +0.000 OA
ATOM      2  C   UNL     1       1.510   9.477  18.834  0.00  0.00    +0.000 C 
ATOM      3  N   UNL     1       1.644   8.490  19.786  0.00  0.00    +0.000 N 
ATOM      4  C   UNL     1       2.042   7.223  19.472  0.00  0.00    +0.000 A 
ATOM      5  N   UNL     1       2.560   6.762  18.359  0.00  0.00    +0.000 NA
ATOM      6  C   UNL     1       2.694   5.392  18.453  0.00  0.00    +0.000 A 
ATOM      7  C   UNL     1       2.307   4.843  19.663  0.00  0.00    +0.000 A 
ATOM      8  S   UNL     1       1.770   6.065  20.716  0.00  0.00    +0.000 S 
ATOM      9  C   UNL     1       2.308   3.383  19.950  0.00  0.00    +0.000 C 
ATOM     10  O   UNL     1       3.122   2.715  18.963  0.00  0.00    +0.000 OA
ATOM     11  C   UNL     1       2.803   3.091  17.609  0.00  0.00    +0.000 C 
ATOM     12  C   UNL     1       3.194   4.557  17.342  0.00  0.00    +0.000 C 
ATOM     13  N   UNL     1       0.912  10.654  19.300  0.00  0.00    +0.000 N 
ATOM     14  C   UNL     1       0.862  11.054  20.696  0.00  0.00    +0.000 C 
ATOM     15  C   UNL     1      -0.524  11.456  21.138  0.00  0.00    +0.000 A 
ATOM     16  C   UNL     1      -0.670  11.930  22.457  0.00  0.00    +0.000 A 
ATOM     17  C   UNL     1      -1.820  12.607  22.843  0.00  0.00    +0.000 A 
ATOM     18  C   UNL     1      -2.831  12.798  21.919  0.00  0.00    +0.000 A 
ATOM     19  C   UNL     1      -2.713  12.269  20.628  0.00  0.00    +0.000 A 
ATOM     20  C   UNL     1      -1.567  11.563  20.182  0.00  0.00    +0.000 A 
ATOM     21  C   UNL     1      -1.315  11.208  18.589  0.00  0.00    +0.000 C 
ATOM     22  C   UNL     1      -1.533   9.850  17.798  0.00  0.00    +0.000 C 
ATOM     23  C   UNL     1      -2.113  10.724  16.636  0.00  0.00    +0.000 C 
ATOM     24  C   UNL     1      -2.628  11.622  17.742  0.00  0.00    +0.000 C 
ATOM     25  C   UNL     1       0.188  11.546  18.353  0.00  0.00    +0.000 C 
ATOM     26  H   UNL     1       1.126   8.552  20.650  0.00  0.00    +0.000 HD
ENDROOT
TORSDOF 0
ENDMDL
MODEL 2
REMARK VINA RESULT:      -7.6      1.110      1.308
REMARK  Name = 
REMARK  0 active torsions:
REMARK  status: ('A' for Active; 'I' for Inactive)
REMARK                            x       y       z     vdW  Elec       q    Type
REMARK                         _______ _______ _______ _____ _____    ______ ____
ROOT
ATOM      1  O   UNL     1       1.286  10.166  17.530  0.00  0.00    +0.000 OA
ATOM      2  C   UNL     1       0.843  10.309  18.661  0.00  0.00    +0.000 C 
ATOM      3  N   UNL     1       1.053   9.441  19.711  0.00  0.00    +0.000 N 
ATOM      4  C   UNL     1       1.714   8.258  19.556  0.00  0.00    +0.000 A 
ATOM      5  N   UNL     1       2.430   7.826  18.546  0.00  0.00    +0.000 NA
ATOM      6  C   UNL     1       2.808   6.521  18.781  0.00  0.00    +0.000 A 
ATOM      7  C   UNL     1       2.399   5.997  19.995  0.00  0.00    +0.000 A 
ATOM      8  S   UNL     1       1.527   7.164  20.872  0.00  0.00    +0.000 S 
ATOM      9  C   UNL     1       2.642   4.591  20.417  0.00  0.00    +0.000 C 
ATOM     10  O   UNL     1       3.671   4.025  19.579  0.00  0.00    +0.000 OA
ATOM     11  C   UNL     1       3.441   4.230  18.172  0.00  0.00    +0.000 C 
ATOM     12  C   UNL     1       3.577   5.720  17.806  0.00  0.00    +0.000 C 
ATOM     13  N   UNL     1      -0.014  11.377  18.955  0.00  0.00    +0.000 N 
ATOM     14  C   UNL     1      -0.294  11.862  20.297  0.00  0.00    +0.000 C 
ATOM     15  C   UNL     1      -1.771  12.015  20.565  0.00  0.00    +0.000 A 
ATOM     16  C   UNL     1      -2.150  12.547  21.814  0.00  0.00    +0.000 A 
ATOM     17  C   UNL     1      -3.442  13.011  22.023  0.00  0.00    +0.000 A 
ATOM     18  C   UNL     1      -4.362  12.931  20.993  0.00  0.00    +0.000 A 
ATOM     19  C   UNL     1      -4.003  12.342  19.775  0.00  0.00    +0.000 A 
ATOM     20  C   UNL     1      -2.703  11.844  19.508  0.00  0.00    +0.000 A 
ATOM     21  C   UNL     1      -2.213  11.428  17.987  0.00  0.00    +0.000 C 
ATOM     22  C   UNL     1      -2.082   9.999  17.310  0.00  0.00    +0.000 C 
ATOM     23  C   UNL     1      -2.682  10.653  16.021  0.00  0.00    +0.000 C 
ATOM     24  C   UNL     1      -3.476  11.512  16.984  0.00  0.00    +0.000 C 
ATOM     25  C   UNL     1      -0.783  12.036  17.863  0.00  0.00    +0.000 C 
ATOM     26  H   UNL     1       0.439   9.464  20.511  0.00  0.00    +0.000 HD
ENDROOT
TORSDOF 0
ENDMDL
MODEL 3
REMARK VINA RESULT:      -7.4      3.881      8.259
REMARK  Name = 
REMARK  0 active torsions:
REMARK  status: ('A' for Active; 'I' for Inactive)
REMARK                            x       y       z     vdW  Elec       q    Type
REMARK                         _______ _______ _______ _____ _____    ______ ____
ROOT
ATOM      1  O   UNL     1      -1.408  12.772  20.907  0.00  0.00    +0.000 OA
ATOM      2  C   UNL     1      -1.146  12.065  19.943  0.00  0.00    +0.000 C 
ATOM      3  N   UNL     1      -2.025  11.748  18.931  0.00  0.00    +0.000 N 
ATOM      4  C   UNL     1      -3.336  12.126  18.959  0.00  0.00    +0.000 A 
ATOM      5  N   UNL     1      -3.942  12.983  19.746  0.00  0.00    +0.000 NA
ATOM      6  C   UNL     1      -5.297  12.956  19.489  0.00  0.00    +0.000 A 
ATOM      7  C   UNL     1      -5.689  12.099  18.476  0.00  0.00    +0.000 A 
ATOM      8  S   UNL     1      -4.334  11.311  17.818  0.00  0.00    +0.000 S 
ATOM      9  C   UNL     1      -7.106  11.870  18.085  0.00  0.00    +0.000 C 
ATOM     10  O   UNL     1      -7.917  12.934  18.625  0.00  0.00    +0.000 OA
ATOM     11  C   UNL     1      -7.681  13.180  20.025  0.00  0.00    +0.000 C 
ATOM     12  C   UNL     1      -6.274  13.764  20.248  0.00  0.00    +0.000 C 
ATOM     13  N   UNL     1       0.101  11.437  19.845  0.00  0.00    +0.000 N 
ATOM     14  C   UNL     1       0.657  10.901  18.614  0.00  0.00    +0.000 C 
ATOM     15  C   UNL     1       1.168   9.490  18.771  0.00  0.00    +0.000 A 
ATOM     16  C   UNL     1       1.793   8.900  17.654  0.00  0.00    +0.000 A 
ATOM     17  C   UNL     1       2.560   7.751  17.796  0.00  0.00    +0.000 A 
ATOM     18  C   UNL     1       2.692   7.180  19.049  0.00  0.00    +0.000 A 
ATOM     19  C   UNL     1       2.017   7.729  20.146  0.00  0.00    +0.000 A 
ATOM     20  C   UNL     1       1.215   8.894  20.058  0.00  0.00    +0.000 A 
ATOM     21  C   UNL     1       0.673   9.694  21.397  0.00  0.00    +0.000 C 
ATOM     22  C   UNL     1      -0.754   9.675  22.091  0.00  0.00    +0.000 C 
ATOM     23  C   UNL     1       0.009   9.650  23.457  0.00  0.00    +0.000 C 
ATOM     24  C   UNL     1       1.048   8.835  22.713  0.00  0.00    +0.000 C 
ATOM     25  C   UNL     1       0.913  11.199  21.070  0.00  0.00    +0.000 C 
ATOM     26  H   UNL     1      -1.844  10.951  18.340  0.00  0.00    +0.000 HD
ENDROOT
TORSDOF 0
ENDMDL
MODEL 4
REMARK VINA RESULT:      -7.4      2.381      8.424
REMARK  Name = 
REMARK  0 active torsions:
REMARK  status: ('A' for Active; 'I' for Inactive)
REMARK                            x       y       z     vdW  Elec       q    Type
REMARK                         _______ _______ _______ _____ _____    ______ ____
ROOT
ATOM      1  O   UNL     1       1.931   6.551  20.497  0.00  0.00    +0.000 OA
ATOM      2  C   UNL     1       2.735   6.870  19.632  0.00  0.00    +0.000 C 
ATOM      3  N   UNL     1       2.740   8.074  18.962  0.00  0.00    +0.000 N 
ATOM      4  C   UNL     1       1.764   9.011  19.138  0.00  0.00    +0.000 A 
ATOM      5  N   UNL     1       0.828   9.080  20.055  0.00  0.00    +0.000 NA
ATOM      6  C   UNL     1      -0.011  10.137  19.768  0.00  0.00    +0.000 A 
ATOM      7  C   UNL     1       0.333  10.878  18.651  0.00  0.00    +0.000 A 
ATOM      8  S   UNL     1       1.743  10.248  17.941  0.00  0.00    +0.000 S 
ATOM      9  C   UNL     1      -0.472  12.016  18.130  0.00  0.00    +0.000 C 
ATOM     10  O   UNL     1      -1.386  12.450  19.159  0.00  0.00    +0.000 OA
ATOM     11  C   UNL     1      -2.131  11.371  19.755  0.00  0.00    +0.000 C 
ATOM     12  C   UNL     1      -1.206  10.455  20.577  0.00  0.00    +0.000 C 
ATOM     13  N   UNL     1       3.700   5.958  19.190  0.00  0.00    +0.000 N 
ATOM     14  C   UNL     1       4.909   6.322  18.471  0.00  0.00    +0.000 C 
ATOM     15  C   UNL     1       5.119   5.495  17.227  0.00  0.00    +0.000 A 
ATOM     16  C   UNL     1       6.301   5.719  16.493  0.00  0.00    +0.000 A 
ATOM     17  C   UNL     1       6.724   4.807  15.535  0.00  0.00    +0.000 A 
ATOM     18  C   UNL     1       5.961   3.678  15.296  0.00  0.00    +0.000 A 
ATOM     19  C   UNL     1       4.753   3.489  15.979  0.00  0.00    +0.000 A 
ATOM     20  C   UNL     1       4.268   4.390  16.961  0.00  0.00    +0.000 A 
ATOM     21  C   UNL     1       3.010   4.012  17.960  0.00  0.00    +0.000 C 
ATOM     22  C   UNL     1       1.484   4.444  17.892  0.00  0.00    +0.000 C 
ATOM     23  C   UNL     1       1.141   2.972  18.298  0.00  0.00    +0.000 C 
ATOM     24  C   UNL     1       2.372   2.601  17.496  0.00  0.00    +0.000 C 
ATOM     25  C   UNL     1       3.477   4.496  19.367  0.00  0.00    +0.000 C 
ATOM     26  H   UNL     1       3.232   8.159  18.085  0.00  0.00    +0.000 HD
ENDROOT
TORSDOF 0
ENDMDL
MODEL 5
REMARK VINA RESULT:      -6.9      3.128      4.783
REMARK  Name = 
REMARK  0 active torsions:
REMARK  status: ('A' for Active; 'I' for Inactive)
REMARK                            x       y       z     vdW  Elec       q    Type
REMARK                         _______ _______ _______ _____ _____    ______ ____
ROOT
ATOM      1  O   UNL     1      -2.106  12.600  18.674  0.00  0.00    +0.000 OA
ATOM      2  C   UNL     1      -2.359  12.432  19.859  0.00  0.00    +0.000 C 
ATOM      3  N   UNL     1      -1.655  11.607  20.710  0.00  0.00    +0.000 N 
ATOM      4  C   UNL     1      -0.642  10.805  20.274  0.00  0.00    +0.000 A 
ATOM      5  N   UNL     1      -0.012  10.804  19.123  0.00  0.00    +0.000 NA
ATOM      6  C   UNL     1       0.859   9.735  19.081  0.00  0.00    +0.000 A 
ATOM      7  C   UNL     1       0.901   8.963  20.229  0.00  0.00    +0.000 A 
ATOM      8  S   UNL     1      -0.167   9.588  21.395  0.00  0.00    +0.000 S 
ATOM      9  C   UNL     1       1.721   7.730  20.370  0.00  0.00    +0.000 C 
ATOM     10  O   UNL     1       2.717   7.711  19.326  0.00  0.00    +0.000 OA
ATOM     11  C   UNL     1       2.176   7.962  18.015  0.00  0.00    +0.000 C 
ATOM     12  C   UNL     1       1.680   9.415  17.896  0.00  0.00    +0.000 C 
ATOM     13  N   UNL     1      -3.482  13.036  20.437  0.00  0.00    +0.000 N 
ATOM     14  C   UNL     1      -3.674  13.221  21.865  0.00  0.00    +0.000 C 
ATOM     15  C   UNL     1      -5.027  12.749  22.338  0.00  0.00    +0.000 A 
ATOM     16  C   UNL     1      -5.343  12.948  23.697  0.00  0.00    +0.000 A 
ATOM     17  C   UNL     1      -6.654  12.840  24.142  0.00  0.00    +0.000 A 
ATOM     18  C   UNL     1      -7.648  12.517  23.237  0.00  0.00    +0.000 A 
ATOM     19  C   UNL     1      -7.324  12.255  21.900  0.00  0.00    +0.000 A 
ATOM     20  C   UNL     1      -6.003  12.342  21.391  0.00  0.00    +0.000 A 
ATOM     21  C   UNL     1      -5.679  12.323  19.773  0.00  0.00    +0.000 C 
ATOM     22  C   UNL     1      -5.152  11.145  18.850  0.00  0.00    +0.000 C 
ATOM     23  C   UNL     1      -6.175  11.647  17.777  0.00  0.00    +0.000 C 
ATOM     24  C   UNL     1      -7.042  12.012  18.964  0.00  0.00    +0.000 C 
ATOM     25  C   UNL     1      -4.624  13.455  19.579  0.00  0.00    +0.000 C 
ATOM     26  H   UNL     1      -2.077  11.298  21.572  0.00  0.00    +0.000 HD
ENDROOT
TORSDOF 0
ENDMDL
MODEL 6
REMARK VINA RESULT:      -6.8      6.697      9.913
REMARK  Name = 
REMARK  0 active torsions:
REMARK  status: ('A' for Active; 'I' for Inactive)
REMARK                            x       y       z     vdW  Elec       q    Type
REMARK                         _______ _______ _______ _____ _____    ______ ____
ROOT
ATOM      1  O   UNL     1       4.326  14.615  23.446  0.00  0.00    +0.000 OA
ATOM      2  C   UNL     1       4.904  14.566  22.369  0.00  0.00    +0.000 C 
ATOM      3  N   UNL     1       4.291  14.390  21.148  0.00  0.00    +0.000 N 
ATOM      4  C   UNL     1       2.953  14.150  21.032  0.00  0.00    +0.000 A 
ATOM      5  N   UNL     1       2.004  14.255  21.931  0.00  0.00    +0.000 NA
ATOM      6  C   UNL     1       0.819  13.793  21.398  0.00  0.00    +0.000 A 
ATOM      7  C   UNL     1       0.886  13.380  20.079  0.00  0.00    +0.000 A 
ATOM      8  S   UNL     1       2.466  13.579  19.483  0.00  0.00    +0.000 S 
ATOM      9  C   UNL     1      -0.258  12.787  19.335  0.00  0.00    +0.000 C 
ATOM     10  O   UNL     1      -1.478  13.083  20.046  0.00  0.00    +0.000 OA
ATOM     11  C   UNL     1      -1.412  12.774  21.451  0.00  0.00    +0.000 C 
ATOM     12  C   UNL     1      -0.436  13.721  22.174  0.00  0.00    +0.000 C 
ATOM     13  N   UNL     1       6.302  14.610  22.314  0.00  0.00    +0.000 N 
ATOM     14  C   UNL     1       7.069  14.934  21.123  0.00  0.00    +0.000 C 
ATOM     15  C   UNL     1       8.168  13.937  20.848  0.00  0.00    +0.000 A 
ATOM     16  C   UNL     1       9.018  14.196  19.754  0.00  0.00    +0.000 A 
ATOM     17  C   UNL     1      10.224  13.521  19.618  0.00  0.00    +0.000 A 
ATOM     18  C   UNL     1      10.576  12.575  20.563  0.00  0.00    +0.000 A 
ATOM     19  C   UNL     1       9.701  12.271  21.613  0.00  0.00    +0.000 A 
ATOM     20  C   UNL     1       8.455  12.921  21.797  0.00  0.00    +0.000 A 
ATOM     21  C   UNL     1       7.577  12.769  23.187  0.00  0.00    +0.000 C 
ATOM     22  C   UNL     1       6.303  11.875  23.498  0.00  0.00    +0.000 C 
ATOM     23  C   UNL     1       6.963  11.576  24.886  0.00  0.00    +0.000 C 
ATOM     24  C   UNL     1       8.276  11.662  24.134  0.00  0.00    +0.000 C 
ATOM     25  C   UNL     1       7.106  14.220  23.506  0.00  0.00    +0.000 C 
ATOM     26  H   UNL     1       4.831  14.076  20.356  0.00  0.00    +0.000 HD
ENDROOT
TORSDOF 0
ENDMDL
MODEL 7
REMARK VINA RESULT:      -6.7      1.646      2.386
REMARK  Name = 
REMARK  0 active torsions:
REMARK  status: ('A' for Active; 'I' for Inactive)
REMARK                            x       y       z     vdW  Elec       q    Type
REMARK                         _______ _______ _______ _____ _____    ______ ____
ROOT
ATOM      1  O   UNL     1       0.293  11.313  18.426  0.00  0.00    +0.000 OA
ATOM      2  C   UNL     1      -0.033  11.259  19.605  0.00  0.00    +0.000 C 
ATOM      3  N   UNL     1       0.365  10.284  20.493  0.00  0.00    +0.000 N 
ATOM      4  C   UNL     1       1.102   9.203  20.106  0.00  0.00    +0.000 A 
ATOM      5  N   UNL     1       1.735   8.984  18.978  0.00  0.00    +0.000 NA
ATOM      6  C   UNL     1       2.245   7.702  18.985  0.00  0.00    +0.000 A 
ATOM      7  C   UNL     1       2.020   6.983  20.146  0.00  0.00    +0.000 A 
ATOM      8  S   UNL     1       1.156   7.930  21.263  0.00  0.00    +0.000 S 
ATOM      9  C   UNL     1       2.426   5.565  20.336  0.00  0.00    +0.000 C 
ATOM     10  O   UNL     1       3.399   5.220  19.328  0.00  0.00    +0.000 OA
ATOM     11  C   UNL     1       2.997   5.587  17.995  0.00  0.00    +0.000 C 
ATOM     12  C   UNL     1       2.965   7.119  17.835  0.00  0.00    +0.000 C 
ATOM     13  N   UNL     1      -0.938  12.188  20.132  0.00  0.00    +0.000 N 
ATOM     14  C   UNL     1      -1.107  12.459  21.550  0.00  0.00    +0.000 C 
ATOM     15  C   UNL     1      -2.552  12.428  21.981  0.00  0.00    +0.000 A 
ATOM     16  C   UNL     1      -2.833  12.749  23.325  0.00  0.00    +0.000 A 
ATOM     17  C   UNL     1      -4.128  13.051  23.725  0.00  0.00    +0.000 A 
ATOM     18  C   UNL     1      -5.147  13.018  22.790  0.00  0.00    +0.000 A 
ATOM     19  C   UNL     1      -4.878  12.635  21.470  0.00  0.00    +0.000 A 
ATOM     20  C   UNL     1      -3.578  12.309  21.008  0.00  0.00    +0.000 A 
ATOM     21  C   UNL     1      -3.228  12.151  19.402  0.00  0.00    +0.000 C 
ATOM     22  C   UNL     1      -3.053  10.845  18.518  0.00  0.00    +0.000 C 
ATOM     23  C   UNL     1      -3.846  11.603  17.401  0.00  0.00    +0.000 C 
ATOM     24  C   UNL     1      -4.598  12.243  18.551  0.00  0.00    +0.000 C 
ATOM     25  C   UNL     1      -1.876  12.908  19.227  0.00  0.00    +0.000 C 
ATOM     26  H   UNL     1      -0.155  10.139  21.345  0.00  0.00    +0.000 HD
ENDROOT
TORSDOF 0
ENDMDL
MODEL 8
REMARK VINA RESULT:      -6.6      4.737      7.467
REMARK  Name = 
REMARK  0 active torsions:
REMARK  status: ('A' for Active; 'I' for Inactive)
REMARK                            x       y       z     vdW  Elec       q    Type
REMARK                         _______ _______ _______ _____ _____    ______ ____
ROOT
ATOM      1  O   UNL     1       0.803  12.617  21.701  0.00  0.00    +0.000 OA
ATOM      2  C   UNL     1       0.710  12.224  20.545  0.00  0.00    +0.000 C 
ATOM      3  N   UNL     1       1.573  12.557  19.524  0.00  0.00    +0.000 N 
ATOM      4  C   UNL     1       2.583  13.459  19.689  0.00  0.00    +0.000 A 
ATOM      5  N   UNL     1       3.066  13.982  20.791  0.00  0.00    +0.000 NA
ATOM      6  C   UNL     1       4.004  14.940  20.467  0.00  0.00    +0.000 A 
ATOM      7  C   UNL     1       4.244  15.097  19.113  0.00  0.00    +0.000 A 
ATOM      8  S   UNL     1       3.282  14.018  18.218  0.00  0.00    +0.000 S 
ATOM      9  C   UNL     1       5.166  16.118  18.547  0.00  0.00    +0.000 C 
ATOM     10  O   UNL     1       6.025  16.604  19.599  0.00  0.00    +0.000 OA
ATOM     11  C   UNL     1       5.311  16.991  20.789  0.00  0.00    +0.000 C 
ATOM     12  C   UNL     1       4.696  15.761  21.482  0.00  0.00    +0.000 C 
ATOM     13  N   UNL     1      -0.376  11.435  20.151  0.00  0.00    +0.000 N 
ATOM     14  C   UNL     1      -0.406  10.616  18.951  0.00  0.00    +0.000 C 
ATOM     15  C   UNL     1      -1.652  10.832  18.128  0.00  0.00    +0.000 A 
ATOM     16  C   UNL     1      -1.814  10.035  16.977  0.00  0.00    +0.000 A 
ATOM     17  C   UNL     1      -3.049   9.941  16.349  0.00  0.00    +0.000 A 
ATOM     18  C   UNL     1      -4.119  10.655  16.857  0.00  0.00    +0.000 A 
ATOM     19  C   UNL     1      -3.941  11.499  17.960  0.00  0.00    +0.000 A 
ATOM     20  C   UNL     1      -2.703  11.640  18.636  0.00  0.00    +0.000 A 
ATOM     21  C   UNL     1      -2.578  12.397  20.097  0.00  0.00    +0.000 C 
ATOM     22  C   UNL     1      -2.079  13.862  20.450  0.00  0.00    +0.000 C 
ATOM     23  C   UNL     1      -3.261  13.921  21.475  0.00  0.00    +0.000 C 
ATOM     24  C   UNL     1      -4.002  13.061  20.472  0.00  0.00    +0.000 C 
ATOM     25  C   UNL     1      -1.644  11.470  20.933  0.00  0.00    +0.000 C 
ATOM     26  H   UNL     1       1.284  12.440  18.565  0.00  0.00    +0.000 HD
ENDROOT
TORSDOF 0
ENDMDL
MODEL 9
REMARK VINA RESULT:      -6.6      7.980     11.253
REMARK  Name = 
REMARK  0 active torsions:
REMARK  status: ('A' for Active; 'I' for Inactive)
REMARK                            x       y       z     vdW  Elec       q    Type
REMARK                         _______ _______ _______ _____ _____    ______ ____
ROOT
ATOM      1  O   UNL     1       6.443  17.282  18.820  0.00  0.00    +0.000 OA
ATOM      2  C   UNL     1       6.573  16.089  18.583  0.00  0.00    +0.000 C 
ATOM      3  N   UNL     1       5.540  15.218  18.312  0.00  0.00    +0.000 N 
ATOM      4  C   UNL     1       4.231  15.596  18.379  0.00  0.00    +0.000 A 
ATOM      5  N   UNL     1       3.712  16.798  18.472  0.00  0.00    +0.000 NA
ATOM      6  C   UNL     1       2.346  16.691  18.633  0.00  0.00    +0.000 A 
ATOM      7  C   UNL     1       1.849  15.400  18.618  0.00  0.00    +0.000 A 
ATOM      8  S   UNL     1       3.113  14.288  18.390  0.00  0.00    +0.000 S 
ATOM      9  C   UNL     1       0.417  15.060  18.841  0.00  0.00    +0.000 C 
ATOM     10  O   UNL     1      -0.377  16.252  18.670  0.00  0.00    +0.000 OA
ATOM     11  C   UNL     1       0.124  17.384  19.407  0.00  0.00    +0.000 C 
ATOM     12  C   UNL     1       1.468  17.863  18.828  0.00  0.00    +0.000 C 
ATOM     13  N   UNL     1       7.834  15.487  18.654  0.00  0.00    +0.000 N 
ATOM     14  C   UNL     1       8.172  14.210  18.047  0.00  0.00    +0.000 C 
ATOM     15  C   UNL     1       8.866  13.274  19.005  0.00  0.00    +0.000 A 
ATOM     16  C   UNL     1       9.301  12.033  18.496  0.00  0.00    +0.000 A 
ATOM     17  C   UNL     1      10.210  11.257  19.204  0.00  0.00    +0.000 A 
ATOM     18  C   UNL     1      10.673  11.709  20.426  0.00  0.00    +0.000 A 
ATOM     19  C   UNL     1      10.190  12.910  20.961  0.00  0.00    +0.000 A 
ATOM     20  C   UNL     1       9.257  13.738  20.288  0.00  0.00    +0.000 A 
ATOM     21  C   UNL     1       8.926  15.277  20.785  0.00  0.00    +0.000 C 
ATOM     22  C   UNL     1       7.693  15.841  21.610  0.00  0.00    +0.000 C 
ATOM     23  C   UNL     1       8.729  16.720  22.387  0.00  0.00    +0.000 C 
ATOM     24  C   UNL     1       9.672  15.550  22.192  0.00  0.00    +0.000 C 
ATOM     25  C   UNL     1       8.913  16.112  19.469  0.00  0.00    +0.000 C 
ATOM     26  H   UNL     1       5.682  14.224  18.411  0.00  0.00    +0.000 HD
ENDROOT
TORSDOF 0
ENDMDL
