MODEL 1
REMARK VINA RESULT:      -9.3      0.000      0.000
REMARK  Name = 
REMARK  4 active torsions:
REMARK  status: ('A' for Active; 'I' for Inactive)
REMARK    1  A    between atoms: C_2  and  C_3
REMARK    2  A    between atoms: C_3  and  C_4
REMARK    3  A    between atoms: N_13  and  C_14
REMARK    4  A    between atoms: C_17  and  C_18
REMARK                            x       y       z     vdW  Elec       q    Type
REMARK                         _______ _______ _______ _____ _____    ______ ____
ROOT
ATOM      1  O   UNL     1       8.274  10.624  17.829  0.00  0.00    +0.000 OA
ATOM      2  C   UNL     1       8.971  10.157  18.723  0.00  0.00    +0.000 C 
ATOM      3  N   UNL     1       8.976   8.834  19.140  0.00  0.00    +0.000 N 
ATOM      4  H   UNL     1       9.453   8.645  20.014  0.00  0.00    +0.000 HD
ENDROOT
BRANCH   3   5
ATOM      5  C   UNL     1       8.238   7.772  18.579  0.00  0.00    +0.000 A 
ATOM      6  C   UNL     1       7.413   7.894  17.455  0.00  0.00    +0.000 A 
ATOM      7  C   UNL     1       6.616   6.820  17.032  0.00  0.00    +0.000 A 
ATOM      8  C   UNL     1       6.650   5.595  17.711  0.00  0.00    +0.000 A 
ATOM      9  C   UNL     1       7.601   5.436  18.722  0.00  0.00    +0.000 A 
ATOM     10  C   UNL     1       8.349   6.521  19.183  0.00  0.00    +0.000 A 
BRANCH   8  11
ATOM     11  C   UNL     1       5.696   4.509  17.302  0.00  0.00    +0.000 C 
ATOM     12  O   UNL     1       5.824   4.058  16.162  0.00  0.00    +0.000 OA
ATOM     13  N   UNL     1       4.682   4.061  18.175  0.00  0.00    +0.000 N 
ATOM     14  C   UNL     1       3.891   2.903  17.753  0.00  0.00    +0.000 C 
ATOM     15  C   UNL     1       2.540   3.293  17.153  0.00  0.00    +0.000 C 
ATOM     16  C   UNL     1       1.476   3.685  18.178  0.00  0.00    +0.000 C 
ATOM     17  C   UNL     1       1.857   4.857  19.074  0.00  0.00    +0.000 C 
ATOM     18  C   UNL     1       2.972   4.491  20.041  0.00  0.00    +0.000 C 
ATOM     19  C   UNL     1       4.368   4.681  19.458  0.00  0.00    +0.000 C 
ENDBRANCH   8  11
ENDBRANCH   3   5
BRANCH   2  20
ATOM     20  C   UNL     1       9.992  11.021  19.444  0.00  0.00    +0.000 C 
BRANCH  20  21
ATOM     21  C   UNL     1      10.720  11.990  18.564  0.00  0.00    +0.000 A 
ATOM     22  C   UNL     1      11.799  11.695  17.750  0.00  0.00    +0.000 A 
ATOM     23  N   UNL     1      12.119  12.815  17.030  0.00  0.00    +0.000 N 
ATOM     24  C   UNL     1      11.279  13.850  17.362  0.00  0.00    +0.000 A 
ATOM     25  C   UNL     1      11.227  15.160  16.869  0.00  0.00    +0.000 A 
ATOM     26  C   UNL     1      10.242  16.008  17.381  0.00  0.00    +0.000 A 
ATOM     27  C   UNL     1       9.346  15.560  18.347  0.00  0.00    +0.000 A 
ATOM     28  C   UNL     1       9.406  14.245  18.828  0.00  0.00    +0.000 A 
ATOM     29  C   UNL     1      10.393  13.367  18.329  0.00  0.00    +0.000 A 
ATOM     30  H   UNL     1      12.845  12.874  16.329  0.00  0.00    +0.000 HD
ENDBRANCH  20  21
ENDBRANCH   2  20
TORSDOF 4
ENDMDL
MODEL 2
REMARK VINA RESULT:      -9.2      6.311      9.217
REMARK  Name = 
REMARK  4 active torsions:
REMARK  status: ('A' for Active; 'I' for Inactive)
REMARK    1  A    between atoms: C_2  and  C_3
REMARK    2  A    between atoms: C_3  and  C_4
REMARK    3  A    between atoms: N_13  and  C_14
REMARK    4  A    between atoms: C_17  and  C_18
REMARK                            x       y       z     vdW  Elec       q    Type
REMARK                         _______ _______ _______ _____ _____    ______ ____
ROOT
ATOM      1  O   UNL     1       1.634   4.539  19.817  0.00  0.00    +0.000 OA
ATOM      2  C   UNL     1       2.695   4.782  19.253  0.00  0.00    +0.000 C 
ATOM      3  N   UNL     1       3.114   6.029  18.814  0.00  0.00    +0.000 N 
ATOM      4  H   UNL     1       3.914   6.036  18.193  0.00  0.00    +0.000 HD
ENDROOT
BRANCH   3   5
ATOM      5  C   UNL     1       2.438   7.253  18.991  0.00  0.00    +0.000 A 
ATOM      6  C   UNL     1       1.869   7.671  20.199  0.00  0.00    +0.000 A 
ATOM      7  C   UNL     1       1.107   8.848  20.262  0.00  0.00    +0.000 A 
ATOM      8  C   UNL     1       0.923   9.641  19.123  0.00  0.00    +0.000 A 
ATOM      9  C   UNL     1       1.637   9.303  17.970  0.00  0.00    +0.000 A 
ATOM     10  C   UNL     1       2.345   8.102  17.889  0.00  0.00    +0.000 A 
BRANCH   8  11
ATOM     11  C   UNL     1       0.004  10.827  19.202  0.00  0.00    +0.000 C 
ATOM     12  O   UNL     1       0.204  11.623  20.122  0.00  0.00    +0.000 OA
ATOM     13  N   UNL     1      -1.055  10.993  18.284  0.00  0.00    +0.000 N 
ATOM     14  C   UNL     1      -1.809  12.246  18.343  0.00  0.00    +0.000 C 
ATOM     15  C   UNL     1      -3.127  12.112  19.107  0.00  0.00    +0.000 C 
ATOM     16  C   UNL     1      -4.252  11.435  18.326  0.00  0.00    +0.000 C 
ATOM     17  C   UNL     1      -3.934  10.024  17.846  0.00  0.00    +0.000 C 
ATOM     18  C   UNL     1      -2.874  10.022  16.755  0.00  0.00    +0.000 C 
ATOM     19  C   UNL     1      -1.448   9.995  17.294  0.00  0.00    +0.000 C 
ENDBRANCH   8  11
ENDBRANCH   3   5
BRANCH   2  20
ATOM     20  C   UNL     1       3.726   3.687  19.033  0.00  0.00    +0.000 C 
BRANCH  20  21
ATOM     21  C   UNL     1       5.039   4.166  18.496  0.00  0.00    +0.000 A 
ATOM     22  C   UNL     1       6.160   4.472  19.248  0.00  0.00    +0.000 A 
ATOM     23  N   UNL     1       7.186   4.775  18.393  0.00  0.00    +0.000 N 
ATOM     24  C   UNL     1       6.762   4.686  17.089  0.00  0.00    +0.000 A 
ATOM     25  C   UNL     1       7.469   4.889  15.898  0.00  0.00    +0.000 A 
ATOM     26  C   UNL     1       6.781   4.709  14.696  0.00  0.00    +0.000 A 
ATOM     27  C   UNL     1       5.438   4.341  14.690  0.00  0.00    +0.000 A 
ATOM     28  C   UNL     1       4.744   4.137  15.891  0.00  0.00    +0.000 A 
ATOM     29  C   UNL     1       5.416   4.313  17.119  0.00  0.00    +0.000 A 
ATOM     30  H   UNL     1       8.132   5.000  18.670  0.00  0.00    +0.000 HD
ENDBRANCH  20  21
ENDBRANCH   2  20
TORSDOF 4
ENDMDL
MODEL 3
REMARK VINA RESULT:      -9.1      6.088      9.445
REMARK  Name = 
REMARK  4 active torsions:
REMARK  status: ('A' for Active; 'I' for Inactive)
REMARK    1  A    between atoms: C_2  and  C_3
REMARK    2  A    between atoms: C_3  and  C_4
REMARK    3  A    between atoms: N_13  and  C_14
REMARK    4  A    between atoms: C_17  and  C_18
REMARK                            x       y       z     vdW  Elec       q    Type
REMARK                         _______ _______ _______ _____ _____    ______ ____
ROOT
ATOM      1  O   UNL     1       1.150   4.620  20.578  0.00  0.00    +0.000 OA
ATOM      2  C   UNL     1       2.305   4.866  20.245  0.00  0.00    +0.000 C 
ATOM      3  N   UNL     1       2.801   6.115  19.903  0.00  0.00    +0.000 N 
ATOM      4  H   UNL     1       3.713   6.125  19.460  0.00  0.00    +0.000 HD
ENDROOT
BRANCH   3   5
ATOM      5  C   UNL     1       2.101   7.338  19.938  0.00  0.00    +0.000 A 
ATOM      6  C   UNL     1       1.384   7.802  21.047  0.00  0.00    +0.000 A 
ATOM      7  C   UNL     1       0.612   8.971  20.962  0.00  0.00    +0.000 A 
ATOM      8  C   UNL     1       0.565   9.710  19.772  0.00  0.00    +0.000 A 
ATOM      9  C   UNL     1       1.418   9.328  18.733  0.00  0.00    +0.000 A 
ATOM     10  C   UNL     1       2.138   8.135  18.796  0.00  0.00    +0.000 A 
BRANCH   8  11
ATOM     11  C   UNL     1      -0.365  10.887  19.683  0.00  0.00    +0.000 C 
ATOM     12  O   UNL     1      -0.328  11.695  20.613  0.00  0.00    +0.000 OA
ATOM     13  N   UNL     1      -1.258  11.031  18.600  0.00  0.00    +0.000 N 
ATOM     14  C   UNL     1      -2.023  12.276  18.517  0.00  0.00    +0.000 C 
ATOM     15  C   UNL     1      -3.448  12.136  19.053  0.00  0.00    +0.000 C 
ATOM     16  C   UNL     1      -4.422  11.439  18.104  0.00  0.00    +0.000 C 
ATOM     17  C   UNL     1      -4.016  10.026  17.701  0.00  0.00    +0.000 C 
ATOM     18  C   UNL     1      -2.789  10.024  16.803  0.00  0.00    +0.000 C 
ATOM     19  C   UNL     1      -1.473  10.018  17.571  0.00  0.00    +0.000 C 
ENDBRANCH   8  11
ENDBRANCH   3   5
BRANCH   2  20
ATOM     20  C   UNL     1       3.361   3.774  20.240  0.00  0.00    +0.000 C 
BRANCH  20  21
ATOM     21  C   UNL     1       4.164   3.688  18.978  0.00  0.00    +0.000 A 
ATOM     22  C   UNL     1       3.833   2.953  17.854  0.00  0.00    +0.000 A 
ATOM     23  N   UNL     1       4.759   3.210  16.878  0.00  0.00    +0.000 N 
ATOM     24  C   UNL     1       5.703   4.095  17.341  0.00  0.00    +0.000 A 
ATOM     25  C   UNL     1       6.812   4.648  16.689  0.00  0.00    +0.000 A 
ATOM     26  C   UNL     1       7.603   5.549  17.404  0.00  0.00    +0.000 A 
ATOM     27  C   UNL     1       7.294   5.882  18.721  0.00  0.00    +0.000 A 
ATOM     28  C   UNL     1       6.178   5.323  19.359  0.00  0.00    +0.000 A 
ATOM     29  C   UNL     1       5.362   4.409  18.659  0.00  0.00    +0.000 A 
ATOM     30  H   UNL     1       4.741   2.835  15.940  0.00  0.00    +0.000 HD
ENDBRANCH  20  21
ENDBRANCH   2  20
TORSDOF 4
ENDMDL
MODEL 4
REMARK VINA RESULT:      -9.1      7.133     10.718
REMARK  Name = 
REMARK  4 active torsions:
REMARK  status: ('A' for Active; 'I' for Inactive)
REMARK    1  A    between atoms: C_2  and  C_3
REMARK    2  A    between atoms: C_3  and  C_4
REMARK    3  A    between atoms: N_13  and  C_14
REMARK    4  A    between atoms: C_17  and  C_18
REMARK                            x       y       z     vdW  Elec       q    Type
REMARK                         _______ _______ _______ _____ _____    ______ ____
ROOT
ATOM      1  O   UNL     1      -2.063   9.511  18.291  0.00  0.00    +0.000 OA
ATOM      2  C   UNL     1      -1.474  10.548  18.575  0.00  0.00    +0.000 C 
ATOM      3  N   UNL     1      -0.131  10.653  18.904  0.00  0.00    +0.000 N 
ATOM      4  H   UNL     1       0.161  11.536  19.306  0.00  0.00    +0.000 HD
ENDROOT
BRANCH   3   5
ATOM      5  C   UNL     1       0.818   9.610  18.910  0.00  0.00    +0.000 A 
ATOM      6  C   UNL     1       1.568   9.221  17.794  0.00  0.00    +0.000 A 
ATOM      7  C   UNL     1       2.402   8.095  17.849  0.00  0.00    +0.000 A 
ATOM      8  C   UNL     1       2.522   7.353  19.031  0.00  0.00    +0.000 A 
ATOM      9  C   UNL     1       1.903   7.852  20.180  0.00  0.00    +0.000 A 
ATOM     10  C   UNL     1       1.026   8.936  20.112  0.00  0.00    +0.000 A 
BRANCH   8  11
ATOM     11  C   UNL     1       3.331   6.087  19.017  0.00  0.00    +0.000 C 
ATOM     12  O   UNL     1       4.427   6.134  18.455  0.00  0.00    +0.000 OA
ATOM     13  N   UNL     1       2.835   4.897  19.591  0.00  0.00    +0.000 N 
ATOM     14  C   UNL     1       3.744   3.751  19.662  0.00  0.00    +0.000 C 
ATOM     15  C   UNL     1       3.516   2.740  18.538  0.00  0.00    +0.000 C 
ATOM     16  C   UNL     1       2.304   1.830  18.735  0.00  0.00    +0.000 C 
ATOM     17  C   UNL     1       0.975   2.562  18.877  0.00  0.00    +0.000 C 
ATOM     18  C   UNL     1       0.889   3.332  20.186  0.00  0.00    +0.000 C 
ATOM     19  C   UNL     1       1.478   4.735  20.105  0.00  0.00    +0.000 C 
ENDBRANCH   8  11
ENDBRANCH   3   5
BRANCH   2  20
ATOM     20  C   UNL     1      -2.190  11.887  18.523  0.00  0.00    +0.000 C 
BRANCH  20  21
ATOM     21  C   UNL     1      -3.614  11.815  18.068  0.00  0.00    +0.000 A 
ATOM     22  C   UNL     1      -4.043  11.489  16.793  0.00  0.00    +0.000 A 
ATOM     23  N   UNL     1      -5.412  11.431  16.797  0.00  0.00    +0.000 N 
ATOM     24  C   UNL     1      -5.897  11.725  18.049  0.00  0.00    +0.000 A 
ATOM     25  C   UNL     1      -7.217  11.766  18.514  0.00  0.00    +0.000 A 
ATOM     26  C   UNL     1      -7.421  12.079  19.860  0.00  0.00    +0.000 A 
ATOM     27  C   UNL     1      -6.344  12.340  20.704  0.00  0.00    +0.000 A 
ATOM     28  C   UNL     1      -5.028  12.290  20.225  0.00  0.00    +0.000 A 
ATOM     29  C   UNL     1      -4.794  11.978  18.868  0.00  0.00    +0.000 A 
ATOM     30  H   UNL     1      -5.990  11.179  16.007  0.00  0.00    +0.000 HD
ENDBRANCH  20  21
ENDBRANCH   2  20
TORSDOF 4
ENDMDL
MODEL 5
REMARK VINA RESULT:      -9.0      7.032     10.461
REMARK  Name = 
REMARK  4 active torsions:
REMARK  status: ('A' for Active; 'I' for Inactive)
REMARK    1  A    between atoms: C_2  and  C_3
REMARK    2  A    between atoms: C_3  and  C_4
REMARK    3  A    between atoms: N_13  and  C_14
REMARK    4  A    between atoms: C_17  and  C_18
REMARK                            x       y       z     vdW  Elec       q    Type
REMARK                         _______ _______ _______ _____ _____    ______ ____
ROOT
ATOM      1  O   UNL     1      -1.616  10.091  17.547  0.00  0.00    +0.000 OA
ATOM      2  C   UNL     1      -1.153  10.936  18.305  0.00  0.00    +0.000 C 
ATOM      3  N   UNL     1       0.021  10.815  19.035  0.00  0.00    +0.000 N 
ATOM      4  H   UNL     1       0.165  11.505  19.763  0.00  0.00    +0.000 HD
ENDROOT
BRANCH   3   5
ATOM      5  C   UNL     1       0.929   9.738  18.994  0.00  0.00    +0.000 A 
ATOM      6  C   UNL     1       1.706   9.405  17.878  0.00  0.00    +0.000 A 
ATOM      7  C   UNL     1       2.496   8.246  17.876  0.00  0.00    +0.000 A 
ATOM      8  C   UNL     1       2.543   7.412  19.001  0.00  0.00    +0.000 A 
ATOM      9  C   UNL     1       1.899   7.847  20.162  0.00  0.00    +0.000 A 
ATOM     10  C   UNL     1       1.066   8.967  20.147  0.00  0.00    +0.000 A 
BRANCH   8  11
ATOM     11  C   UNL     1       3.304   6.119  18.918  0.00  0.00    +0.000 C 
ATOM     12  O   UNL     1       4.334   6.125  18.241  0.00  0.00    +0.000 OA
ATOM     13  N   UNL     1       2.834   4.953  19.557  0.00  0.00    +0.000 N 
ATOM     14  C   UNL     1       3.708   3.778  19.547  0.00  0.00    +0.000 C 
ATOM     15  C   UNL     1       3.328   2.764  18.468  0.00  0.00    +0.000 C 
ATOM     16  C   UNL     1       2.116   1.897  18.805  0.00  0.00    +0.000 C 
ATOM     17  C   UNL     1       0.834   2.674  19.079  0.00  0.00    +0.000 C 
ATOM     18  C   UNL     1       0.914   3.460  20.378  0.00  0.00    +0.000 C 
ATOM     19  C   UNL     1       1.536   4.842  20.216  0.00  0.00    +0.000 C 
ENDBRANCH   8  11
ENDBRANCH   3   5
BRANCH   2  20
ATOM     20  C   UNL     1      -1.829  12.287  18.468  0.00  0.00    +0.000 C 
BRANCH  20  21
ATOM     21  C   UNL     1      -2.983  12.296  19.422  0.00  0.00    +0.000 A 
ATOM     22  C   UNL     1      -2.941  12.699  20.744  0.00  0.00    +0.000 A 
ATOM     23  N   UNL     1      -4.212  12.657  21.253  0.00  0.00    +0.000 N 
ATOM     24  C   UNL     1      -5.094  12.222  20.292  0.00  0.00    +0.000 A 
ATOM     25  C   UNL     1      -6.481  12.046  20.361  0.00  0.00    +0.000 A 
ATOM     26  C   UNL     1      -7.136  11.603  19.209  0.00  0.00    +0.000 A 
ATOM     27  C   UNL     1      -6.428  11.349  18.038  0.00  0.00    +0.000 A 
ATOM     28  C   UNL     1      -5.040  11.534  17.983  0.00  0.00    +0.000 A 
ATOM     29  C   UNL     1      -4.353  11.980  19.133  0.00  0.00    +0.000 A 
ATOM     30  H   UNL     1      -4.479  12.935  22.187  0.00  0.00    +0.000 HD
ENDBRANCH  20  21
ENDBRANCH   2  20
TORSDOF 4
ENDMDL
MODEL 6
REMARK VINA RESULT:      -9.0      1.226      1.676
REMARK  Name = 
REMARK  4 active torsions:
REMARK  status: ('A' for Active; 'I' for Inactive)
REMARK    1  A    between atoms: C_2  and  C_3
REMARK    2  A    between atoms: C_3  and  C_4
REMARK    3  A    between atoms: N_13  and  C_14
REMARK    4  A    between atoms: C_17  and  C_18
REMARK                            x       y       z     vdW  Elec       q    Type
REMARK                         _______ _______ _______ _____ _____    ______ ____
ROOT
ATOM      1  O   UNL     1       7.845  10.078  17.754  0.00  0.00    +0.000 OA
ATOM      2  C   UNL     1       8.635   9.512  18.502  0.00  0.00    +0.000 C 
ATOM      3  N   UNL     1       8.623   8.162  18.823  0.00  0.00    +0.000 N 
ATOM      4  H   UNL     1       9.208   7.885  19.603  0.00  0.00    +0.000 HD
ENDROOT
BRANCH   3   5
ATOM      5  C   UNL     1       7.752   7.182  18.305  0.00  0.00    +0.000 A 
ATOM      6  C   UNL     1       6.736   7.442  17.378  0.00  0.00    +0.000 A 
ATOM      7  C   UNL     1       5.833   6.435  17.005  0.00  0.00    +0.000 A 
ATOM      8  C   UNL     1       5.948   5.142  17.531  0.00  0.00    +0.000 A 
ATOM      9  C   UNL     1       7.066   4.856  18.319  0.00  0.00    +0.000 A 
ATOM     10  C   UNL     1       7.928   5.869  18.739  0.00  0.00    +0.000 A 
BRANCH   8  11
ATOM     11  C   UNL     1       4.893   4.125  17.200  0.00  0.00    +0.000 C 
ATOM     12  O   UNL     1       4.691   3.904  16.004  0.00  0.00    +0.000 OA
ATOM     13  N   UNL     1       4.150   3.486  18.215  0.00  0.00    +0.000 N 
ATOM     14  C   UNL     1       3.247   2.406  17.814  0.00  0.00    +0.000 C 
ATOM     15  C   UNL     1       1.792   2.860  17.696  0.00  0.00    +0.000 C 
ATOM     16  C   UNL     1       1.062   3.016  19.029  0.00  0.00    +0.000 C 
ATOM     17  C   UNL     1       1.703   4.007  19.994  0.00  0.00    +0.000 C 
ATOM     18  C   UNL     1       3.033   3.498  20.527  0.00  0.00    +0.000 C 
ATOM     19  C   UNL     1       4.218   3.840  19.630  0.00  0.00    +0.000 C 
ENDBRANCH   8  11
ENDBRANCH   3   5
BRANCH   2  20
ATOM     20  C   UNL     1       9.796  10.270  19.124  0.00  0.00    +0.000 C 
BRANCH  20  21
ATOM     21  C   UNL     1       9.637  11.759  19.128  0.00  0.00    +0.000 A 
ATOM     22  C   UNL     1       8.892  12.493  20.033  0.00  0.00    +0.000 A 
ATOM     23  N   UNL     1       9.076  13.824  19.769  0.00  0.00    +0.000 N 
ATOM     24  C   UNL     1       9.921  13.984  18.698  0.00  0.00    +0.000 A 
ATOM     25  C   UNL     1      10.399  15.155  18.097  0.00  0.00    +0.000 A 
ATOM     26  C   UNL     1      11.275  15.020  17.018  0.00  0.00    +0.000 A 
ATOM     27  C   UNL     1      11.657  13.761  16.561  0.00  0.00    +0.000 A 
ATOM     28  C   UNL     1      11.174  12.598  17.176  0.00  0.00    +0.000 A 
ATOM     29  C   UNL     1      10.286  12.706  18.267  0.00  0.00    +0.000 A 
ATOM     30  H   UNL     1       8.678  14.587  20.300  0.00  0.00    +0.000 HD
ENDBRANCH  20  21
ENDBRANCH   2  20
TORSDOF 4
ENDMDL
MODEL 7
REMARK VINA RESULT:      -8.8      5.665      9.541
REMARK  Name = 
REMARK  4 active torsions:
REMARK  status: ('A' for Active; 'I' for Inactive)
REMARK    1  A    between atoms: C_2  and  C_3
REMARK    2  A    between atoms: C_3  and  C_4
REMARK    3  A    between atoms: N_13  and  C_14
REMARK    4  A    between atoms: C_17  and  C_18
REMARK                            x       y       z     vdW  Elec       q    Type
REMARK                         _______ _______ _______ _____ _____    ______ ____
ROOT
ATOM      1  O   UNL     1       1.849   5.110  18.259  0.00  0.00    +0.000 OA
ATOM      2  C   UNL     1       2.798   5.434  18.964  0.00  0.00    +0.000 C 
ATOM      3  N   UNL     1       2.989   6.680  19.543  0.00  0.00    +0.000 N 
ATOM      4  H   UNL     1       3.910   6.856  19.927  0.00  0.00    +0.000 HD
ENDROOT
BRANCH   3   5
ATOM      5  C   UNL     1       2.106   7.777  19.490  0.00  0.00    +0.000 A 
ATOM      6  C   UNL     1       1.869   8.542  18.341  0.00  0.00    +0.000 A 
ATOM      7  C   UNL     1       1.070   9.693  18.400  0.00  0.00    +0.000 A 
ATOM      8  C   UNL     1       0.471  10.085  19.603  0.00  0.00    +0.000 A 
ATOM      9  C   UNL     1       0.576   9.221  20.696  0.00  0.00    +0.000 A 
ATOM     10  C   UNL     1       1.419   8.110  20.656  0.00  0.00    +0.000 A 
BRANCH   8  11
ATOM     11  C   UNL     1      -0.279  11.387  19.654  0.00  0.00    +0.000 C 
ATOM     12  O   UNL     1      -1.451  11.367  19.272  0.00  0.00    +0.000 OA
ATOM     13  N   UNL     1       0.349  12.575  20.083  0.00  0.00    +0.000 N 
ATOM     14  C   UNL     1      -0.491  13.764  20.240  0.00  0.00    +0.000 C 
ATOM     15  C   UNL     1      -0.403  14.715  19.046  0.00  0.00    +0.000 C 
ATOM     16  C   UNL     1       0.860  15.575  19.005  0.00  0.00    +0.000 C 
ATOM     17  C   UNL     1       2.164  14.787  18.974  0.00  0.00    +0.000 C 
ATOM     18  C   UNL     1       2.425  14.070  20.290  0.00  0.00    +0.000 C 
ATOM     19  C   UNL     1       1.775  12.694  20.371  0.00  0.00    +0.000 C 
ENDBRANCH   8  11
ENDBRANCH   3   5
BRANCH   2  20
ATOM     20  C   UNL     1       3.871   4.425  19.335  0.00  0.00    +0.000 C 
BRANCH  20  21
ATOM     21  C   UNL     1       5.200   4.660  18.685  0.00  0.00    +0.000 A 
ATOM     22  C   UNL     1       6.388   4.929  19.341  0.00  0.00    +0.000 A 
ATOM     23  N   UNL     1       7.394   4.981  18.413  0.00  0.00    +0.000 N 
ATOM     24  C   UNL     1       6.891   4.762  17.153  0.00  0.00    +0.000 A 
ATOM     25  C   UNL     1       7.550   4.708  15.919  0.00  0.00    +0.000 A 
ATOM     26  C   UNL     1       6.781   4.447  14.783  0.00  0.00    +0.000 A 
ATOM     27  C   UNL     1       5.406   4.248  14.882  0.00  0.00    +0.000 A 
ATOM     28  C   UNL     1       4.760   4.301  16.125  0.00  0.00    +0.000 A 
ATOM     29  C   UNL     1       5.515   4.565  17.288  0.00  0.00    +0.000 A 
ATOM     30  H   UNL     1       8.373   5.126  18.618  0.00  0.00    +0.000 HD
ENDBRANCH  20  21
ENDBRANCH   2  20
TORSDOF 4
ENDMDL
MODEL 8
REMARK VINA RESULT:      -8.8      7.025      9.611
REMARK  Name = 
REMARK  4 active torsions:
REMARK  status: ('A' for Active; 'I' for Inactive)
REMARK    1  A    between atoms: C_2  and  C_3
REMARK    2  A    between atoms: C_3  and  C_4
REMARK    3  A    between atoms: N_13  and  C_14
REMARK    4  A    between atoms: C_17  and  C_18
REMARK                            x       y       z     vdW  Elec       q    Type
REMARK                         _______ _______ _______ _____ _____    ______ ____
ROOT
ATOM      1  O   UNL     1       1.016  12.347  18.821  0.00  0.00    +0.000 OA
ATOM      2  C   UNL     1       0.066  11.867  19.430  0.00  0.00    +0.000 C 
ATOM      3  N   UNL     1      -0.092  10.530  19.762  0.00  0.00    +0.000 N 
ATOM      4  H   UNL     1      -1.014  10.257  20.083  0.00  0.00    +0.000 HD
ENDROOT
BRANCH   3   5
ATOM      5  C   UNL     1       0.830   9.490  19.527  0.00  0.00    +0.000 A 
ATOM      6  C   UNL     1       1.393   9.204  18.278  0.00  0.00    +0.000 A 
ATOM      7  C   UNL     1       2.207   8.076  18.100  0.00  0.00    +0.000 A 
ATOM      8  C   UNL     1       2.495   7.227  19.177  0.00  0.00    +0.000 A 
ATOM      9  C   UNL     1       2.068   7.619  20.448  0.00  0.00    +0.000 A 
ATOM     10  C   UNL     1       1.208   8.706  20.615  0.00  0.00    +0.000 A 
BRANCH   8  11
ATOM     11  C   UNL     1       3.271   5.966  18.923  0.00  0.00    +0.000 C 
ATOM     12  O   UNL     1       4.282   6.068  18.226  0.00  0.00    +0.000 OA
ATOM     13  N   UNL     1       2.834   4.724  19.431  0.00  0.00    +0.000 N 
ATOM     14  C   UNL     1       3.724   3.574  19.261  0.00  0.00    +0.000 C 
ATOM     15  C   UNL     1       3.329   2.688  18.079  0.00  0.00    +0.000 C 
ATOM     16  C   UNL     1       2.137   1.767  18.342  0.00  0.00    +0.000 C 
ATOM     17  C   UNL     1       0.853   2.486  18.737  0.00  0.00    +0.000 C 
ATOM     18  C   UNL     1       0.957   3.114  20.118  0.00  0.00    +0.000 C 
ATOM     19  C   UNL     1       1.555   4.516  20.104  0.00  0.00    +0.000 C 
ENDBRANCH   8  11
ENDBRANCH   3   5
BRANCH   2  20
ATOM     20  C   UNL     1      -1.048  12.756  19.956  0.00  0.00    +0.000 C 
BRANCH  20  21
ATOM     21  C   UNL     1      -2.415  12.406  19.452  0.00  0.00    +0.000 A 
ATOM     22  C   UNL     1      -3.610  12.677  20.094  0.00  0.00    +0.000 A 
ATOM     23  N   UNL     1      -4.639  12.296  19.275  0.00  0.00    +0.000 N 
ATOM     24  C   UNL     1      -4.146  11.767  18.106  0.00  0.00    +0.000 A 
ATOM     25  C   UNL     1      -4.826  11.272  16.987  0.00  0.00    +0.000 A 
ATOM     26  C   UNL     1      -4.059  10.807  15.916  0.00  0.00    +0.000 A 
ATOM     27  C   UNL     1      -2.668  10.837  15.967  0.00  0.00    +0.000 A 
ATOM     28  C   UNL     1      -2.002  11.340  17.093  0.00  0.00    +0.000 A 
ATOM     29  C   UNL     1      -2.752  11.815  18.189  0.00  0.00    +0.000 A 
ATOM     30  H   UNL     1      -5.623  12.412  19.477  0.00  0.00    +0.000 HD
ENDBRANCH  20  21
ENDBRANCH   2  20
TORSDOF 4
ENDMDL
MODEL 9
REMARK VINA RESULT:      -8.7      6.956      9.718
REMARK  Name = 
REMARK  4 active torsions:
REMARK  status: ('A' for Active; 'I' for Inactive)
REMARK    1  A    between atoms: C_2  and  C_3
REMARK    2  A    between atoms: C_3  and  C_4
REMARK    3  A    between atoms: N_13  and  C_14
REMARK    4  A    between atoms: C_17  and  C_18
REMARK                            x       y       z     vdW  Elec       q    Type
REMARK                         _______ _______ _______ _____ _____    ______ ____
ROOT
ATOM      1  O   UNL     1       1.229  12.535  19.301  0.00  0.00    +0.000 OA
ATOM      2  C   UNL     1       0.121  12.023  19.413  0.00  0.00    +0.000 C 
ATOM      3  N   UNL     1      -0.156  10.666  19.337  0.00  0.00    +0.000 N 
ATOM      4  H   UNL     1      -1.134  10.416  19.247  0.00  0.00    +0.000 HD
ENDROOT
BRANCH   3   5
ATOM      5  C   UNL     1       0.780   9.623  19.184  0.00  0.00    +0.000 A 
ATOM      6  C   UNL     1       1.434   9.321  17.984  0.00  0.00    +0.000 A 
ATOM      7  C   UNL     1       2.259   8.191  17.883  0.00  0.00    +0.000 A 
ATOM      8  C   UNL     1       2.466   7.357  18.989  0.00  0.00    +0.000 A 
ATOM      9  C   UNL     1       1.946   7.765  20.220  0.00  0.00    +0.000 A 
ATOM     10  C   UNL     1       1.077   8.854  20.308  0.00  0.00    +0.000 A 
BRANCH   8  11
ATOM     11  C   UNL     1       3.258   6.093  18.810  0.00  0.00    +0.000 C 
ATOM     12  O   UNL     1       4.256   6.161  18.089  0.00  0.00    +0.000 OA
ATOM     13  N   UNL     1       2.851   4.884  19.413  0.00  0.00    +0.000 N 
ATOM     14  C   UNL     1       3.756   3.739  19.307  0.00  0.00    +0.000 C 
ATOM     15  C   UNL     1       3.356   2.765  18.198  0.00  0.00    +0.000 C 
ATOM     16  C   UNL     1       2.185   1.847  18.547  0.00  0.00    +0.000 C 
ATOM     17  C   UNL     1       0.895   2.572  18.915  0.00  0.00    +0.000 C 
ATOM     18  C   UNL     1       1.013   3.297  20.246  0.00  0.00    +0.000 C 
ATOM     19  C   UNL     1       1.588   4.704  20.122  0.00  0.00    +0.000 C 
ENDBRANCH   8  11
ENDBRANCH   3   5
BRANCH   2  20
ATOM     20  C   UNL     1      -1.100  12.871  19.727  0.00  0.00    +0.000 C 
BRANCH  20  21
ATOM     21  C   UNL     1      -1.618  12.725  21.125  0.00  0.00    +0.000 A 
ATOM     22  C   UNL     1      -0.848  12.571  22.264  0.00  0.00    +0.000 A 
ATOM     23  N   UNL     1      -1.678  12.572  23.353  0.00  0.00    +0.000 N 
ATOM     24  C   UNL     1      -2.986  12.714  22.954  0.00  0.00    +0.000 A 
ATOM     25  C   UNL     1      -4.156  12.785  23.719  0.00  0.00    +0.000 A 
ATOM     26  C   UNL     1      -5.366  12.952  23.041  0.00  0.00    +0.000 A 
ATOM     27  C   UNL     1      -5.399  13.043  21.652  0.00  0.00    +0.000 A 
ATOM     28  C   UNL     1      -4.219  12.974  20.899  0.00  0.00    +0.000 A 
ATOM     29  C   UNL     1      -2.983  12.805  21.560  0.00  0.00    +0.000 A 
ATOM     30  H   UNL     1      -1.381  12.512  24.317  0.00  0.00    +0.000 HD
ENDBRANCH  20  21
ENDBRANCH   2  20
TORSDOF 4
ENDMDL
