MODEL 1
REMARK VINA RESULT:      -9.1      0.000      0.000
REMARK  Name = 
REMARK  3 active torsions:
REMARK  status: ('A' for Active; 'I' for Inactive)
REMARK    1  A    between atoms: C_1  and  C_2
REMARK    2  A    between atoms: C_12  and  N_13
REMARK    3  A    between atoms: C_20  and  C_21
REMARK                            x       y       z     vdW  Elec       q    Type
REMARK                         _______ _______ _______ _____ _____    ______ ____
ROOT
ATOM      1  C   UNL     1       0.373   9.325  22.610  0.00  0.00    +0.000 C 
ATOM      2  C   UNL     1      -0.013   9.368  21.126  0.00  0.00    +0.000 C 
ATOM      3  C   UNL     1      -0.352  10.817  20.704  0.00  0.00    +0.000 C 
ATOM      4  C   UNL     1       0.610  11.426  19.749  0.00  0.00    +0.000 A 
ATOM      5  N   UNL     1       0.751  12.707  19.472  0.00  0.00    +0.000 NA
ATOM      6  C   UNL     1       1.693  12.759  18.480  0.00  0.00    +0.000 A 
ATOM      7  C   UNL     1       2.124  11.498  18.147  0.00  0.00    +0.000 A 
ATOM      8  N   UNL     1       1.416  10.646  18.958  0.00  0.00    +0.000 N 
ATOM      9  C   UNL     1       1.527   9.251  19.086  0.00  0.00    +0.000 A 
ATOM     10  C   UNL     1       2.265   8.520  18.155  0.00  0.00    +0.000 A 
ATOM     11  C   UNL     1       2.600   7.205  18.437  0.00  0.00    +0.000 A 
ATOM     12  C   UNL     1       2.335   6.680  19.709  0.00  0.00    +0.000 A 
ATOM     13  C   UNL     1       1.410   7.335  20.532  0.00  0.00    +0.000 A 
ATOM     14  C   UNL     1       0.974   8.637  20.224  0.00  0.00    +0.000 A 
ENDROOT
BRANCH  12  15
ATOM     15  N   UNL     1       3.288   5.758  20.317  0.00  0.00    +0.000 N 
ATOM     16  C   UNL     1       4.419   5.495  19.392  0.00  0.00    +0.000 C 
ATOM     17  C   UNL     1       3.927   4.306  18.621  0.00  0.00    +0.000 A 
ATOM     18  C   UNL     1       3.025   3.623  19.447  0.00  0.00    +0.000 A 
ATOM     19  C   UNL     1       2.201   2.610  18.982  0.00  0.00    +0.000 A 
ATOM     20  C   UNL     1       2.284   2.288  17.630  0.00  0.00    +0.000 A 
ATOM     21  C   UNL     1       3.192   2.961  16.791  0.00  0.00    +0.000 A 
ATOM     22  C   UNL     1       4.044   3.977  17.274  0.00  0.00    +0.000 A 
ATOM     23  C   UNL     1       2.763   4.471  20.620  0.00  0.00    +0.000 C 
ATOM     24  O   UNL     1       2.032   4.158  21.542  0.00  0.00    +0.000 OA
BRANCH  22  25
ATOM     25  C   UNL     1       4.929   4.724  16.310  0.00  0.00    +0.000 C 
ATOM     26  F   UNL     1       4.591   6.031  16.148  0.00  0.00    +0.000 F 
ATOM     27  F   UNL     1       6.231   4.726  16.707  0.00  0.00    +0.000 F 
ATOM     28  F   UNL     1       4.916   4.177  15.065  0.00  0.00    +0.000 F 
ENDBRANCH  22  25
ENDBRANCH  12  15
TORSDOF 2
ENDMDL
MODEL 2
REMARK VINA RESULT:      -7.8      1.664      2.303
REMARK  Name = 
REMARK  3 active torsions:
REMARK  status: ('A' for Active; 'I' for Inactive)
REMARK    1  A    between atoms: C_1  and  C_2
REMARK    2  A    between atoms: C_12  and  N_13
REMARK    3  A    between atoms: C_20  and  C_21
REMARK                            x       y       z     vdW  Elec       q    Type
REMARK                         _______ _______ _______ _____ _____    ______ ____
ROOT
ATOM      1  C   UNL     1       1.092   8.881  22.253  0.00  0.00    +0.000 C 
ATOM      2  C   UNL     1       0.621   9.014  20.799  0.00  0.00    +0.000 C 
ATOM      3  C   UNL     1       0.349  10.498  20.458  0.00  0.00    +0.000 C 
ATOM      4  C   UNL     1       1.287  11.089  19.470  0.00  0.00    +0.000 A 
ATOM      5  N   UNL     1       1.491  12.370  19.237  0.00  0.00    +0.000 NA
ATOM      6  C   UNL     1       2.373  12.410  18.191  0.00  0.00    +0.000 A 
ATOM      7  C   UNL     1       2.702  11.141  17.780  0.00  0.00    +0.000 A 
ATOM      8  N   UNL     1       1.993  10.298  18.598  0.00  0.00    +0.000 N 
ATOM      9  C   UNL     1       2.024   8.895  18.662  0.00  0.00    +0.000 A 
ATOM     10  C   UNL     1       2.656   8.163  17.658  0.00  0.00    +0.000 A 
ATOM     11  C   UNL     1       2.925   6.819  17.864  0.00  0.00    +0.000 A 
ATOM     12  C   UNL     1       2.705   6.255  19.128  0.00  0.00    +0.000 A 
ATOM     13  C   UNL     1       1.874   6.927  20.034  0.00  0.00    +0.000 A 
ATOM     14  C   UNL     1       1.503   8.265  19.808  0.00  0.00    +0.000 A 
ENDROOT
BRANCH  12  15
ATOM     15  N   UNL     1       3.633   5.251  19.636  0.00  0.00    +0.000 N 
ATOM     16  C   UNL     1       5.032   5.737  19.534  0.00  0.00    +0.000 C 
ATOM     17  C   UNL     1       5.433   5.259  18.169  0.00  0.00    +0.000 A 
ATOM     18  C   UNL     1       4.659   4.127  17.884  0.00  0.00    +0.000 A 
ATOM     19  C   UNL     1       4.594   3.561  16.621  0.00  0.00    +0.000 A 
ATOM     20  C   UNL     1       5.329   4.172  15.608  0.00  0.00    +0.000 A 
ATOM     21  C   UNL     1       6.118   5.305  15.883  0.00  0.00    +0.000 A 
ATOM     22  C   UNL     1       6.197   5.865  17.176  0.00  0.00    +0.000 A 
ATOM     23  C   UNL     1       3.626   4.018  18.926  0.00  0.00    +0.000 C 
ATOM     24  O   UNL     1       2.798   3.127  18.980  0.00  0.00    +0.000 OA
BRANCH  22  25
ATOM     25  C   UNL     1       6.985   7.131  17.390  0.00  0.00    +0.000 C 
ATOM     26  F   UNL     1       7.892   7.391  16.410  0.00  0.00    +0.000 F 
ATOM     27  F   UNL     1       6.183   8.229  17.451  0.00  0.00    +0.000 F 
ATOM     28  F   UNL     1       7.688   7.113  18.554  0.00  0.00    +0.000 F 
ENDBRANCH  22  25
ENDBRANCH  12  15
TORSDOF 2
ENDMDL
MODEL 3
REMARK VINA RESULT:      -7.5      5.243      7.854
REMARK  Name = 
REMARK  3 active torsions:
REMARK  status: ('A' for Active; 'I' for Inactive)
REMARK    1  A    between atoms: C_1  and  C_2
REMARK    2  A    between atoms: C_12  and  N_13
REMARK    3  A    between atoms: C_20  and  C_21
REMARK                            x       y       z     vdW  Elec       q    Type
REMARK                         _______ _______ _______ _____ _____    ______ ____
ROOT
ATOM      1  C   UNL     1      -2.277  10.302  17.960  0.00  0.00    +0.000 C 
ATOM      2  C   UNL     1      -3.205  11.523  18.023  0.00  0.00    +0.000 C 
ATOM      3  C   UNL     1      -4.627  11.137  17.554  0.00  0.00    +0.000 C 
ATOM      4  C   UNL     1      -5.663  11.175  18.619  0.00  0.00    +0.000 A 
ATOM      5  N   UNL     1      -6.853  10.609  18.589  0.00  0.00    +0.000 NA
ATOM      6  C   UNL     1      -7.463  10.995  19.751  0.00  0.00    +0.000 A 
ATOM      7  C   UNL     1      -6.639  11.807  20.491  0.00  0.00    +0.000 A 
ATOM      8  N   UNL     1      -5.489  11.927  19.753  0.00  0.00    +0.000 N 
ATOM      9  C   UNL     1      -4.290  12.582  20.084  0.00  0.00    +0.000 A 
ATOM     10  C   UNL     1      -4.240  13.436  21.185  0.00  0.00    +0.000 A 
ATOM     11  C   UNL     1      -3.009  13.851  21.667  0.00  0.00    +0.000 A 
ATOM     12  C   UNL     1      -1.836  13.288  21.147  0.00  0.00    +0.000 A 
ATOM     13  C   UNL     1      -1.893  12.623  19.915  0.00  0.00    +0.000 A 
ATOM     14  C   UNL     1      -3.132  12.268  19.350  0.00  0.00    +0.000 A 
ENDROOT
BRANCH  12  15
ATOM     15  N   UNL     1      -0.712  13.023  22.038  0.00  0.00    +0.000 N 
ATOM     16  C   UNL     1       0.574  13.268  21.338  0.00  0.00    +0.000 C 
ATOM     17  C   UNL     1       0.871  11.923  20.743  0.00  0.00    +0.000 A 
ATOM     18  C   UNL     1       0.247  10.967  21.553  0.00  0.00    +0.000 A 
ATOM     19  C   UNL     1       0.112   9.639  21.179  0.00  0.00    +0.000 A 
ATOM     20  C   UNL     1       0.615   9.271  19.934  0.00  0.00    +0.000 A 
ATOM     21  C   UNL     1       1.253  10.221  19.113  0.00  0.00    +0.000 A 
ATOM     22  C   UNL     1       1.406  11.567  19.508  0.00  0.00    +0.000 A 
ATOM     23  C   UNL     1      -0.621  11.682  22.502  0.00  0.00    +0.000 C 
ATOM     24  O   UNL     1      -1.293  11.139  23.360  0.00  0.00    +0.000 OA
BRANCH  22  25
ATOM     25  C   UNL     1       2.015  12.557  18.550  0.00  0.00    +0.000 C 
ATOM     26  F   UNL     1       2.930  13.387  19.118  0.00  0.00    +0.000 F 
ATOM     27  F   UNL     1       2.661  11.944  17.521  0.00  0.00    +0.000 F 
ATOM     28  F   UNL     1       1.081  13.366  17.979  0.00  0.00    +0.000 F 
ENDBRANCH  22  25
ENDBRANCH  12  15
TORSDOF 2
ENDMDL
MODEL 4
REMARK VINA RESULT:      -7.4      2.956      4.060
REMARK  Name = 
REMARK  3 active torsions:
REMARK  status: ('A' for Active; 'I' for Inactive)
REMARK    1  A    between atoms: C_1  and  C_2
REMARK    2  A    between atoms: C_12  and  N_13
REMARK    3  A    between atoms: C_20  and  C_21
REMARK                            x       y       z     vdW  Elec       q    Type
REMARK                         _______ _______ _______ _____ _____    ______ ____
ROOT
ATOM      1  C   UNL     1      -0.145  10.312  17.571  0.00  0.00    +0.000 C 
ATOM      2  C   UNL     1       0.836  10.380  18.749  0.00  0.00    +0.000 C 
ATOM      3  C   UNL     1       0.185  11.115  19.944  0.00  0.00    +0.000 C 
ATOM      4  C   UNL     1      -0.083  10.257  21.128  0.00  0.00    +0.000 A 
ATOM      5  N   UNL     1      -0.890  10.525  22.135  0.00  0.00    +0.000 NA
ATOM      6  C   UNL     1      -0.733   9.482  23.007  0.00  0.00    +0.000 A 
ATOM      7  C   UNL     1       0.182   8.577  22.529  0.00  0.00    +0.000 A 
ATOM      8  N   UNL     1       0.604   9.087  21.328  0.00  0.00    +0.000 N 
ATOM      9  C   UNL     1       1.478   8.519  20.384  0.00  0.00    +0.000 A 
ATOM     10  C   UNL     1       2.239   7.400  20.720  0.00  0.00    +0.000 A 
ATOM     11  C   UNL     1       2.876   6.687  19.717  0.00  0.00    +0.000 A 
ATOM     12  C   UNL     1       2.622   7.001  18.375  0.00  0.00    +0.000 A 
ATOM     13  C   UNL     1       2.053   8.243  18.067  0.00  0.00    +0.000 A 
ATOM     14  C   UNL     1       1.479   9.038  19.076  0.00  0.00    +0.000 A 
ENDROOT
BRANCH  12  15
ATOM     15  N   UNL     1       2.544   5.927  17.390  0.00  0.00    +0.000 N 
ATOM     16  C   UNL     1       1.595   4.878  17.839  0.00  0.00    +0.000 C 
ATOM     17  C   UNL     1       2.488   3.954  18.613  0.00  0.00    +0.000 A 
ATOM     18  C   UNL     1       3.778   4.091  18.086  0.00  0.00    +0.000 A 
ATOM     19  C   UNL     1       4.901   3.565  18.706  0.00  0.00    +0.000 A 
ATOM     20  C   UNL     1       4.711   2.890  19.909  0.00  0.00    +0.000 A 
ATOM     21  C   UNL     1       3.418   2.739  20.445  0.00  0.00    +0.000 A 
ATOM     22  C   UNL     1       2.276   3.258  19.799  0.00  0.00    +0.000 A 
ATOM     23  C   UNL     1       3.766   5.236  17.163  0.00  0.00    +0.000 C 
ATOM     24  O   UNL     1       4.731   5.611  16.523  0.00  0.00    +0.000 OA
BRANCH  22  25
ATOM     25  C   UNL     1       0.930   3.145  20.467  0.00  0.00    +0.000 C 
ATOM     26  F   UNL     1       0.349   4.342  20.747  0.00  0.00    +0.000 F 
ATOM     27  F   UNL     1       0.032   2.470  19.699  0.00  0.00    +0.000 F 
ATOM     28  F   UNL     1       0.993   2.474  21.649  0.00  0.00    +0.000 F 
ENDBRANCH  22  25
ENDBRANCH  12  15
TORSDOF 2
ENDMDL
MODEL 5
REMARK VINA RESULT:      -7.2      5.379      7.926
REMARK  Name = 
REMARK  3 active torsions:
REMARK  status: ('A' for Active; 'I' for Inactive)
REMARK    1  A    between atoms: C_1  and  C_2
REMARK    2  A    between atoms: C_12  and  N_13
REMARK    3  A    between atoms: C_20  and  C_21
REMARK                            x       y       z     vdW  Elec       q    Type
REMARK                         _______ _______ _______ _____ _____    ______ ____
ROOT
ATOM      1  C   UNL     1      -2.449  10.143  18.155  0.00  0.00    +0.000 C 
ATOM      2  C   UNL     1      -3.450  11.305  18.112  0.00  0.00    +0.000 C 
ATOM      3  C   UNL     1      -4.875  10.772  17.831  0.00  0.00    +0.000 C 
ATOM      4  C   UNL     1      -5.825  10.919  18.964  0.00  0.00    +0.000 A 
ATOM      5  N   UNL     1      -6.973  10.291  19.122  0.00  0.00    +0.000 NA
ATOM      6  C   UNL     1      -7.518  10.820  20.261  0.00  0.00    +0.000 A 
ATOM      7  C   UNL     1      -6.697  11.783  20.795  0.00  0.00    +0.000 A 
ATOM      8  N   UNL     1      -5.618  11.849  19.951  0.00  0.00    +0.000 N 
ATOM      9  C   UNL     1      -4.444  12.613  20.074  0.00  0.00    +0.000 A 
ATOM     10  C   UNL     1      -4.368  13.631  21.024  0.00  0.00    +0.000 A 
ATOM     11  C   UNL     1      -3.135  14.184  21.329  0.00  0.00    +0.000 A 
ATOM     12  C   UNL     1      -1.970  13.612  20.801  0.00  0.00    +0.000 A 
ATOM     13  C   UNL     1      -2.075  12.760  19.695  0.00  0.00    +0.000 A 
ATOM     14  C   UNL     1      -3.327  12.252  19.298  0.00  0.00    +0.000 A 
ENDROOT
BRANCH  12  15
ATOM     15  N   UNL     1      -0.765  13.554  21.622  0.00  0.00    +0.000 N 
ATOM     16  C   UNL     1       0.405  13.157  20.799  0.00  0.00    +0.000 C 
ATOM     17  C   UNL     1       0.383  11.661  20.919  0.00  0.00    +0.000 A 
ATOM     18  C   UNL     1      -0.235  11.354  22.137  0.00  0.00    +0.000 A 
ATOM     19  C   UNL     1      -0.637  10.071  22.472  0.00  0.00    +0.000 A 
ATOM     20  C   UNL     1      -0.417   9.066  21.534  0.00  0.00    +0.000 A 
ATOM     21  C   UNL     1       0.212   9.360  20.308  0.00  0.00    +0.000 A 
ATOM     22  C   UNL     1       0.638  10.665  19.981  0.00  0.00    +0.000 A 
ATOM     23  C   UNL     1      -0.807  12.599  22.675  0.00  0.00    +0.000 C 
ATOM     24  O   UNL     1      -1.398  12.679  23.736  0.00  0.00    +0.000 OA
BRANCH  22  25
ATOM     25  C   UNL     1       1.221  10.936  18.619  0.00  0.00    +0.000 C 
ATOM     26  F   UNL     1       2.422  11.573  18.647  0.00  0.00    +0.000 F 
ATOM     27  F   UNL     1       1.428   9.790  17.914  0.00  0.00    +0.000 F 
ATOM     28  F   UNL     1       0.405  11.708  17.851  0.00  0.00    +0.000 F 
ENDBRANCH  22  25
ENDBRANCH  12  15
TORSDOF 2
ENDMDL
MODEL 6
REMARK VINA RESULT:      -7.0      5.605      8.008
REMARK  Name = 
REMARK  3 active torsions:
REMARK  status: ('A' for Active; 'I' for Inactive)
REMARK    1  A    between atoms: C_1  and  C_2
REMARK    2  A    between atoms: C_12  and  N_13
REMARK    3  A    between atoms: C_20  and  C_21
REMARK                            x       y       z     vdW  Elec       q    Type
REMARK                         _______ _______ _______ _____ _____    ______ ____
ROOT
ATOM      1  C   UNL     1      -2.436  10.135  17.509  0.00  0.00    +0.000 C 
ATOM      2  C   UNL     1      -3.244  11.421  17.724  0.00  0.00    +0.000 C 
ATOM      3  C   UNL     1      -4.724  11.193  17.336  0.00  0.00    +0.000 C 
ATOM      4  C   UNL     1      -5.677  11.238  18.476  0.00  0.00    +0.000 A 
ATOM      5  N   UNL     1      -6.912  10.779  18.495  0.00  0.00    +0.000 NA
ATOM      6  C   UNL     1      -7.405  11.127  19.723  0.00  0.00    +0.000 A 
ATOM      7  C   UNL     1      -6.464  11.809  20.454  0.00  0.00    +0.000 A 
ATOM      8  N   UNL     1      -5.360  11.887  19.642  0.00  0.00    +0.000 N 
ATOM      9  C   UNL     1      -4.087  12.410  19.928  0.00  0.00    +0.000 A 
ATOM     10  C   UNL     1      -3.887  13.173  21.078  0.00  0.00    +0.000 A 
ATOM     11  C   UNL     1      -2.594  13.446  21.495  0.00  0.00    +0.000 A 
ATOM     12  C   UNL     1      -1.514  12.825  20.852  0.00  0.00    +0.000 A 
ATOM     13  C   UNL     1      -1.713  12.262  19.585  0.00  0.00    +0.000 A 
ATOM     14  C   UNL     1      -3.015  12.056  19.090  0.00  0.00    +0.000 A 
ENDROOT
BRANCH  12  15
ATOM     15  N   UNL     1      -0.360  12.401  21.637  0.00  0.00    +0.000 N 
ATOM     16  C   UNL     1       0.839  13.194  21.268  0.00  0.00    +0.000 C 
ATOM     17  C   UNL     1       1.431  12.376  20.158  0.00  0.00    +0.000 A 
ATOM     18  C   UNL     1       1.036  11.049  20.369  0.00  0.00    +0.000 A 
ATOM     19  C   UNL     1       1.202  10.056  19.417  0.00  0.00    +0.000 A 
ATOM     20  C   UNL     1       1.777  10.423  18.203  0.00  0.00    +0.000 A 
ATOM     21  C   UNL     1       2.186  11.753  17.981  0.00  0.00    +0.000 A 
ATOM     22  C   UNL     1       2.034  12.755  18.962  0.00  0.00    +0.000 A 
ATOM     23  C   UNL     1       0.029  11.047  21.442  0.00  0.00    +0.000 C 
ATOM     24  O   UNL     1      -0.505  10.044  21.879  0.00  0.00    +0.000 OA
BRANCH  22  25
ATOM     25  C   UNL     1       2.406  14.178  18.634  0.00  0.00    +0.000 C 
ATOM     26  F   UNL     1       3.181  14.778  19.577  0.00  0.00    +0.000 F 
ATOM     27  F   UNL     1       3.104  14.269  17.470  0.00  0.00    +0.000 F 
ATOM     28  F   UNL     1       1.315  14.976  18.482  0.00  0.00    +0.000 F 
ENDBRANCH  22  25
ENDBRANCH  12  15
TORSDOF 2
ENDMDL
MODEL 7
REMARK VINA RESULT:      -7.0      9.149     10.805
REMARK  Name = 
REMARK  3 active torsions:
REMARK  status: ('A' for Active; 'I' for Inactive)
REMARK    1  A    between atoms: C_1  and  C_2
REMARK    2  A    between atoms: C_12  and  N_13
REMARK    3  A    between atoms: C_20  and  C_21
REMARK                            x       y       z     vdW  Elec       q    Type
REMARK                         _______ _______ _______ _____ _____    ______ ____
ROOT
ATOM      1  C   UNL     1       9.428  16.186  21.439  0.00  0.00    +0.000 C 
ATOM      2  C   UNL     1       9.627  15.063  22.465  0.00  0.00    +0.000 C 
ATOM      3  C   UNL     1       8.706  15.287  23.687  0.00  0.00    +0.000 C 
ATOM      4  C   UNL     1       7.623  14.281  23.841  0.00  0.00    +0.000 A 
ATOM      5  N   UNL     1       6.535  14.393  24.575  0.00  0.00    +0.000 NA
ATOM      6  C   UNL     1       5.898  13.187  24.460  0.00  0.00    +0.000 A 
ATOM      7  C   UNL     1       6.610  12.333  23.654  0.00  0.00    +0.000 A 
ATOM      8  N   UNL     1       7.722  13.038  23.269  0.00  0.00    +0.000 N 
ATOM      9  C   UNL     1       8.741  12.664  22.377  0.00  0.00    +0.000 A 
ATOM     10  C   UNL     1       8.844  11.341  21.947  0.00  0.00    +0.000 A 
ATOM     11  C   UNL     1       9.661  11.039  20.869  0.00  0.00    +0.000 A 
ATOM     12  C   UNL     1      10.245  12.077  20.130  0.00  0.00    +0.000 A 
ATOM     13  C   UNL     1      10.318  13.355  20.700  0.00  0.00    +0.000 A 
ATOM     14  C   UNL     1       9.573  13.669  21.852  0.00  0.00    +0.000 A 
ENDROOT
BRANCH  12  15
ATOM     15  N   UNL     1      10.371  11.944  18.683  0.00  0.00    +0.000 N 
ATOM     16  C   UNL     1      11.027  13.144  18.106  0.00  0.00    +0.000 C 
ATOM     17  C   UNL     1       9.855  14.034  17.811  0.00  0.00    +0.000 A 
ATOM     18  C   UNL     1       8.748  13.201  17.603  0.00  0.00    +0.000 A 
ATOM     19  C   UNL     1       7.450  13.682  17.538  0.00  0.00    +0.000 A 
ATOM     20  C   UNL     1       7.266  15.052  17.703  0.00  0.00    +0.000 A 
ATOM     21  C   UNL     1       8.371  15.901  17.906  0.00  0.00    +0.000 A 
ATOM     22  C   UNL     1       9.693  15.409  17.950  0.00  0.00    +0.000 A 
ATOM     23  C   UNL     1       9.138  11.835  17.984  0.00  0.00    +0.000 C 
ATOM     24  O   UNL     1       8.405  10.865  17.903  0.00  0.00    +0.000 OA
BRANCH  22  25
ATOM     25  C   UNL     1      10.826  16.352  18.260  0.00  0.00    +0.000 C 
ATOM     26  F   UNL     1      11.644  15.924  19.258  0.00  0.00    +0.000 F 
ATOM     27  F   UNL     1      11.632  16.556  17.183  0.00  0.00    +0.000 F 
ATOM     28  F   UNL     1      10.386  17.582  18.639  0.00  0.00    +0.000 F 
ENDBRANCH  22  25
ENDBRANCH  12  15
TORSDOF 2
ENDMDL
MODEL 8
REMARK VINA RESULT:      -6.8      6.138      8.093
REMARK  Name = 
REMARK  3 active torsions:
REMARK  status: ('A' for Active; 'I' for Inactive)
REMARK    1  A    between atoms: C_1  and  C_2
REMARK    2  A    between atoms: C_12  and  N_13
REMARK    3  A    between atoms: C_20  and  C_21
REMARK                            x       y       z     vdW  Elec       q    Type
REMARK                         _______ _______ _______ _____ _____    ______ ____
ROOT
ATOM      1  C   UNL     1      -1.236  15.821  19.921  0.00  0.00    +0.000 C 
ATOM      2  C   UNL     1      -0.134  15.978  18.865  0.00  0.00    +0.000 C 
ATOM      3  C   UNL     1       0.554  17.356  19.011  0.00  0.00    +0.000 C 
ATOM      4  C   UNL     1       1.968  17.298  19.463  0.00  0.00    +0.000 A 
ATOM      5  N   UNL     1       2.682  18.286  19.965  0.00  0.00    +0.000 NA
ATOM      6  C   UNL     1       3.936  17.768  20.145  0.00  0.00    +0.000 A 
ATOM      7  C   UNL     1       3.986  16.455  19.743  0.00  0.00    +0.000 A 
ATOM      8  N   UNL     1       2.722  16.164  19.296  0.00  0.00    +0.000 N 
ATOM      9  C   UNL     1       2.203  14.936  18.850  0.00  0.00    +0.000 A 
ATOM     10  C   UNL     1       3.062  13.871  18.578  0.00  0.00    +0.000 A 
ATOM     11  C   UNL     1       2.535  12.600  18.412  0.00  0.00    +0.000 A 
ATOM     12  C   UNL     1       1.177  12.374  18.674  0.00  0.00    +0.000 A 
ATOM     13  C   UNL     1       0.304  13.468  18.718  0.00  0.00    +0.000 A 
ATOM     14  C   UNL     1       0.806  14.781  18.792  0.00  0.00    +0.000 A 
ENDROOT
BRANCH  12  15
ATOM     15  N   UNL     1       0.767  11.121  19.300  0.00  0.00    +0.000 N 
ATOM     16  C   UNL     1      -0.334  10.492  18.529  0.00  0.00    +0.000 C 
ATOM     17  C   UNL     1      -1.552  11.086  19.174  0.00  0.00    +0.000 A 
ATOM     18  C   UNL     1      -1.204  11.413  20.490  0.00  0.00    +0.000 A 
ATOM     19  C   UNL     1      -2.007  12.192  21.308  0.00  0.00    +0.000 A 
ATOM     20  C   UNL     1      -3.199  12.668  20.768  0.00  0.00    +0.000 A 
ATOM     21  C   UNL     1      -3.564  12.340  19.448  0.00  0.00    +0.000 A 
ATOM     22  C   UNL     1      -2.753  11.529  18.627  0.00  0.00    +0.000 A 
ATOM     23  C   UNL     1       0.254  11.255  20.620  0.00  0.00    +0.000 C 
ATOM     24  O   UNL     1       0.875  11.444  21.650  0.00  0.00    +0.000 OA
BRANCH  22  25
ATOM     25  C   UNL     1      -3.152  11.288  17.194  0.00  0.00    +0.000 C 
ATOM     26  F   UNL     1      -2.213  11.668  16.287  0.00  0.00    +0.000 F 
ATOM     27  F   UNL     1      -3.395   9.972  16.945  0.00  0.00    +0.000 F 
ATOM     28  F   UNL     1      -4.290  11.952  16.855  0.00  0.00    +0.000 F 
ENDBRANCH  22  25
ENDBRANCH  12  15
TORSDOF 2
ENDMDL
MODEL 9
REMARK VINA RESULT:      -6.7      8.721     10.457
REMARK  Name = 
REMARK  3 active torsions:
REMARK  status: ('A' for Active; 'I' for Inactive)
REMARK    1  A    between atoms: C_1  and  C_2
REMARK    2  A    between atoms: C_12  and  N_13
REMARK    3  A    between atoms: C_20  and  C_21
REMARK                            x       y       z     vdW  Elec       q    Type
REMARK                         _______ _______ _______ _____ _____    ______ ____
ROOT
ATOM      1  C   UNL     1       7.192  13.226  17.837  0.00  0.00    +0.000 C 
ATOM      2  C   UNL     1       6.908  14.704  17.537  0.00  0.00    +0.000 C 
ATOM      3  C   UNL     1       5.384  14.966  17.535  0.00  0.00    +0.000 C 
ATOM      4  C   UNL     1       4.901  15.825  18.647  0.00  0.00    +0.000 A 
ATOM      5  N   UNL     1       3.659  15.952  19.070  0.00  0.00    +0.000 NA
ATOM      6  C   UNL     1       3.708  16.911  20.045  0.00  0.00    +0.000 A 
ATOM      7  C   UNL     1       4.990  17.376  20.211  0.00  0.00    +0.000 A 
ATOM      8  N   UNL     1       5.749  16.682  19.302  0.00  0.00    +0.000 N 
ATOM      9  C   UNL     1       7.140  16.711  19.107  0.00  0.00    +0.000 A 
ATOM     10  C   UNL     1       7.911  17.703  19.712  0.00  0.00    +0.000 A 
ATOM     11  C   UNL     1       9.290  17.565  19.746  0.00  0.00    +0.000 A 
ATOM     12  C   UNL     1       9.876  16.367  19.318  0.00  0.00    +0.000 A 
ATOM     13  C   UNL     1       9.127  15.494  18.518  0.00  0.00    +0.000 A 
ATOM     14  C   UNL     1       7.736  15.661  18.384  0.00  0.00    +0.000 A 
ENDROOT
BRANCH  12  15
ATOM     15  N   UNL     1      11.043  15.847  20.023  0.00  0.00    +0.000 N 
ATOM     16  C   UNL     1      11.620  14.692  19.292  0.00  0.00    +0.000 C 
ATOM     17  C   UNL     1      10.878  13.534  19.894  0.00  0.00    +0.000 A 
ATOM     18  C   UNL     1      10.499  13.915  21.187  0.00  0.00    +0.000 A 
ATOM     19  C   UNL     1       9.599  13.188  21.950  0.00  0.00    +0.000 A 
ATOM     20  C   UNL     1       9.053  12.042  21.377  0.00  0.00    +0.000 A 
ATOM     21  C   UNL     1       9.432  11.644  20.080  0.00  0.00    +0.000 A 
ATOM     22  C   UNL     1      10.365  12.377  19.316  0.00  0.00    +0.000 A 
ATOM     23  C   UNL     1      10.778  15.353  21.330  0.00  0.00    +0.000 C 
ATOM     24  O   UNL     1      10.579  15.992  22.347  0.00  0.00    +0.000 OA
BRANCH  22  25
ATOM     25  C   UNL     1      10.662  11.953  17.901  0.00  0.00    +0.000 C 
ATOM     26  F   UNL     1       9.978  10.848  17.500  0.00  0.00    +0.000 F 
ATOM     27  F   UNL     1      10.355  12.925  17.000  0.00  0.00    +0.000 F 
ATOM     28  F   UNL     1      11.979  11.667  17.712  0.00  0.00    +0.000 F 
ENDBRANCH  22  25
ENDBRANCH  12  15
TORSDOF 2
ENDMDL
