MODEL 1
REMARK VINA RESULT:      -7.6      0.000      0.000
REMARK  Name = 
REMARK  6 active torsions:
REMARK  status: ('A' for Active; 'I' for Inactive)
REMARK    1  A    between atoms: C_1  and  C_2
REMARK    2  A    between atoms: C_4  and  C_5
REMARK    3  A    between atoms: C_5  and  C_6
REMARK    4  A    between atoms: C_6  and  C_7
REMARK    5  A    between atoms: C_14  and  N_15
REMARK    6  A    between atoms: C_22  and  C_23
REMARK                            x       y       z     vdW  Elec       q    Type
REMARK                         _______ _______ _______ _____ _____    ______ ____
ROOT
ATOM      1  C   UNL     1       2.194  10.630  17.668  0.00  0.00    +0.000 C 
ATOM      2  C   UNL     1       2.313   9.282  18.319  0.00  0.00    +0.000 A 
ATOM      3  C   UNL     1       1.733   9.044  19.571  0.00  0.00    +0.000 A 
ATOM      4  C   UNL     1       1.841   7.788  20.171  0.00  0.00    +0.000 A 
ATOM      5  C   UNL     1       2.575   6.788  19.534  0.00  0.00    +0.000 A 
ATOM      6  C   UNL     1       2.901   6.928  18.182  0.00  0.00    +0.000 A 
ATOM      7  C   UNL     1       2.901   8.213  17.625  0.00  0.00    +0.000 A 
ENDROOT
BRANCH   6   8
ATOM      8  N   UNL     1       2.786   5.749  17.313  0.00  0.00    +0.000 N 
ATOM      9  C   UNL     1       1.787   4.783  17.812  0.00  0.00    +0.000 C 
ATOM     10  C   UNL     1       2.615   3.892  18.690  0.00  0.00    +0.000 A 
ATOM     11  C   UNL     1       3.930   3.948  18.223  0.00  0.00    +0.000 A 
ATOM     12  C   UNL     1       4.995   3.390  18.909  0.00  0.00    +0.000 A 
ATOM     13  C   UNL     1       4.711   2.734  20.105  0.00  0.00    +0.000 A 
ATOM     14  C   UNL     1       3.387   2.647  20.578  0.00  0.00    +0.000 A 
ATOM     15  C   UNL     1       2.308   3.222  19.872  0.00  0.00    +0.000 A 
ATOM     16  C   UNL     1       3.988   4.995  17.175  0.00  0.00    +0.000 C 
ATOM     17  O   UNL     1       4.976   5.241  16.505  0.00  0.00    +0.000 OA
BRANCH  15  18
ATOM     18  C   UNL     1       0.923   3.164  20.460  0.00  0.00    +0.000 C 
ATOM     19  F   UNL     1       0.343   4.384  20.630  0.00  0.00    +0.000 F 
ATOM     20  F   UNL     1       0.062   2.458  19.677  0.00  0.00    +0.000 F 
ATOM     21  F   UNL     1       0.896   2.566  21.682  0.00  0.00    +0.000 F 
ENDBRANCH  15  18
ENDBRANCH   6   8
BRANCH   4  22
ATOM     22  C   UNL     1       0.951   7.388  21.322  0.00  0.00    +0.000 C 
BRANCH  22  23
ATOM     23  C   UNL     1      -0.460   7.966  21.287  0.00  0.00    +0.000 C 
BRANCH  23  24
ATOM     24  C   UNL     1      -0.502   9.284  21.972  0.00  0.00    +0.000 A 
ATOM     25  N   UNL     1      -0.270   9.566  23.242  0.00  0.00    +0.000 NA
ATOM     26  N   UNL     1      -0.411  10.933  23.413  0.00  0.00    +0.000 NA
ATOM     27  C   UNL     1      -0.721  11.448  22.245  0.00  0.00    +0.000 A 
ATOM     28  N   UNL     1      -0.783  10.451  21.334  0.00  0.00    +0.000 N 
ATOM     29  F   UNL     1      -1.065  10.591  20.036  0.00  0.00    +0.000 F 
ENDBRANCH  23  24
ENDBRANCH  22  23
ENDBRANCH   4  22
TORSDOF 5
ENDMDL
MODEL 2
REMARK VINA RESULT:      -7.6      5.808      8.017
REMARK  Name = 
REMARK  6 active torsions:
REMARK  status: ('A' for Active; 'I' for Inactive)
REMARK    1  A    between atoms: C_1  and  C_2
REMARK    2  A    between atoms: C_4  and  C_5
REMARK    3  A    between atoms: C_5  and  C_6
REMARK    4  A    between atoms: C_6  and  C_7
REMARK    5  A    between atoms: C_14  and  N_15
REMARK    6  A    between atoms: C_22  and  C_23
REMARK                            x       y       z     vdW  Elec       q    Type
REMARK                         _______ _______ _______ _____ _____    ______ ____
ROOT
ATOM      1  C   UNL     1      -3.460   9.982  15.152  0.00  0.00    +0.000 C 
ATOM      2  C   UNL     1      -3.101  10.613  16.465  0.00  0.00    +0.000 A 
ATOM      3  C   UNL     1      -4.075  11.269  17.229  0.00  0.00    +0.000 A 
ATOM      4  C   UNL     1      -3.739  11.851  18.453  0.00  0.00    +0.000 A 
ATOM      5  C   UNL     1      -2.413  11.815  18.884  0.00  0.00    +0.000 A 
ATOM      6  C   UNL     1      -1.516  10.929  18.281  0.00  0.00    +0.000 A 
ATOM      7  C   UNL     1      -1.814  10.446  17.000  0.00  0.00    +0.000 A 
ENDROOT
BRANCH   6   8
ATOM      8  N   UNL     1      -0.572  10.203  19.140  0.00  0.00    +0.000 N 
ATOM      9  C   UNL     1      -0.923  10.308  20.570  0.00  0.00    +0.000 C 
ATOM     10  C   UNL     1      -0.166  11.532  20.996  0.00  0.00    +0.000 A 
ATOM     11  C   UNL     1       0.925  11.670  20.133  0.00  0.00    +0.000 A 
ATOM     12  C   UNL     1       1.735  12.792  20.122  0.00  0.00    +0.000 A 
ATOM     13  C   UNL     1       1.438  13.804  21.033  0.00  0.00    +0.000 A 
ATOM     14  C   UNL     1       0.357  13.670  21.925  0.00  0.00    +0.000 A 
ATOM     15  C   UNL     1      -0.465  12.522  21.927  0.00  0.00    +0.000 A 
ATOM     16  C   UNL     1       0.776  10.660  19.059  0.00  0.00    +0.000 C 
ATOM     17  O   UNL     1       1.603  10.459  18.187  0.00  0.00    +0.000 OA
BRANCH  15  18
ATOM     18  C   UNL     1      -1.653  12.462  22.852  0.00  0.00    +0.000 C 
ATOM     19  F   UNL     1      -1.642  13.410  23.829  0.00  0.00    +0.000 F 
ATOM     20  F   UNL     1      -2.829  12.635  22.189  0.00  0.00    +0.000 F 
ATOM     21  F   UNL     1      -1.757  11.267  23.495  0.00  0.00    +0.000 F 
ENDBRANCH  15  18
ENDBRANCH   6   8
BRANCH   4  22
ATOM     22  C   UNL     1      -4.798  12.244  19.453  0.00  0.00    +0.000 C 
BRANCH  22  23
ATOM     23  C   UNL     1      -6.236  11.964  19.026  0.00  0.00    +0.000 C 
BRANCH  23  24
ATOM     24  C   UNL     1      -6.836  10.901  19.874  0.00  0.00    +0.000 A 
ATOM     25  N   UNL     1      -7.561  11.028  20.972  0.00  0.00    +0.000 NA
ATOM     26  N   UNL     1      -7.913   9.760  21.403  0.00  0.00    +0.000 NA
ATOM     27  C   UNL     1      -7.399   8.897  20.557  0.00  0.00    +0.000 A 
ATOM     28  N   UNL     1      -6.728   9.575  19.600  0.00  0.00    +0.000 N 
ATOM     29  F   UNL     1      -6.079   9.034  18.565  0.00  0.00    +0.000 F 
ENDBRANCH  23  24
ENDBRANCH  22  23
ENDBRANCH   4  22
TORSDOF 5
ENDMDL
MODEL 3
REMARK VINA RESULT:      -7.5      6.887     10.282
REMARK  Name = 
REMARK  6 active torsions:
REMARK  status: ('A' for Active; 'I' for Inactive)
REMARK    1  A    between atoms: C_1  and  C_2
REMARK    2  A    between atoms: C_4  and  C_5
REMARK    3  A    between atoms: C_5  and  C_6
REMARK    4  A    between atoms: C_6  and  C_7
REMARK    5  A    between atoms: C_14  and  N_15
REMARK    6  A    between atoms: C_22  and  C_23
REMARK                            x       y       z     vdW  Elec       q    Type
REMARK                         _______ _______ _______ _____ _____    ______ ____
ROOT
ATOM      1  C   UNL     1      -2.824   9.919  16.511  0.00  0.00    +0.000 C 
ATOM      2  C   UNL     1      -3.032  10.805  17.705  0.00  0.00    +0.000 A 
ATOM      3  C   UNL     1      -1.936  11.344  18.389  0.00  0.00    +0.000 A 
ATOM      4  C   UNL     1      -2.132  12.171  19.497  0.00  0.00    +0.000 A 
ATOM      5  C   UNL     1      -3.430  12.416  19.945  0.00  0.00    +0.000 A 
ATOM      6  C   UNL     1      -4.514  12.125  19.109  0.00  0.00    +0.000 A 
ATOM      7  C   UNL     1      -4.328  11.202  18.073  0.00  0.00    +0.000 A 
ENDROOT
BRANCH   6   8
ATOM      8  N   UNL     1      -5.622  13.086  19.049  0.00  0.00    +0.000 N 
ATOM      9  C   UNL     1      -5.472  14.176  20.033  0.00  0.00    +0.000 C 
ATOM     10  C   UNL     1      -6.187  13.625  21.232  0.00  0.00    +0.000 A 
ATOM     11  C   UNL     1      -7.130  12.703  20.769  0.00  0.00    +0.000 A 
ATOM     12  C   UNL     1      -7.843  11.871  21.615  0.00  0.00    +0.000 A 
ATOM     13  C   UNL     1      -7.603  11.992  22.983  0.00  0.00    +0.000 A 
ATOM     14  C   UNL     1      -6.673  12.933  23.466  0.00  0.00    +0.000 A 
ATOM     15  C   UNL     1      -5.949  13.775  22.595  0.00  0.00    +0.000 A 
ATOM     16  C   UNL     1      -6.906  12.526  19.315  0.00  0.00    +0.000 C 
ATOM     17  O   UNL     1      -7.614  11.849  18.590  0.00  0.00    +0.000 OA
BRANCH  15  18
ATOM     18  C   UNL     1      -4.914  14.712  23.160  0.00  0.00    +0.000 C 
ATOM     19  F   UNL     1      -3.647  14.462  22.729  0.00  0.00    +0.000 F 
ATOM     20  F   UNL     1      -5.162  16.010  22.832  0.00  0.00    +0.000 F 
ATOM     21  F   UNL     1      -4.858  14.673  24.520  0.00  0.00    +0.000 F 
ENDBRANCH  15  18
ENDBRANCH   6   8
BRANCH   4  22
ATOM     22  C   UNL     1      -1.023  13.041  20.034  0.00  0.00    +0.000 C 
BRANCH  22  23
ATOM     23  C   UNL     1      -0.906  13.086  21.554  0.00  0.00    +0.000 C 
BRANCH  23  24
ATOM     24  C   UNL     1      -0.447  11.774  22.082  0.00  0.00    +0.000 A 
ATOM     25  N   UNL     1       0.689  11.140  21.851  0.00  0.00    +0.000 NA
ATOM     26  N   UNL     1       0.677   9.960  22.575  0.00  0.00    +0.000 NA
ATOM     27  C   UNL     1      -0.461   9.907  23.230  0.00  0.00    +0.000 A 
ATOM     28  N   UNL     1      -1.176  11.017  22.944  0.00  0.00    +0.000 N 
ATOM     29  F   UNL     1      -2.384  11.319  23.430  0.00  0.00    +0.000 F 
ENDBRANCH  23  24
ENDBRANCH  22  23
ENDBRANCH   4  22
TORSDOF 5
ENDMDL
MODEL 4
REMARK VINA RESULT:      -7.4      5.033      7.661
REMARK  Name = 
REMARK  6 active torsions:
REMARK  status: ('A' for Active; 'I' for Inactive)
REMARK    1  A    between atoms: C_1  and  C_2
REMARK    2  A    between atoms: C_4  and  C_5
REMARK    3  A    between atoms: C_5  and  C_6
REMARK    4  A    between atoms: C_6  and  C_7
REMARK    5  A    between atoms: C_14  and  N_15
REMARK    6  A    between atoms: C_22  and  C_23
REMARK                            x       y       z     vdW  Elec       q    Type
REMARK                         _______ _______ _______ _____ _____    ______ ____
ROOT
ATOM      1  C   UNL     1      -2.629  10.838  16.888  0.00  0.00    +0.000 C 
ATOM      2  C   UNL     1      -2.681  11.702  18.114  0.00  0.00    +0.000 A 
ATOM      3  C   UNL     1      -3.841  11.756  18.897  0.00  0.00    +0.000 A 
ATOM      4  C   UNL     1      -3.886  12.557  20.039  0.00  0.00    +0.000 A 
ATOM      5  C   UNL     1      -2.780  13.342  20.366  0.00  0.00    +0.000 A 
ATOM      6  C   UNL     1      -1.545  13.077  19.766  0.00  0.00    +0.000 A 
ATOM      7  C   UNL     1      -1.529  12.371  18.556  0.00  0.00    +0.000 A 
ENDROOT
BRANCH   6   8
ATOM      8  N   UNL     1      -0.340  13.130  20.603  0.00  0.00    +0.000 N 
ATOM      9  C   UNL     1       0.763  12.321  20.047  0.00  0.00    +0.000 C 
ATOM     10  C   UNL     1       0.535  10.985  20.690  0.00  0.00    +0.000 A 
ATOM     11  C   UNL     1      -0.151  11.208  21.887  0.00  0.00    +0.000 A 
ATOM     12  C   UNL     1      -0.685  10.182  22.648  0.00  0.00    +0.000 A 
ATOM     13  C   UNL     1      -0.499   8.880  22.186  0.00  0.00    +0.000 A 
ATOM     14  C   UNL     1       0.211   8.638  20.994  0.00  0.00    +0.000 A 
ATOM     15  C   UNL     1       0.749   9.691  20.224  0.00  0.00    +0.000 A 
ATOM     16  C   UNL     1      -0.519  12.643  21.931  0.00  0.00    +0.000 C 
ATOM     17  O   UNL     1      -1.056  13.184  22.881  0.00  0.00    +0.000 OA
BRANCH  15  18
ATOM     18  C   UNL     1       1.435   9.380  18.919  0.00  0.00    +0.000 C 
ATOM     19  F   UNL     1       2.109   8.197  18.916  0.00  0.00    +0.000 F 
ATOM     20  F   UNL     1       0.556   9.301  17.882  0.00  0.00    +0.000 F 
ATOM     21  F   UNL     1       2.346  10.328  18.567  0.00  0.00    +0.000 F 
ENDBRANCH  15  18
ENDBRANCH   6   8
BRANCH   4  22
ATOM     22  C   UNL     1      -4.957  12.376  21.086  0.00  0.00    +0.000 C 
BRANCH  22  23
ATOM     23  C   UNL     1      -4.644  12.977  22.452  0.00  0.00    +0.000 C 
BRANCH  23  24
ATOM     24  C   UNL     1      -5.896  13.229  23.212  0.00  0.00    +0.000 A 
ATOM     25  N   UNL     1      -6.608  12.384  23.938  0.00  0.00    +0.000 NA
ATOM     26  N   UNL     1      -7.682  13.076  24.472  0.00  0.00    +0.000 NA
ATOM     27  C   UNL     1      -7.595  14.321  24.062  0.00  0.00    +0.000 A 
ATOM     28  N   UNL     1      -6.499  14.445  23.282  0.00  0.00    +0.000 N 
ATOM     29  F   UNL     1      -6.081  15.566  22.689  0.00  0.00    +0.000 F 
ENDBRANCH  23  24
ENDBRANCH  22  23
ENDBRANCH   4  22
TORSDOF 5
ENDMDL
MODEL 5
REMARK VINA RESULT:      -7.4      5.843      8.788
REMARK  Name = 
REMARK  6 active torsions:
REMARK  status: ('A' for Active; 'I' for Inactive)
REMARK    1  A    between atoms: C_1  and  C_2
REMARK    2  A    between atoms: C_4  and  C_5
REMARK    3  A    between atoms: C_5  and  C_6
REMARK    4  A    between atoms: C_6  and  C_7
REMARK    5  A    between atoms: C_14  and  N_15
REMARK    6  A    between atoms: C_22  and  C_23
REMARK                            x       y       z     vdW  Elec       q    Type
REMARK                         _______ _______ _______ _____ _____    ______ ____
ROOT
ATOM      1  C   UNL     1      -6.865  12.216  18.939  0.00  0.00    +0.000 C 
ATOM      2  C   UNL     1      -5.454  11.876  18.557  0.00  0.00    +0.000 A 
ATOM      3  C   UNL     1      -5.140  11.524  17.238  0.00  0.00    +0.000 A 
ATOM      4  C   UNL     1      -3.826  11.213  16.885  0.00  0.00    +0.000 A 
ATOM      5  C   UNL     1      -2.837  11.209  17.868  0.00  0.00    +0.000 A 
ATOM      6  C   UNL     1      -3.084  11.829  19.097  0.00  0.00    +0.000 A 
ATOM      7  C   UNL     1      -4.415  12.027  19.488  0.00  0.00    +0.000 A 
ENDROOT
BRANCH   6   8
ATOM      8  N   UNL     1      -2.013  12.633  19.698  0.00  0.00    +0.000 N 
ATOM      9  C   UNL     1      -0.679  12.259  19.187  0.00  0.00    +0.000 C 
ATOM     10  C   UNL     1      -0.251  11.200  20.159  0.00  0.00    +0.000 A 
ATOM     11  C   UNL     1      -0.926  11.435  21.360  0.00  0.00    +0.000 A 
ATOM     12  C   UNL     1      -0.907  10.544  22.419  0.00  0.00    +0.000 A 
ATOM     13  C   UNL     1      -0.160   9.378  22.260  0.00  0.00    +0.000 A 
ATOM     14  C   UNL     1       0.546   9.137  21.065  0.00  0.00    +0.000 A 
ATOM     15  C   UNL     1       0.518  10.051  19.990  0.00  0.00    +0.000 A 
ATOM     16  C   UNL     1      -1.909  12.517  21.115  0.00  0.00    +0.000 C 
ATOM     17  O   UNL     1      -2.605  13.020  21.980  0.00  0.00    +0.000 OA
BRANCH  15  18
ATOM     18  C   UNL     1       1.231   9.710  18.708  0.00  0.00    +0.000 C 
ATOM     19  F   UNL     1       0.399   9.510  17.649  0.00  0.00    +0.000 F 
ATOM     20  F   UNL     1       2.087  10.693  18.318  0.00  0.00    +0.000 F 
ATOM     21  F   UNL     1       1.981   8.578  18.810  0.00  0.00    +0.000 F 
ENDBRANCH  15  18
ENDBRANCH   6   8
BRANCH   4  22
ATOM     22  C   UNL     1      -3.388  11.178  15.441  0.00  0.00    +0.000 C 
BRANCH  22  23
ATOM     23  C   UNL     1      -3.196   9.785  14.850  0.00  0.00    +0.000 C 
BRANCH  23  24
ATOM     24  C   UNL     1      -3.859   9.684  13.524  0.00  0.00    +0.000 A 
ATOM     25  N   UNL     1      -5.148   9.721  13.237  0.00  0.00    +0.000 NA
ATOM     26  N   UNL     1      -5.287   9.607  11.864  0.00  0.00    +0.000 NA
ATOM     27  C   UNL     1      -4.082   9.508  11.351  0.00  0.00    +0.000 A 
ATOM     28  N   UNL     1      -3.178   9.555  12.355  0.00  0.00    +0.000 N 
ATOM     29  F   UNL     1      -1.851   9.490  12.219  0.00  0.00    +0.000 F 
ENDBRANCH  23  24
ENDBRANCH  22  23
ENDBRANCH   4  22
TORSDOF 5
ENDMDL
MODEL 6
REMARK VINA RESULT:      -7.2      5.434      7.951
REMARK  Name = 
REMARK  6 active torsions:
REMARK  status: ('A' for Active; 'I' for Inactive)
REMARK    1  A    between atoms: C_1  and  C_2
REMARK    2  A    between atoms: C_4  and  C_5
REMARK    3  A    between atoms: C_5  and  C_6
REMARK    4  A    between atoms: C_6  and  C_7
REMARK    5  A    between atoms: C_14  and  N_15
REMARK    6  A    between atoms: C_22  and  C_23
REMARK                            x       y       z     vdW  Elec       q    Type
REMARK                         _______ _______ _______ _____ _____    ______ ____
ROOT
ATOM      1  C   UNL     1      -5.369  12.633  19.780  0.00  0.00    +0.000 C 
ATOM      2  C   UNL     1      -4.159  12.058  19.103  0.00  0.00    +0.000 A 
ATOM      3  C   UNL     1      -4.200  11.714  17.746  0.00  0.00    +0.000 A 
ATOM      4  C   UNL     1      -3.071  11.184  17.118  0.00  0.00    +0.000 A 
ATOM      5  C   UNL     1      -1.917  10.955  17.868  0.00  0.00    +0.000 A 
ATOM      6  C   UNL     1      -1.781  11.555  19.124  0.00  0.00    +0.000 A 
ATOM      7  C   UNL     1      -2.938  11.975  19.791  0.00  0.00    +0.000 A 
ENDROOT
BRANCH   6   8
ATOM      8  N   UNL     1      -0.476  12.122  19.485  0.00  0.00    +0.000 N 
ATOM      9  C   UNL     1       0.640  11.438  18.803  0.00  0.00    +0.000 C 
ATOM     10  C   UNL     1       0.991  10.350  19.774  0.00  0.00    +0.000 A 
ATOM     11  C   UNL     1       0.596  10.779  21.044  0.00  0.00    +0.000 A 
ATOM     12  C   UNL     1       0.602   9.949  22.152  0.00  0.00    +0.000 A 
ATOM     13  C   UNL     1       1.044   8.641  21.968  0.00  0.00    +0.000 A 
ATOM     14  C   UNL     1       1.468   8.199  20.700  0.00  0.00    +0.000 A 
ATOM     15  C   UNL     1       1.455   9.052  19.575  0.00  0.00    +0.000 A 
ATOM     16  C   UNL     1      -0.160  12.043  20.874  0.00  0.00    +0.000 C 
ATOM     17  O   UNL     1      -0.575  12.723  21.796  0.00  0.00    +0.000 OA
BRANCH  15  18
ATOM     18  C   UNL     1       1.849   8.508  18.227  0.00  0.00    +0.000 C 
ATOM     19  F   UNL     1       0.874   8.609  17.283  0.00  0.00    +0.000 F 
ATOM     20  F   UNL     1       2.928   9.155  17.707  0.00  0.00    +0.000 F 
ATOM     21  F   UNL     1       2.188   7.190  18.272  0.00  0.00    +0.000 F 
ENDBRANCH  15  18
ENDBRANCH   6   8
BRANCH   4  22
ATOM     22  C   UNL     1      -2.958  11.135  15.614  0.00  0.00    +0.000 C 
BRANCH  22  23
ATOM     23  C   UNL     1      -2.927   9.736  15.008  0.00  0.00    +0.000 C 
BRANCH  23  24
ATOM     24  C   UNL     1      -3.682   9.704  13.728  0.00  0.00    +0.000 A 
ATOM     25  N   UNL     1      -4.986   9.798  13.532  0.00  0.00    +0.000 NA
ATOM     26  N   UNL     1      -5.222   9.735  12.169  0.00  0.00    +0.000 NA
ATOM     27  C   UNL     1      -4.059   9.609  11.571  0.00  0.00    +0.000 A 
ATOM     28  N   UNL     1      -3.089   9.588  12.511  0.00  0.00    +0.000 N 
ATOM     29  F   UNL     1      -1.777   9.478  12.281  0.00  0.00    +0.000 F 
ENDBRANCH  23  24
ENDBRANCH  22  23
ENDBRANCH   4  22
TORSDOF 5
ENDMDL
MODEL 7
REMARK VINA RESULT:      -7.2      4.696      7.027
REMARK  Name = 
REMARK  6 active torsions:
REMARK  status: ('A' for Active; 'I' for Inactive)
REMARK    1  A    between atoms: C_1  and  C_2
REMARK    2  A    between atoms: C_4  and  C_5
REMARK    3  A    between atoms: C_5  and  C_6
REMARK    4  A    between atoms: C_6  and  C_7
REMARK    5  A    between atoms: C_14  and  N_15
REMARK    6  A    between atoms: C_22  and  C_23
REMARK                            x       y       z     vdW  Elec       q    Type
REMARK                         _______ _______ _______ _____ _____    ______ ____
ROOT
ATOM      1  C   UNL     1      -2.421  10.054  16.496  0.00  0.00    +0.000 C 
ATOM      2  C   UNL     1      -2.430  11.110  17.562  0.00  0.00    +0.000 A 
ATOM      3  C   UNL     1      -3.574  11.325  18.340  0.00  0.00    +0.000 A 
ATOM      4  C   UNL     1      -3.579  12.305  19.335  0.00  0.00    +0.000 A 
ATOM      5  C   UNL     1      -2.447  13.101  19.513  0.00  0.00    +0.000 A 
ATOM      6  C   UNL     1      -1.230  12.705  18.949  0.00  0.00    +0.000 A 
ATOM      7  C   UNL     1      -1.253  11.809  17.873  0.00  0.00    +0.000 A 
ENDROOT
BRANCH   6   8
ATOM      8  N   UNL     1      -0.010  12.862  19.751  0.00  0.00    +0.000 N 
ATOM      9  C   UNL     1       1.058  11.932  19.332  0.00  0.00    +0.000 C 
ATOM     10  C   UNL     1       0.799  10.736  20.199  0.00  0.00    +0.000 A 
ATOM     11  C   UNL     1       0.141  11.185  21.347  0.00  0.00    +0.000 A 
ATOM     12  C   UNL     1      -0.412  10.325  22.280  0.00  0.00    +0.000 A 
ATOM     13  C   UNL     1      -0.276   8.957  22.049  0.00  0.00    +0.000 A 
ATOM     14  C   UNL     1       0.406   8.488  20.909  0.00  0.00    +0.000 A 
ATOM     15  C   UNL     1       0.964   9.374  19.961  0.00  0.00    +0.000 A 
ATOM     16  C   UNL     1      -0.182  12.618  21.145  0.00  0.00    +0.000 C 
ATOM     17  O   UNL     1      -0.685  13.333  21.993  0.00  0.00    +0.000 OA
BRANCH  15  18
ATOM     18  C   UNL     1       1.618   8.819  18.723  0.00  0.00    +0.000 C 
ATOM     19  F   UNL     1       2.760   9.465  18.363  0.00  0.00    +0.000 F 
ATOM     20  F   UNL     1       1.969   7.512  18.869  0.00  0.00    +0.000 F 
ATOM     21  F   UNL     1       0.803   8.869  17.633  0.00  0.00    +0.000 F 
ENDBRANCH  15  18
ENDBRANCH   6   8
BRANCH   4  22
ATOM     22  C   UNL     1      -4.636  12.329  20.410  0.00  0.00    +0.000 C 
BRANCH  22  23
ATOM     23  C   UNL     1      -4.492  13.442  21.442  0.00  0.00    +0.000 C 
BRANCH  23  24
ATOM     24  C   UNL     1      -4.582  12.893  22.821  0.00  0.00    +0.000 A 
ATOM     25  N   UNL     1      -3.686  12.191  23.493  0.00  0.00    +0.000 NA
ATOM     26  N   UNL     1      -4.208  11.916  24.746  0.00  0.00    +0.000 NA
ATOM     27  C   UNL     1      -5.402  12.459  24.806  0.00  0.00    +0.000 A 
ATOM     28  N   UNL     1      -5.659  13.072  23.629  0.00  0.00    +0.000 N 
ATOM     29  F   UNL     1      -6.774  13.739  23.320  0.00  0.00    +0.000 F 
ENDBRANCH  23  24
ENDBRANCH  22  23
ENDBRANCH   4  22
TORSDOF 5
ENDMDL
MODEL 8
REMARK VINA RESULT:      -7.2      6.193     10.393
REMARK  Name = 
REMARK  6 active torsions:
REMARK  status: ('A' for Active; 'I' for Inactive)
REMARK    1  A    between atoms: C_1  and  C_2
REMARK    2  A    between atoms: C_4  and  C_5
REMARK    3  A    between atoms: C_5  and  C_6
REMARK    4  A    between atoms: C_6  and  C_7
REMARK    5  A    between atoms: C_14  and  N_15
REMARK    6  A    between atoms: C_22  and  C_23
REMARK                            x       y       z     vdW  Elec       q    Type
REMARK                         _______ _______ _______ _____ _____    ______ ____
ROOT
ATOM      1  C   UNL     1      -2.743  10.446  16.559  0.00  0.00    +0.000 C 
ATOM      2  C   UNL     1      -3.011  11.210  17.823  0.00  0.00    +0.000 A 
ATOM      3  C   UNL     1      -1.952  11.734  18.574  0.00  0.00    +0.000 A 
ATOM      4  C   UNL     1      -2.203  12.449  19.747  0.00  0.00    +0.000 A 
ATOM      5  C   UNL     1      -3.519  12.593  20.189  0.00  0.00    +0.000 A 
ATOM      6  C   UNL     1      -4.574  12.330  19.310  0.00  0.00    +0.000 A 
ATOM      7  C   UNL     1      -4.329  11.513  18.199  0.00  0.00    +0.000 A 
ENDROOT
BRANCH   6   8
ATOM      8  N   UNL     1      -5.725  13.241  19.314  0.00  0.00    +0.000 N 
ATOM      9  C   UNL     1      -5.522  14.396  20.211  0.00  0.00    +0.000 C 
ATOM     10  C   UNL     1      -6.081  13.894  21.510  0.00  0.00    +0.000 A 
ATOM     11  C   UNL     1      -7.025  12.909  21.206  0.00  0.00    +0.000 A 
ATOM     12  C   UNL     1      -7.605  12.104  22.171  0.00  0.00    +0.000 A 
ATOM     13  C   UNL     1      -7.229  12.319  23.495  0.00  0.00    +0.000 A 
ATOM     14  C   UNL     1      -6.297  13.325  23.820  0.00  0.00    +0.000 A 
ATOM     15  C   UNL     1      -5.708  14.139  22.829  0.00  0.00    +0.000 A 
ATOM     16  C   UNL     1      -6.947  12.650  19.749  0.00  0.00    +0.000 C 
ATOM     17  O   UNL     1      -7.696  11.901  19.145  0.00  0.00    +0.000 OA
BRANCH  15  18
ATOM     18  C   UNL     1      -4.662  15.149  23.223  0.00  0.00    +0.000 C 
ATOM     19  F   UNL     1      -4.903  16.405  22.758  0.00  0.00    +0.000 F 
ATOM     20  F   UNL     1      -4.554  15.275  24.574  0.00  0.00    +0.000 F 
ATOM     21  F   UNL     1      -3.420  14.818  22.777  0.00  0.00    +0.000 F 
ENDBRANCH  15  18
ENDBRANCH   6   8
BRANCH   4  22
ATOM     22  C   UNL     1      -1.145  13.317  20.381  0.00  0.00    +0.000 C 
BRANCH  22  23
ATOM     23  C   UNL     1       0.146  12.599  20.762  0.00  0.00    +0.000 C 
BRANCH  23  24
ATOM     24  C   UNL     1      -0.134  11.476  21.694  0.00  0.00    +0.000 A 
ATOM     25  N   UNL     1      -0.513  11.525  22.959  0.00  0.00    +0.000 NA
ATOM     26  N   UNL     1      -0.669  10.226  23.412  0.00  0.00    +0.000 NA
ATOM     27  C   UNL     1      -0.387   9.422  22.412  0.00  0.00    +0.000 A 
ATOM     28  N   UNL     1      -0.054  10.168  21.336  0.00  0.00    +0.000 N 
ATOM     29  F   UNL     1       0.288   9.700  20.133  0.00  0.00    +0.000 F 
ENDBRANCH  23  24
ENDBRANCH  22  23
ENDBRANCH   4  22
TORSDOF 5
ENDMDL
MODEL 9
REMARK VINA RESULT:      -7.2      5.803      7.950
REMARK  Name = 
REMARK  6 active torsions:
REMARK  status: ('A' for Active; 'I' for Inactive)
REMARK    1  A    between atoms: C_1  and  C_2
REMARK    2  A    between atoms: C_4  and  C_5
REMARK    3  A    between atoms: C_5  and  C_6
REMARK    4  A    between atoms: C_6  and  C_7
REMARK    5  A    between atoms: C_14  and  N_15
REMARK    6  A    between atoms: C_22  and  C_23
REMARK                            x       y       z     vdW  Elec       q    Type
REMARK                         _______ _______ _______ _____ _____    ______ ____
ROOT
ATOM      1  C   UNL     1      -3.434  10.090  14.862  0.00  0.00    +0.000 C 
ATOM      2  C   UNL     1      -3.169  10.607  16.246  0.00  0.00    +0.000 A 
ATOM      3  C   UNL     1      -4.213  11.122  17.024  0.00  0.00    +0.000 A 
ATOM      4  C   UNL     1      -3.965  11.599  18.313  0.00  0.00    +0.000 A 
ATOM      5  C   UNL     1      -2.657  11.603  18.799  0.00  0.00    +0.000 A 
ATOM      6  C   UNL     1      -1.680  10.838  18.154  0.00  0.00    +0.000 A 
ATOM      7  C   UNL     1      -1.895  10.468  16.820  0.00  0.00    +0.000 A 
ENDROOT
BRANCH   6   8
ATOM      8  N   UNL     1      -0.725  10.089  18.981  0.00  0.00    +0.000 N 
ATOM      9  C   UNL     1      -0.858  10.409  20.416  0.00  0.00    +0.000 C 
ATOM     10  C   UNL     1       0.099  11.553  20.579  0.00  0.00    +0.000 A 
ATOM     11  C   UNL     1       1.068  11.434  19.579  0.00  0.00    +0.000 A 
ATOM     12  C   UNL     1       2.003  12.420  19.319  0.00  0.00    +0.000 A 
ATOM     13  C   UNL     1       1.966  13.563  20.116  0.00  0.00    +0.000 A 
ATOM     14  C   UNL     1       1.011  13.688  21.144  0.00  0.00    +0.000 A 
ATOM     15  C   UNL     1       0.059  12.677  21.399  0.00  0.00    +0.000 A 
ATOM     16  C   UNL     1       0.645  10.338  18.675  0.00  0.00    +0.000 C 
ATOM     17  O   UNL     1       1.312   9.922  17.743  0.00  0.00    +0.000 OA
BRANCH  15  18
ATOM     18  C   UNL     1      -0.986  12.894  22.462  0.00  0.00    +0.000 C 
ATOM     19  F   UNL     1      -1.093  11.868  23.350  0.00  0.00    +0.000 F 
ATOM     20  F   UNL     1      -0.734  14.001  23.212  0.00  0.00    +0.000 F 
ATOM     21  F   UNL     1      -2.233  13.068  21.943  0.00  0.00    +0.000 F 
ENDBRANCH  15  18
ENDBRANCH   6   8
BRANCH   4  22
ATOM     22  C   UNL     1      -5.086  11.825  19.297  0.00  0.00    +0.000 C 
BRANCH  22  23
ATOM     23  C   UNL     1      -5.045  13.157  20.038  0.00  0.00    +0.000 C 
BRANCH  23  24
ATOM     24  C   UNL     1      -5.731  13.046  21.352  0.00  0.00    +0.000 A 
ATOM     25  N   UNL     1      -5.444  12.257  22.372  0.00  0.00    +0.000 NA
ATOM     26  N   UNL     1      -6.349  12.519  23.387  0.00  0.00    +0.000 NA
ATOM     27  C   UNL     1      -7.159  13.461  22.961  0.00  0.00    +0.000 A 
ATOM     28  N   UNL     1      -6.799  13.808  21.706  0.00  0.00    +0.000 N 
ATOM     29  F   UNL     1      -7.388  14.738  20.950  0.00  0.00    +0.000 F 
ENDBRANCH  23  24
ENDBRANCH  22  23
ENDBRANCH   4  22
TORSDOF 5
ENDMDL
