MODEL 1
REMARK VINA RESULT:      -7.1      0.000      0.000
REMARK  Name = 
REMARK  5 active torsions:
REMARK  status: ('A' for Active; 'I' for Inactive)
REMARK    1  A    between atoms: C_1  and  O_2
REMARK    2  A    between atoms: O_2  and  C_3
REMARK    3  A    between atoms: N_9  and  C_10
REMARK    4  A    between atoms: C_10  and  C_11
REMARK    5  A    between atoms: N_15  and  C_16
REMARK                            x       y       z     vdW  Elec       q    Type
REMARK                         _______ _______ _______ _____ _____    ______ ____
ROOT
ATOM      1  C   UNL     1      -4.040  13.068  20.363  0.00  0.00    +0.000 A 
ATOM      2  N   UNL     1      -3.655  13.145  21.629  0.00  0.00    +0.000 NA
ATOM      3  N   UNL     1      -2.460  12.503  21.762  0.00  0.00    +0.000 NA
ATOM      4  C   UNL     1      -2.162  11.974  20.596  0.00  0.00    +0.000 A 
ATOM      5  N   UNL     1      -1.013  11.277  20.272  0.00  0.00    +0.000 N 
ATOM      6  C   UNL     1       0.089  11.127  21.202  0.00  0.00    +0.000 C 
ATOM      7  C   UNL     1      -0.905  10.700  19.015  0.00  0.00    +0.000 A 
ATOM      8  O   UNL     1       0.086  10.069  18.651  0.00  0.00    +0.000 OA
ATOM      9  C   UNL     1      -2.063  10.833  18.085  0.00  0.00    +0.000 A 
ATOM     10  C   UNL     1      -1.997  10.185  16.842  0.00  0.00    +0.000 A 
ATOM     11  C   UNL     1      -3.064  10.261  15.954  0.00  0.00    +0.000 A 
ATOM     12  C   UNL     1      -4.214  10.955  16.316  0.00  0.00    +0.000 A 
ATOM     13  C   UNL     1      -4.297  11.584  17.561  0.00  0.00    +0.000 A 
ATOM     14  C   UNL     1      -3.207  11.564  18.439  0.00  0.00    +0.000 A 
ATOM     15  N   UNL     1      -3.194  12.192  19.703  0.00  0.00    +0.000 N 
ENDROOT
BRANCH   1  16
ATOM     16  C   UNL     1      -5.169  13.881  19.805  0.00  0.00    +0.000 C 
BRANCH  16  23
ATOM     17  C   UNL     1      -6.772  14.676  22.310  0.00  0.00    +0.000 A 
ATOM     18  C   UNL     1      -7.107  14.651  23.675  0.00  0.00    +0.000 A 
ATOM     19  C   UNL     1      -7.649  13.512  24.254  0.00  0.00    +0.000 A 
ATOM     20  C   UNL     1      -7.858  12.382  23.478  0.00  0.00    +0.000 A 
ATOM     21  C   UNL     1      -7.491  12.367  22.121  0.00  0.00    +0.000 A 
ATOM     22  C   UNL     1      -6.920  13.509  21.509  0.00  0.00    +0.000 A 
ATOM     23  N   UNL     1      -6.545  13.463  20.148  0.00  0.00    +0.000 N 
ATOM     24  C   UNL     1      -7.121  12.388  19.335  0.00  0.00    +0.000 C 
ATOM     25  C   UNL     1      -7.028  11.044  20.027  0.00  0.00    +0.000 C 
ATOM     26  C   UNL     1      -7.771  11.102  21.346  0.00  0.00    +0.000 C 
BRANCH  17  28
ATOM     27  C   UNL     1      -7.274  16.851  21.490  0.00  0.00    +0.000 C 
ATOM     28  O   UNL     1      -6.307  15.823  21.702  0.00  0.00    +0.000 OA
ENDBRANCH  17  28
ENDBRANCH  16  23
ENDBRANCH   1  16
TORSDOF 3
ENDMDL
MODEL 2
REMARK VINA RESULT:      -7.0      2.349      6.083
REMARK  Name = 
REMARK  5 active torsions:
REMARK  status: ('A' for Active; 'I' for Inactive)
REMARK    1  A    between atoms: C_1  and  O_2
REMARK    2  A    between atoms: O_2  and  C_3
REMARK    3  A    between atoms: N_9  and  C_10
REMARK    4  A    between atoms: C_10  and  C_11
REMARK    5  A    between atoms: N_15  and  C_16
REMARK                            x       y       z     vdW  Elec       q    Type
REMARK                         _______ _______ _______ _____ _____    ______ ____
ROOT
ATOM      1  C   UNL     1      -2.572  13.735  20.458  0.00  0.00    +0.000 A 
ATOM      2  N   UNL     1      -3.370  14.582  21.093  0.00  0.00    +0.000 NA
ATOM      3  N   UNL     1      -4.652  14.133  20.992  0.00  0.00    +0.000 NA
ATOM      4  C   UNL     1      -4.638  13.060  20.233  0.00  0.00    +0.000 A 
ATOM      5  N   UNL     1      -5.718  12.258  19.911  0.00  0.00    +0.000 N 
ATOM      6  C   UNL     1      -7.035  12.468  20.481  0.00  0.00    +0.000 C 
ATOM      7  C   UNL     1      -5.542  11.215  19.013  0.00  0.00    +0.000 A 
ATOM      8  O   UNL     1      -6.451  10.458  18.681  0.00  0.00    +0.000 OA
ATOM      9  C   UNL     1      -4.190  11.036  18.409  0.00  0.00    +0.000 A 
ATOM     10  C   UNL     1      -4.020  10.036  17.440  0.00  0.00    +0.000 A 
ATOM     11  C   UNL     1      -2.783   9.851  16.832  0.00  0.00    +0.000 A 
ATOM     12  C   UNL     1      -1.721  10.685  17.163  0.00  0.00    +0.000 A 
ATOM     13  C   UNL     1      -1.887  11.699  18.111  0.00  0.00    +0.000 A 
ATOM     14  C   UNL     1      -3.110  11.856  18.773  0.00  0.00    +0.000 A 
ATOM     15  N   UNL     1      -3.360  12.835  19.759  0.00  0.00    +0.000 N 
ENDROOT
BRANCH   1  16
ATOM     16  C   UNL     1      -1.079  13.772  20.585  0.00  0.00    +0.000 C 
BRANCH  16  23
ATOM     17  C   UNL     1       0.864  11.432  20.108  0.00  0.00    +0.000 A 
ATOM     18  C   UNL     1       1.229  10.134  19.710  0.00  0.00    +0.000 A 
ATOM     19  C   UNL     1       0.793   9.024  20.420  0.00  0.00    +0.000 A 
ATOM     20  C   UNL     1      -0.017   9.196  21.531  0.00  0.00    +0.000 A 
ATOM     21  C   UNL     1      -0.432  10.480  21.924  0.00  0.00    +0.000 A 
ATOM     22  C   UNL     1      -0.017  11.629  21.208  0.00  0.00    +0.000 A 
ATOM     23  N   UNL     1      -0.460  12.906  21.613  0.00  0.00    +0.000 N 
ATOM     24  C   UNL     1      -0.996  13.026  22.973  0.00  0.00    +0.000 C 
ATOM     25  C   UNL     1      -1.984  11.922  23.289  0.00  0.00    +0.000 C 
ATOM     26  C   UNL     1      -1.297  10.577  23.157  0.00  0.00    +0.000 C 
BRANCH  17  28
ATOM     27  C   UNL     1       2.211  12.298  18.349  0.00  0.00    +0.000 C 
ATOM     28  O   UNL     1       1.351  12.548  19.462  0.00  0.00    +0.000 OA
ENDBRANCH  17  28
ENDBRANCH  16  23
ENDBRANCH   1  16
TORSDOF 3
ENDMDL
MODEL 3
REMARK VINA RESULT:      -7.0      4.659      6.921
REMARK  Name = 
REMARK  5 active torsions:
REMARK  status: ('A' for Active; 'I' for Inactive)
REMARK    1  A    between atoms: C_1  and  O_2
REMARK    2  A    between atoms: O_2  and  C_3
REMARK    3  A    between atoms: N_9  and  C_10
REMARK    4  A    between atoms: C_10  and  C_11
REMARK    5  A    between atoms: N_15  and  C_16
REMARK                            x       y       z     vdW  Elec       q    Type
REMARK                         _______ _______ _______ _____ _____    ______ ____
ROOT
ATOM      1  C   UNL     1       0.971  13.886  20.852  0.00  0.00    +0.000 A 
ATOM      2  N   UNL     1       1.896  13.065  21.331  0.00  0.00    +0.000 NA
ATOM      3  N   UNL     1       3.125  13.596  21.077  0.00  0.00    +0.000 NA
ATOM      4  C   UNL     1       2.946  14.695  20.379  0.00  0.00    +0.000 A 
ATOM      5  N   UNL     1       3.924  15.573  19.950  0.00  0.00    +0.000 N 
ATOM      6  C   UNL     1       5.317  15.422  20.324  0.00  0.00    +0.000 C 
ATOM      7  C   UNL     1       3.566  16.637  19.135  0.00  0.00    +0.000 A 
ATOM      8  O   UNL     1       4.377  17.462  18.717  0.00  0.00    +0.000 OA
ATOM      9  C   UNL     1       2.136  16.756  18.730  0.00  0.00    +0.000 A 
ATOM     10  C   UNL     1       1.778  17.781  17.842  0.00  0.00    +0.000 A 
ATOM     11  C   UNL     1       0.460  17.913  17.418  0.00  0.00    +0.000 A 
ATOM     12  C   UNL     1      -0.498  17.004  17.852  0.00  0.00    +0.000 A 
ATOM     13  C   UNL     1      -0.145  15.966  18.720  0.00  0.00    +0.000 A 
ATOM     14  C   UNL     1       1.165  15.858  19.199  0.00  0.00    +0.000 A 
ATOM     15  N   UNL     1       1.603  14.859  20.096  0.00  0.00    +0.000 N 
ENDROOT
BRANCH   1  16
ATOM     16  C   UNL     1      -0.485  13.752  21.181  0.00  0.00    +0.000 C 
BRANCH  16  23
ATOM     17  C   UNL     1      -0.967  11.107  22.680  0.00  0.00    +0.000 A 
ATOM     18  C   UNL     1      -0.604   9.868  23.236  0.00  0.00    +0.000 A 
ATOM     19  C   UNL     1      -0.232   8.805  22.424  0.00  0.00    +0.000 A 
ATOM     20  C   UNL     1      -0.213   8.969  21.047  0.00  0.00    +0.000 A 
ATOM     21  C   UNL     1      -0.530  10.211  20.469  0.00  0.00    +0.000 A 
ATOM     22  C   UNL     1      -0.895  11.317  21.275  0.00  0.00    +0.000 A 
ATOM     23  N   UNL     1      -1.192  12.557  20.670  0.00  0.00    +0.000 N 
ATOM     24  C   UNL     1      -1.496  12.544  19.236  0.00  0.00    +0.000 C 
ATOM     25  C   UNL     1      -0.493  11.723  18.453  0.00  0.00    +0.000 C 
ATOM     26  C   UNL     1      -0.502  10.295  18.962  0.00  0.00    +0.000 C 
BRANCH  17  28
ATOM     27  C   UNL     1      -2.828  12.237  23.637  0.00  0.00    +0.000 C 
ATOM     28  O   UNL     1      -1.413  12.147  23.467  0.00  0.00    +0.000 OA
ENDBRANCH  17  28
ENDBRANCH  16  23
ENDBRANCH   1  16
TORSDOF 3
ENDMDL
MODEL 4
REMARK VINA RESULT:      -6.8      5.962     10.631
REMARK  Name = 
REMARK  5 active torsions:
REMARK  status: ('A' for Active; 'I' for Inactive)
REMARK    1  A    between atoms: C_1  and  O_2
REMARK    2  A    between atoms: O_2  and  C_3
REMARK    3  A    between atoms: N_9  and  C_10
REMARK    4  A    between atoms: C_10  and  C_11
REMARK    5  A    between atoms: N_15  and  C_16
REMARK                            x       y       z     vdW  Elec       q    Type
REMARK                         _______ _______ _______ _____ _____    ______ ____
ROOT
ATOM      1  C   UNL     1       1.940   8.502  18.782  0.00  0.00    +0.000 A 
ATOM      2  N   UNL     1       2.241   8.914  17.558  0.00  0.00    +0.000 NA
ATOM      3  N   UNL     1       2.039  10.260  17.489  0.00  0.00    +0.000 NA
ATOM      4  C   UNL     1       1.544  10.647  18.644  0.00  0.00    +0.000 A 
ATOM      5  N   UNL     1       1.238  11.941  19.022  0.00  0.00    +0.000 N 
ATOM      6  C   UNL     1       1.533  13.084  18.180  0.00  0.00    +0.000 C 
ATOM      7  C   UNL     1       0.628  12.160  20.249  0.00  0.00    +0.000 A 
ATOM      8  O   UNL     1       0.329  13.280  20.657  0.00  0.00    +0.000 OA
ATOM      9  C   UNL     1       0.299  10.971  21.086  0.00  0.00    +0.000 A 
ATOM     10  C   UNL     1      -0.390  11.174  22.291  0.00  0.00    +0.000 A 
ATOM     11  C   UNL     1      -0.740  10.091  23.091  0.00  0.00    +0.000 A 
ATOM     12  C   UNL     1      -0.434   8.800  22.674  0.00  0.00    +0.000 A 
ATOM     13  C   UNL     1       0.232   8.587  21.464  0.00  0.00    +0.000 A 
ATOM     14  C   UNL     1       0.641   9.671  20.680  0.00  0.00    +0.000 A 
ATOM     15  N   UNL     1       1.339   9.550  19.459  0.00  0.00    +0.000 N 
ENDROOT
BRANCH   1  16
ATOM     16  C   UNL     1       2.291   7.136  19.290  0.00  0.00    +0.000 C 
BRANCH  16  23
ATOM     17  C   UNL     1       2.622   4.090  19.591  0.00  0.00    +0.000 A 
ATOM     18  C   UNL     1       3.153   2.909  20.139  0.00  0.00    +0.000 A 
ATOM     19  C   UNL     1       4.485   2.571  19.945  0.00  0.00    +0.000 A 
ATOM     20  C   UNL     1       5.304   3.410  19.206  0.00  0.00    +0.000 A 
ATOM     21  C   UNL     1       4.809   4.618  18.684  0.00  0.00    +0.000 A 
ATOM     22  C   UNL     1       3.458   4.997  18.882  0.00  0.00    +0.000 A 
ATOM     23  N   UNL     1       2.990   6.222  18.361  0.00  0.00    +0.000 N 
ATOM     24  C   UNL     1       3.798   6.853  17.312  0.00  0.00    +0.000 C 
ATOM     25  C   UNL     1       5.269   6.879  17.671  0.00  0.00    +0.000 C 
ATOM     26  C   UNL     1       5.764   5.461  17.876  0.00  0.00    +0.000 C 
BRANCH  17  28
ATOM     27  C   UNL     1       0.397   3.292  19.850  0.00  0.00    +0.000 C 
ATOM     28  O   UNL     1       1.284   4.401  19.708  0.00  0.00    +0.000 OA
ENDBRANCH  17  28
ENDBRANCH  16  23
ENDBRANCH   1  16
TORSDOF 3
ENDMDL
MODEL 5
REMARK VINA RESULT:      -6.8      2.246      7.385
REMARK  Name = 
REMARK  5 active torsions:
REMARK  status: ('A' for Active; 'I' for Inactive)
REMARK    1  A    between atoms: C_1  and  O_2
REMARK    2  A    between atoms: O_2  and  C_3
REMARK    3  A    between atoms: N_9  and  C_10
REMARK    4  A    between atoms: C_10  and  C_11
REMARK    5  A    between atoms: N_15  and  C_16
REMARK                            x       y       z     vdW  Elec       q    Type
REMARK                         _______ _______ _______ _____ _____    ______ ____
ROOT
ATOM      1  C   UNL     1      -2.177  12.318  19.579  0.00  0.00    +0.000 A 
ATOM      2  N   UNL     1      -2.187  11.686  18.413  0.00  0.00    +0.000 NA
ATOM      3  N   UNL     1      -3.482  11.467  18.047  0.00  0.00    +0.000 NA
ATOM      4  C   UNL     1      -4.249  11.896  19.024  0.00  0.00    +0.000 A 
ATOM      5  N   UNL     1      -5.631  11.912  19.046  0.00  0.00    +0.000 N 
ATOM      6  C   UNL     1      -6.428  11.524  17.898  0.00  0.00    +0.000 C 
ATOM      7  C   UNL     1      -6.284  12.310  20.204  0.00  0.00    +0.000 A 
ATOM      8  O   UNL     1      -7.509  12.354  20.300  0.00  0.00    +0.000 OA
ATOM      9  C   UNL     1      -5.449  12.669  21.386  0.00  0.00    +0.000 A 
ATOM     10  C   UNL     1      -6.099  12.996  22.586  0.00  0.00    +0.000 A 
ATOM     11  C   UNL     1      -5.360  13.312  23.721  0.00  0.00    +0.000 A 
ATOM     12  C   UNL     1      -3.971  13.271  23.672  0.00  0.00    +0.000 A 
ATOM     13  C   UNL     1      -3.315  12.924  22.487  0.00  0.00    +0.000 A 
ATOM     14  C   UNL     1      -4.047  12.662  21.323  0.00  0.00    +0.000 A 
ATOM     15  N   UNL     1      -3.469  12.329  20.079  0.00  0.00    +0.000 N 
ENDROOT
BRANCH   1  16
ATOM     16  C   UNL     1      -0.944  12.946  20.153  0.00  0.00    +0.000 C 
BRANCH  16  23
ATOM     17  C   UNL     1       1.342  11.457  18.727  0.00  0.00    +0.000 A 
ATOM     18  C   UNL     1       1.906  10.467  17.904  0.00  0.00    +0.000 A 
ATOM     19  C   UNL     1       1.891   9.132  18.284  0.00  0.00    +0.000 A 
ATOM     20  C   UNL     1       1.310   8.770  19.489  0.00  0.00    +0.000 A 
ATOM     21  C   UNL     1       0.701   9.735  20.310  0.00  0.00    +0.000 A 
ATOM     22  C   UNL     1       0.686  11.101  19.938  0.00  0.00    +0.000 A 
ATOM     23  N   UNL     1       0.054  12.048  20.773  0.00  0.00    +0.000 N 
ATOM     24  C   UNL     1      -0.204  11.647  22.160  0.00  0.00    +0.000 C 
ATOM     25  C   UNL     1      -0.825  10.269  22.243  0.00  0.00    +0.000 C 
ATOM     26  C   UNL     1       0.109   9.255  21.613  0.00  0.00    +0.000 C 
BRANCH  17  28
ATOM     27  C   UNL     1       2.712  13.388  18.503  0.00  0.00    +0.000 C 
ATOM     28  O   UNL     1       1.418  12.795  18.402  0.00  0.00    +0.000 OA
ENDBRANCH  17  28
ENDBRANCH  16  23
ENDBRANCH   1  16
TORSDOF 3
ENDMDL
MODEL 6
REMARK VINA RESULT:      -6.7      1.990      6.684
REMARK  Name = 
REMARK  5 active torsions:
REMARK  status: ('A' for Active; 'I' for Inactive)
REMARK    1  A    between atoms: C_1  and  O_2
REMARK    2  A    between atoms: O_2  and  C_3
REMARK    3  A    between atoms: N_9  and  C_10
REMARK    4  A    between atoms: C_10  and  C_11
REMARK    5  A    between atoms: N_15  and  C_16
REMARK                            x       y       z     vdW  Elec       q    Type
REMARK                         _______ _______ _______ _____ _____    ______ ____
ROOT
ATOM      1  C   UNL     1      -2.794  13.742  20.929  0.00  0.00    +0.000 A 
ATOM      2  N   UNL     1      -2.683  14.755  21.778  0.00  0.00    +0.000 NA
ATOM      3  N   UNL     1      -3.849  14.869  22.474  0.00  0.00    +0.000 NA
ATOM      4  C   UNL     1      -4.688  13.979  21.994  0.00  0.00    +0.000 A 
ATOM      5  N   UNL     1      -5.968  13.719  22.445  0.00  0.00    +0.000 N 
ATOM      6  C   UNL     1      -6.522  14.367  23.619  0.00  0.00    +0.000 C 
ATOM      7  C   UNL     1      -6.756  12.808  21.756  0.00  0.00    +0.000 A 
ATOM      8  O   UNL     1      -7.902  12.521  22.097  0.00  0.00    +0.000 OA
ATOM      9  C   UNL     1      -6.185  12.179  20.531  0.00  0.00    +0.000 A 
ATOM     10  C   UNL     1      -7.000  11.318  19.781  0.00  0.00    +0.000 A 
ATOM     11  C   UNL     1      -6.516  10.730  18.618  0.00  0.00    +0.000 A 
ATOM     12  C   UNL     1      -5.230  11.025  18.180  0.00  0.00    +0.000 A 
ATOM     13  C   UNL     1      -4.419  11.899  18.908  0.00  0.00    +0.000 A 
ATOM     14  C   UNL     1      -4.873  12.450  20.111  0.00  0.00    +0.000 A 
ATOM     15  N   UNL     1      -4.114  13.321  20.923  0.00  0.00    +0.000 N 
ENDROOT
BRANCH   1  16
ATOM     16  C   UNL     1      -1.623  13.166  20.193  0.00  0.00    +0.000 C 
BRANCH  16  23
ATOM     17  C   UNL     1       0.697  11.438  19.139  0.00  0.00    +0.000 A 
ATOM     18  C   UNL     1       1.287  10.286  18.591  0.00  0.00    +0.000 A 
ATOM     19  C   UNL     1       1.344   9.103  19.315  0.00  0.00    +0.000 A 
ATOM     20  C   UNL     1       0.807   9.055  20.592  0.00  0.00    +0.000 A 
ATOM     21  C   UNL     1       0.173  10.180  21.146  0.00  0.00    +0.000 A 
ATOM     22  C   UNL     1       0.086  11.395  20.423  0.00  0.00    +0.000 A 
ATOM     23  N   UNL     1      -0.570  12.506  20.996  0.00  0.00    +0.000 N 
ATOM     24  C   UNL     1      -0.778  12.483  22.447  0.00  0.00    +0.000 C 
ATOM     25  C   UNL     1      -1.332  11.154  22.917  0.00  0.00    +0.000 C 
ATOM     26  C   UNL     1      -0.366  10.045  22.549  0.00  0.00    +0.000 C 
BRANCH  17  28
ATOM     27  C   UNL     1       1.964  13.306  18.390  0.00  0.00    +0.000 C 
ATOM     28  O   UNL     1       0.703  12.641  18.466  0.00  0.00    +0.000 OA
ENDBRANCH  17  28
ENDBRANCH  16  23
ENDBRANCH   1  16
TORSDOF 3
ENDMDL
MODEL 7
REMARK VINA RESULT:      -6.7      5.660      8.710
REMARK  Name = 
REMARK  5 active torsions:
REMARK  status: ('A' for Active; 'I' for Inactive)
REMARK    1  A    between atoms: C_1  and  O_2
REMARK    2  A    between atoms: O_2  and  C_3
REMARK    3  A    between atoms: N_9  and  C_10
REMARK    4  A    between atoms: C_10  and  C_11
REMARK    5  A    between atoms: N_15  and  C_16
REMARK                            x       y       z     vdW  Elec       q    Type
REMARK                         _______ _______ _______ _____ _____    ______ ____
ROOT
ATOM      1  C   UNL     1       2.439   7.524  18.853  0.00  0.00    +0.000 A 
ATOM      2  N   UNL     1       3.292   8.215  18.109  0.00  0.00    +0.000 NA
ATOM      3  N   UNL     1       4.020   7.342  17.356  0.00  0.00    +0.000 NA
ATOM      4  C   UNL     1       3.662   6.125  17.702  0.00  0.00    +0.000 A 
ATOM      5  N   UNL     1       4.116   4.941  17.153  0.00  0.00    +0.000 N 
ATOM      6  C   UNL     1       5.011   4.909  16.012  0.00  0.00    +0.000 C 
ATOM      7  C   UNL     1       3.704   3.737  17.708  0.00  0.00    +0.000 A 
ATOM      8  O   UNL     1       4.061   2.644  17.274  0.00  0.00    +0.000 OA
ATOM      9  C   UNL     1       2.814   3.789  18.903  0.00  0.00    +0.000 A 
ATOM     10  C   UNL     1       2.457   2.580  19.521  0.00  0.00    +0.000 A 
ATOM     11  C   UNL     1       1.649   2.584  20.653  0.00  0.00    +0.000 A 
ATOM     12  C   UNL     1       1.223   3.792  21.192  0.00  0.00    +0.000 A 
ATOM     13  C   UNL     1       1.593   5.001  20.597  0.00  0.00    +0.000 A 
ATOM     14  C   UNL     1       2.356   5.009  19.424  0.00  0.00    +0.000 A 
ATOM     15  N   UNL     1       2.753   6.180  18.742  0.00  0.00    +0.000 N 
ENDROOT
BRANCH   1  16
ATOM     16  C   UNL     1       1.310   8.165  19.603  0.00  0.00    +0.000 C 
BRANCH  16  23
ATOM     17  C   UNL     1       0.490  10.448  21.498  0.00  0.00    +0.000 A 
ATOM     18  C   UNL     1      -0.367  11.138  22.373  0.00  0.00    +0.000 A 
ATOM     19  C   UNL     1      -1.538  11.721  21.909  0.00  0.00    +0.000 A 
ATOM     20  C   UNL     1      -1.869  11.618  20.567  0.00  0.00    +0.000 A 
ATOM     21  C   UNL     1      -1.052  10.896  19.680  0.00  0.00    +0.000 A 
ATOM     22  C   UNL     1       0.139  10.276  20.130  0.00  0.00    +0.000 A 
ATOM     23  N   UNL     1       0.935   9.544  19.222  0.00  0.00    +0.000 N 
ATOM     24  C   UNL     1       0.712   9.787  17.794  0.00  0.00    +0.000 C 
ATOM     25  C   UNL     1      -0.761   9.775  17.442  0.00  0.00    +0.000 C 
ATOM     26  C   UNL     1      -1.478  10.851  18.233  0.00  0.00    +0.000 C 
BRANCH  17  28
ATOM     27  C   UNL     1       1.651   9.170  23.134  0.00  0.00    +0.000 C 
ATOM     28  O   UNL     1       1.694   9.931  21.927  0.00  0.00    +0.000 OA
ENDBRANCH  17  28
ENDBRANCH  16  23
ENDBRANCH   1  16
TORSDOF 3
ENDMDL
MODEL 8
REMARK VINA RESULT:      -6.5      2.079      7.075
REMARK  Name = 
REMARK  5 active torsions:
REMARK  status: ('A' for Active; 'I' for Inactive)
REMARK    1  A    between atoms: C_1  and  O_2
REMARK    2  A    between atoms: O_2  and  C_3
REMARK    3  A    between atoms: N_9  and  C_10
REMARK    4  A    between atoms: C_10  and  C_11
REMARK    5  A    between atoms: N_15  and  C_16
REMARK                            x       y       z     vdW  Elec       q    Type
REMARK                         _______ _______ _______ _____ _____    ______ ____
ROOT
ATOM      1  C   UNL     1      -2.351  12.478  21.003  0.00  0.00    +0.000 A 
ATOM      2  N   UNL     1      -1.966  13.177  22.062  0.00  0.00    +0.000 NA
ATOM      3  N   UNL     1      -3.068  13.493  22.799  0.00  0.00    +0.000 NA
ATOM      4  C   UNL     1      -4.121  13.053  22.148  0.00  0.00    +0.000 A 
ATOM      5  N   UNL     1      -5.438  13.118  22.562  0.00  0.00    +0.000 N 
ATOM      6  C   UNL     1      -5.815  13.618  23.871  0.00  0.00    +0.000 C 
ATOM      7  C   UNL     1      -6.440  12.691  21.702  0.00  0.00    +0.000 A 
ATOM      8  O   UNL     1      -7.632  12.714  21.999  0.00  0.00    +0.000 OA
ATOM      9  C   UNL     1      -6.038  12.214  20.347  0.00  0.00    +0.000 A 
ATOM     10  C   UNL     1      -7.047  11.856  19.440  0.00  0.00    +0.000 A 
ATOM     11  C   UNL     1      -6.719  11.429  18.158  0.00  0.00    +0.000 A 
ATOM     12  C   UNL     1      -5.386  11.392  17.765  0.00  0.00    +0.000 A 
ATOM     13  C   UNL     1      -4.375  11.769  18.654  0.00  0.00    +0.000 A 
ATOM     14  C   UNL     1      -4.689  12.142  19.965  0.00  0.00    +0.000 A 
ATOM     15  N   UNL     1      -3.734  12.513  20.936  0.00  0.00    +0.000 N 
ENDROOT
BRANCH   1  16
ATOM     16  C   UNL     1      -1.388  11.744  20.118  0.00  0.00    +0.000 C 
BRANCH  16  23
ATOM     17  C   UNL     1       1.171  10.763  18.717  0.00  0.00    +0.000 A 
ATOM     18  C   UNL     1       1.944   9.892  17.928  0.00  0.00    +0.000 A 
ATOM     19  C   UNL     1       2.247   8.612  18.371  0.00  0.00    +0.000 A 
ATOM     20  C   UNL     1       1.778   8.184  19.603  0.00  0.00    +0.000 A 
ATOM     21  C   UNL     1       0.968   9.019  20.391  0.00  0.00    +0.000 A 
ATOM     22  C   UNL     1       0.628  10.324  19.956  0.00  0.00    +0.000 A 
ATOM     23  N   UNL     1      -0.201  11.137  20.759  0.00  0.00    +0.000 N 
ATOM     24  C   UNL     1      -0.344  10.757  22.168  0.00  0.00    +0.000 C 
ATOM     25  C   UNL     1      -0.623   9.277  22.328  0.00  0.00    +0.000 C 
ATOM     26  C   UNL     1       0.517   8.480  21.727  0.00  0.00    +0.000 C 
BRANCH  17  28
ATOM     27  C   UNL     1       1.987  12.991  18.559  0.00  0.00    +0.000 C 
ATOM     28  O   UNL     1       0.927  12.062  18.328  0.00  0.00    +0.000 OA
ENDBRANCH  17  28
ENDBRANCH  16  23
ENDBRANCH   1  16
TORSDOF 3
ENDMDL
MODEL 9
REMARK VINA RESULT:      -6.5      6.165      8.974
REMARK  Name = 
REMARK  5 active torsions:
REMARK  status: ('A' for Active; 'I' for Inactive)
REMARK    1  A    between atoms: C_1  and  O_2
REMARK    2  A    between atoms: O_2  and  C_3
REMARK    3  A    between atoms: N_9  and  C_10
REMARK    4  A    between atoms: C_10  and  C_11
REMARK    5  A    between atoms: N_15  and  C_16
REMARK                            x       y       z     vdW  Elec       q    Type
REMARK                         _______ _______ _______ _____ _____    ______ ____
ROOT
ATOM      1  C   UNL     1       1.643   6.492  20.196  0.00  0.00    +0.000 A 
ATOM      2  N   UNL     1       0.741   5.732  20.801  0.00  0.00    +0.000 NA
ATOM      3  N   UNL     1       0.982   4.429  20.478  0.00  0.00    +0.000 NA
ATOM      4  C   UNL     1       1.977   4.411  19.620  0.00  0.00    +0.000 A 
ATOM      5  N   UNL     1       2.576   3.293  19.070  0.00  0.00    +0.000 N 
ATOM      6  C   UNL     1       2.218   1.946  19.472  0.00  0.00    +0.000 C 
ATOM      7  C   UNL     1       3.554   3.458  18.100  0.00  0.00    +0.000 A 
ATOM      8  O   UNL     1       4.135   2.514  17.568  0.00  0.00    +0.000 OA
ATOM      9  C   UNL     1       3.884   4.847  17.672  0.00  0.00    +0.000 A 
ATOM     10  C   UNL     1       4.813   5.023  16.635  0.00  0.00    +0.000 A 
ATOM     11  C   UNL     1       5.131   6.301  16.187  0.00  0.00    +0.000 A 
ATOM     12  C   UNL     1       4.499   7.405  16.747  0.00  0.00    +0.000 A 
ATOM     13  C   UNL     1       3.555   7.238  17.765  0.00  0.00    +0.000 A 
ATOM     14  C   UNL     1       3.270   5.962  18.265  0.00  0.00    +0.000 A 
ATOM     15  N   UNL     1       2.352   5.703  19.305  0.00  0.00    +0.000 N 
ENDROOT
BRANCH   1  16
ATOM     16  C   UNL     1       1.843   7.940  20.530  0.00  0.00    +0.000 C 
BRANCH  16  23
ATOM     17  C   UNL     1       1.246  10.618  19.136  0.00  0.00    +0.000 A 
ATOM     18  C   UNL     1       1.389  11.997  18.900  0.00  0.00    +0.000 A 
ATOM     19  C   UNL     1       0.983  12.927  19.847  0.00  0.00    +0.000 A 
ATOM     20  C   UNL     1       0.434  12.492  21.043  0.00  0.00    +0.000 A 
ATOM     21  C   UNL     1       0.320  11.119  21.322  0.00  0.00    +0.000 A 
ATOM     22  C   UNL     1       0.743  10.148  20.381  0.00  0.00    +0.000 A 
ATOM     23  N   UNL     1       0.633   8.775  20.692  0.00  0.00    +0.000 N 
ATOM     24  C   UNL     1      -0.268   8.411  21.790  0.00  0.00    +0.000 C 
ATOM     25  C   UNL     1      -0.057   9.284  23.008  0.00  0.00    +0.000 C 
ATOM     26  C   UNL     1      -0.305  10.734  22.640  0.00  0.00    +0.000 C 
BRANCH  17  28
ATOM     27  C   UNL     1       0.482   9.188  17.397  0.00  0.00    +0.000 C 
ATOM     28  O   UNL     1       1.571   9.685  18.175  0.00  0.00    +0.000 OA
ENDBRANCH  17  28
ENDBRANCH  16  23
ENDBRANCH   1  16
TORSDOF 3
ENDMDL
