MODEL 1
REMARK VINA RESULT:      -8.4      0.000      0.000
REMARK  Name = 
REMARK  6 active torsions:
REMARK  status: ('A' for Active; 'I' for Inactive)
REMARK    1  A    between atoms: C_1  and  C_2
REMARK    2  A    between atoms: C_2  and  N_3
REMARK    3  A    between atoms: C_7  and  S_8
REMARK    4  A    between atoms: S_8  and  C_9
REMARK    5  A    between atoms: C_13  and  N_14
REMARK    6  A    between atoms: C_21  and  C_22
REMARK                            x       y       z     vdW  Elec       q    Type
REMARK                         _______ _______ _______ _____ _____    ______ ____
ROOT
ATOM      1  C   UNL     1       0.571  10.273  19.674  0.00  0.00    +0.000 A 
ATOM      2  C   UNL     1       0.067  10.124  20.969  0.00  0.00    +0.000 A 
ATOM      3  C   UNL     1       0.382   8.999  21.716  0.00  0.00    +0.000 A 
ATOM      4  C   UNL     1       1.193   8.010  21.162  0.00  0.00    +0.000 A 
ATOM      5  C   UNL     1       1.695   8.110  19.854  0.00  0.00    +0.000 A 
ATOM      6  C   UNL     1       1.397   9.275  19.125  0.00  0.00    +0.000 A 
ENDROOT
BRANCH   5   7
ATOM      7  N   UNL     1       2.431   7.033  19.279  0.00  0.00    +0.000 N 
ATOM      8  C   UNL     1       3.387   7.205  18.186  0.00  0.00    +0.000 C 
ATOM      9  C   UNL     1       3.727   5.794  17.802  0.00  0.00    +0.000 A 
ATOM     10  C   UNL     1       3.033   4.923  18.626  0.00  0.00    +0.000 A 
ATOM     11  C   UNL     1       3.117   3.562  18.482  0.00  0.00    +0.000 A 
ATOM     12  N   UNL     1       3.897   3.017  17.525  0.00  0.00    +0.000 NA
ATOM     13  C   UNL     1       4.593   3.874  16.725  0.00  0.00    +0.000 A 
ATOM     14  C   UNL     1       4.550   5.268  16.816  0.00  0.00    +0.000 A 
ATOM     15  C   UNL     1       2.232   5.681  19.568  0.00  0.00    +0.000 C 
ATOM     16  O   UNL     1       1.550   5.117  20.406  0.00  0.00    +0.000 OA
BRANCH  14  17
ATOM     17  C   UNL     1       5.376   6.075  15.870  0.00  0.00    +0.000 C 
ATOM     18  F   UNL     1       5.906   5.341  14.855  0.00  0.00    +0.000 F 
ATOM     19  F   UNL     1       4.662   7.071  15.282  0.00  0.00    +0.000 F 
ATOM     20  F   UNL     1       6.430   6.679  16.483  0.00  0.00    +0.000 F 
ENDBRANCH  14  17
ENDBRANCH   5   7
BRANCH   1  21
ATOM     21  S   UNL     1       0.137  11.766  18.820  0.00  0.00    +0.000 S 
BRANCH  21  26
ATOM     22  N   UNL     1      -2.352  11.179  17.711  0.00  0.00    +0.000 N 
ATOM     23  C   UNL     1      -3.744  11.500  17.966  0.00  0.00    +0.000 C 
ATOM     24  C   UNL     1      -3.675  12.170  19.338  0.00  0.00    +0.000 C 
ATOM     25  N   UNL     1      -2.244  12.438  19.612  0.00  0.00    +0.000 NA
ATOM     26  C   UNL     1      -1.595  11.788  18.683  0.00  0.00    +0.000 C 
BRANCH  22  28
ATOM     27  C   UNL     1      -2.867   9.873  15.683  0.00  0.00    +0.000 C 
ATOM     28  C   UNL     1      -2.052   9.973  16.962  0.00  0.00    +0.000 C 
ENDBRANCH  22  28
ENDBRANCH  21  26
ENDBRANCH   1  21
TORSDOF 5
ENDMDL
MODEL 2
REMARK VINA RESULT:      -8.2      4.392      8.569
REMARK  Name = 
REMARK  6 active torsions:
REMARK  status: ('A' for Active; 'I' for Inactive)
REMARK    1  A    between atoms: C_1  and  C_2
REMARK    2  A    between atoms: C_2  and  N_3
REMARK    3  A    between atoms: C_7  and  S_8
REMARK    4  A    between atoms: S_8  and  C_9
REMARK    5  A    between atoms: C_13  and  N_14
REMARK    6  A    between atoms: C_21  and  C_22
REMARK                            x       y       z     vdW  Elec       q    Type
REMARK                         _______ _______ _______ _____ _____    ______ ____
ROOT
ATOM      1  C   UNL     1       4.144   5.424  17.338  0.00  0.00    +0.000 A 
ATOM      2  C   UNL     1       3.297   4.312  17.358  0.00  0.00    +0.000 A 
ATOM      3  C   UNL     1       2.005   4.427  17.847  0.00  0.00    +0.000 A 
ATOM      4  C   UNL     1       1.560   5.654  18.334  0.00  0.00    +0.000 A 
ATOM      5  C   UNL     1       2.390   6.787  18.358  0.00  0.00    +0.000 A 
ATOM      6  C   UNL     1       3.684   6.662  17.822  0.00  0.00    +0.000 A 
ENDROOT
BRANCH   5   7
ATOM      7  N   UNL     1       1.941   7.998  18.960  0.00  0.00    +0.000 N 
ATOM      8  C   UNL     1       1.373   8.065  20.306  0.00  0.00    +0.000 C 
ATOM      9  C   UNL     1       0.869   9.476  20.396  0.00  0.00    +0.000 A 
ATOM     10  C   UNL     1       1.153  10.133  19.210  0.00  0.00    +0.000 A 
ATOM     11  C   UNL     1       0.774  11.432  18.988  0.00  0.00    +0.000 A 
ATOM     12  N   UNL     1       0.110  12.128  19.935  0.00  0.00    +0.000 NA
ATOM     13  C   UNL     1      -0.156  11.487  21.109  0.00  0.00    +0.000 A 
ATOM     14  C   UNL     1       0.199  10.166  21.398  0.00  0.00    +0.000 A 
ATOM     15  C   UNL     1       1.840   9.230  18.307  0.00  0.00    +0.000 C 
ATOM     16  O   UNL     1       2.205   9.602  17.206  0.00  0.00    +0.000 OA
BRANCH  14  17
ATOM     17  C   UNL     1      -0.156   9.603  22.734  0.00  0.00    +0.000 C 
ATOM     18  F   UNL     1      -0.884  10.457  23.503  0.00  0.00    +0.000 F 
ATOM     19  F   UNL     1      -0.891   8.464  22.636  0.00  0.00    +0.000 F 
ATOM     20  F   UNL     1       0.941   9.281  23.471  0.00  0.00    +0.000 F 
ENDBRANCH  14  17
ENDBRANCH   5   7
BRANCH   1  21
ATOM     21  S   UNL     1       5.763   5.177  16.657  0.00  0.00    +0.000 S 
BRANCH  21  26
ATOM     22  N   UNL     1       7.624   6.809  17.939  0.00  0.00    +0.000 N 
ATOM     23  C   UNL     1       8.484   6.746  19.106  0.00  0.00    +0.000 C 
ATOM     24  C   UNL     1       7.974   5.492  19.815  0.00  0.00    +0.000 C 
ATOM     25  N   UNL     1       7.085   4.792  18.860  0.00  0.00    +0.000 NA
ATOM     26  C   UNL     1       6.905   5.639  17.882  0.00  0.00    +0.000 C 
BRANCH  22  28
ATOM     27  C   UNL     1       8.183   9.212  17.928  0.00  0.00    +0.000 C 
ATOM     28  C   UNL     1       7.257   8.116  17.427  0.00  0.00    +0.000 C 
ENDBRANCH  22  28
ENDBRANCH  21  26
ENDBRANCH   1  21
TORSDOF 5
ENDMDL
MODEL 3
REMARK VINA RESULT:      -8.2      2.813      3.308
REMARK  Name = 
REMARK  6 active torsions:
REMARK  status: ('A' for Active; 'I' for Inactive)
REMARK    1  A    between atoms: C_1  and  C_2
REMARK    2  A    between atoms: C_2  and  N_3
REMARK    3  A    between atoms: C_7  and  S_8
REMARK    4  A    between atoms: S_8  and  C_9
REMARK    5  A    between atoms: C_13  and  N_14
REMARK    6  A    between atoms: C_21  and  C_22
REMARK                            x       y       z     vdW  Elec       q    Type
REMARK                         _______ _______ _______ _____ _____    ______ ____
ROOT
ATOM      1  C   UNL     1       0.182  10.684  19.893  0.00  0.00    +0.000 A 
ATOM      2  C   UNL     1      -0.028  10.848  21.266  0.00  0.00    +0.000 A 
ATOM      3  C   UNL     1       0.432   9.895  22.161  0.00  0.00    +0.000 A 
ATOM      4  C   UNL     1       1.093   8.764  21.684  0.00  0.00    +0.000 A 
ATOM      5  C   UNL     1       1.298   8.550  20.311  0.00  0.00    +0.000 A 
ATOM      6  C   UNL     1       0.859   9.545  19.420  0.00  0.00    +0.000 A 
ENDROOT
BRANCH   5   7
ATOM      7  N   UNL     1       1.882   7.334  19.850  0.00  0.00    +0.000 N 
ATOM      8  C   UNL     1       1.793   6.070  20.581  0.00  0.00    +0.000 C 
ATOM      9  C   UNL     1       2.719   5.167  19.820  0.00  0.00    +0.000 A 
ATOM     10  C   UNL     1       3.255   5.868  18.752  0.00  0.00    +0.000 A 
ATOM     11  C   UNL     1       4.169   5.306  17.897  0.00  0.00    +0.000 A 
ATOM     12  N   UNL     1       4.577   4.031  18.066  0.00  0.00    +0.000 NA
ATOM     13  C   UNL     1       4.037   3.336  19.107  0.00  0.00    +0.000 A 
ATOM     14  C   UNL     1       3.105   3.849  20.015  0.00  0.00    +0.000 A 
ATOM     15  C   UNL     1       2.728   7.220  18.744  0.00  0.00    +0.000 C 
ATOM     16  O   UNL     1       3.050   8.012  17.877  0.00  0.00    +0.000 OA
BRANCH  14  17
ATOM     17  C   UNL     1       2.599   2.960  21.103  0.00  0.00    +0.000 C 
ATOM     18  F   UNL     1       2.205   3.638  22.214  0.00  0.00    +0.000 F 
ATOM     19  F   UNL     1       1.526   2.224  20.710  0.00  0.00    +0.000 F 
ATOM     20  F   UNL     1       3.535   2.067  21.523  0.00  0.00    +0.000 F 
ENDBRANCH  14  17
ENDBRANCH   5   7
BRANCH   1  21
ATOM     21  S   UNL     1      -0.413  11.980  18.839  0.00  0.00    +0.000 S 
BRANCH  21  26
ATOM     22  N   UNL     1      -3.054  11.291  18.271  0.00  0.00    +0.000 N 
ATOM     23  C   UNL     1      -4.382  11.670  18.717  0.00  0.00    +0.000 C 
ATOM     24  C   UNL     1      -4.079  12.519  19.951  0.00  0.00    +0.000 C 
ATOM     25  N   UNL     1      -2.624  12.796  19.932  0.00  0.00    +0.000 NA
ATOM     26  C   UNL     1      -2.143  12.014  19.003  0.00  0.00    +0.000 C 
BRANCH  22  28
ATOM     27  C   UNL     1      -2.531  10.094  16.179  0.00  0.00    +0.000 C 
ATOM     28  C   UNL     1      -2.882   9.989  17.654  0.00  0.00    +0.000 C 
ENDBRANCH  22  28
ENDBRANCH  21  26
ENDBRANCH   1  21
TORSDOF 5
ENDMDL
MODEL 4
REMARK VINA RESULT:      -8.2      4.434      8.423
REMARK  Name = 
REMARK  6 active torsions:
REMARK  status: ('A' for Active; 'I' for Inactive)
REMARK    1  A    between atoms: C_1  and  C_2
REMARK    2  A    between atoms: C_2  and  N_3
REMARK    3  A    between atoms: C_7  and  S_8
REMARK    4  A    between atoms: S_8  and  C_9
REMARK    5  A    between atoms: C_13  and  N_14
REMARK    6  A    between atoms: C_21  and  C_22
REMARK                            x       y       z     vdW  Elec       q    Type
REMARK                         _______ _______ _______ _____ _____    ______ ____
ROOT
ATOM      1  C   UNL     1       4.093   4.481  19.286  0.00  0.00    +0.000 A 
ATOM      2  C   UNL     1       3.300   3.424  19.743  0.00  0.00    +0.000 A 
ATOM      3  C   UNL     1       2.030   3.669  20.240  0.00  0.00    +0.000 A 
ATOM      4  C   UNL     1       1.553   4.977  20.297  0.00  0.00    +0.000 A 
ATOM      5  C   UNL     1       2.330   6.068  19.874  0.00  0.00    +0.000 A 
ATOM      6  C   UNL     1       3.601   5.798  19.336  0.00  0.00    +0.000 A 
ENDROOT
BRANCH   5   7
ATOM      7  N   UNL     1       1.855   7.401  20.044  0.00  0.00    +0.000 N 
ATOM      8  C   UNL     1       1.190   7.870  21.259  0.00  0.00    +0.000 C 
ATOM      9  C   UNL     1       0.702   9.237  20.878  0.00  0.00    +0.000 A 
ATOM     10  C   UNL     1       1.082   9.504  19.573  0.00  0.00    +0.000 A 
ATOM     11  C   UNL     1       0.740  10.671  18.939  0.00  0.00    +0.000 A 
ATOM     12  N   UNL     1       0.017  11.616  19.577  0.00  0.00    +0.000 NA
ATOM     13  C   UNL     1      -0.343  11.360  20.867  0.00  0.00    +0.000 A 
ATOM     14  C   UNL     1      -0.029  10.192  21.570  0.00  0.00    +0.000 A 
ATOM     15  C   UNL     1       1.821   8.374  19.041  0.00  0.00    +0.000 C 
ATOM     16  O   UNL     1       2.271   8.397  17.910  0.00  0.00    +0.000 OA
BRANCH  14  17
ATOM     17  C   UNL     1      -0.490  10.061  22.983  0.00  0.00    +0.000 C 
ATOM     18  F   UNL     1       0.514   9.772  23.854  0.00  0.00    +0.000 F 
ATOM     19  F   UNL     1      -1.073  11.199  23.444  0.00  0.00    +0.000 F 
ATOM     20  F   UNL     1      -1.414   9.075  23.140  0.00  0.00    +0.000 F 
ENDBRANCH  14  17
ENDBRANCH   5   7
BRANCH   1  21
ATOM     21  S   UNL     1       5.686   4.054  18.633  0.00  0.00    +0.000 S 
BRANCH  21  26
ATOM     22  N   UNL     1       5.588   5.788  16.453  0.00  0.00    +0.000 N 
ATOM     23  C   UNL     1       5.588   5.693  15.005  0.00  0.00    +0.000 C 
ATOM     24  C   UNL     1       5.940   4.224  14.777  0.00  0.00    +0.000 C 
ATOM     25  N   UNL     1       5.819   3.547  16.089  0.00  0.00    +0.000 NA
ATOM     26  C   UNL     1       5.689   4.514  16.958  0.00  0.00    +0.000 C 
BRANCH  22  28
ATOM     27  C   UNL     1       7.489   6.999  17.455  0.00  0.00    +0.000 C 
ATOM     28  C   UNL     1       6.022   7.032  17.059  0.00  0.00    +0.000 C 
ENDBRANCH  22  28
ENDBRANCH  21  26
ENDBRANCH   1  21
TORSDOF 5
ENDMDL
MODEL 5
REMARK VINA RESULT:      -8.1      0.657      1.709
REMARK  Name = 
REMARK  6 active torsions:
REMARK  status: ('A' for Active; 'I' for Inactive)
REMARK    1  A    between atoms: C_1  and  C_2
REMARK    2  A    between atoms: C_2  and  N_3
REMARK    3  A    between atoms: C_7  and  S_8
REMARK    4  A    between atoms: S_8  and  C_9
REMARK    5  A    between atoms: C_13  and  N_14
REMARK    6  A    between atoms: C_21  and  C_22
REMARK                            x       y       z     vdW  Elec       q    Type
REMARK                         _______ _______ _______ _____ _____    ______ ____
ROOT
ATOM      1  C   UNL     1       0.495  10.265  19.670  0.00  0.00    +0.000 A 
ATOM      2  C   UNL     1      -0.001  10.108  20.968  0.00  0.00    +0.000 A 
ATOM      3  C   UNL     1       0.341   8.992  21.714  0.00  0.00    +0.000 A 
ATOM      4  C   UNL     1       1.169   8.018  21.159  0.00  0.00    +0.000 A 
ATOM      5  C   UNL     1       1.664   8.126  19.849  0.00  0.00    +0.000 A 
ATOM      6  C   UNL     1       1.339   9.284  19.120  0.00  0.00    +0.000 A 
ENDROOT
BRANCH   5   7
ATOM      7  N   UNL     1       2.420   7.064  19.273  0.00  0.00    +0.000 N 
ATOM      8  C   UNL     1       3.399   7.260  18.204  0.00  0.00    +0.000 C 
ATOM      9  C   UNL     1       3.756   5.858  17.805  0.00  0.00    +0.000 A 
ATOM     10  C   UNL     1       3.049   4.969  18.598  0.00  0.00    +0.000 A 
ATOM     11  C   UNL     1       3.146   3.611  18.434  0.00  0.00    +0.000 A 
ATOM     12  N   UNL     1       3.950   3.086  17.485  0.00  0.00    +0.000 NA
ATOM     13  C   UNL     1       4.658   3.961  16.715  0.00  0.00    +0.000 A 
ATOM     14  C   UNL     1       4.604   5.353  16.828  0.00  0.00    +0.000 A 
ATOM     15  C   UNL     1       2.222   5.706  19.535  0.00  0.00    +0.000 C 
ATOM     16  O   UNL     1       1.526   5.124  20.347  0.00  0.00    +0.000 OA
BRANCH  14  17
ATOM     17  C   UNL     1       5.445   6.181  15.914  0.00  0.00    +0.000 C 
ATOM     18  F   UNL     1       6.173   5.442  15.034  0.00  0.00    +0.000 F 
ATOM     19  F   UNL     1       4.703   7.038  15.164  0.00  0.00    +0.000 F 
ATOM     20  F   UNL     1       6.343   6.950  16.587  0.00  0.00    +0.000 F 
ENDBRANCH  14  17
ENDBRANCH   5   7
BRANCH   1  21
ATOM     21  S   UNL     1       0.028  11.748  18.816  0.00  0.00    +0.000 S 
BRANCH  21  26
ATOM     22  N   UNL     1      -2.699  12.041  19.317  0.00  0.00    +0.000 N 
ATOM     23  C   UNL     1      -3.952  11.711  18.665  0.00  0.00    +0.000 C 
ATOM     24  C   UNL     1      -3.489  11.284  17.272  0.00  0.00    +0.000 C 
ATOM     25  N   UNL     1      -2.018  11.123  17.341  0.00  0.00    +0.000 NA
ATOM     26  C   UNL     1      -1.676  11.634  18.495  0.00  0.00    +0.000 C 
BRANCH  22  28
ATOM     27  C   UNL     1      -2.580  12.599  21.717  0.00  0.00    +0.000 C 
ATOM     28  C   UNL     1      -2.694  13.116  20.292  0.00  0.00    +0.000 C 
ENDBRANCH  22  28
ENDBRANCH  21  26
ENDBRANCH   1  21
TORSDOF 5
ENDMDL
MODEL 6
REMARK VINA RESULT:      -8.1      4.533      8.358
REMARK  Name = 
REMARK  6 active torsions:
REMARK  status: ('A' for Active; 'I' for Inactive)
REMARK    1  A    between atoms: C_1  and  C_2
REMARK    2  A    between atoms: C_2  and  N_3
REMARK    3  A    between atoms: C_7  and  S_8
REMARK    4  A    between atoms: S_8  and  C_9
REMARK    5  A    between atoms: C_13  and  N_14
REMARK    6  A    between atoms: C_21  and  C_22
REMARK                            x       y       z     vdW  Elec       q    Type
REMARK                         _______ _______ _______ _____ _____    ______ ____
ROOT
ATOM      1  C   UNL     1       3.399   3.921  18.932  0.00  0.00    +0.000 A 
ATOM      2  C   UNL     1       2.609   2.978  19.596  0.00  0.00    +0.000 A 
ATOM      3  C   UNL     1       1.514   3.386  20.341  0.00  0.00    +0.000 A 
ATOM      4  C   UNL     1       1.214   4.743  20.438  0.00  0.00    +0.000 A 
ATOM      5  C   UNL     1       2.000   5.723  19.808  0.00  0.00    +0.000 A 
ATOM      6  C   UNL     1       3.084   5.289  19.025  0.00  0.00    +0.000 A 
ENDROOT
BRANCH   5   7
ATOM      7  N   UNL     1       1.730   7.107  20.014  0.00  0.00    +0.000 N 
ATOM      8  C   UNL     1       1.092   7.632  21.221  0.00  0.00    +0.000 C 
ATOM      9  C   UNL     1       0.838   9.071  20.877  0.00  0.00    +0.000 A 
ATOM     10  C   UNL     1       1.312   9.319  19.600  0.00  0.00    +0.000 A 
ATOM     11  C   UNL     1       1.182  10.546  19.001  0.00  0.00    +0.000 A 
ATOM     12  N   UNL     1       0.586  11.570  19.648  0.00  0.00    +0.000 NA
ATOM     13  C   UNL     1       0.135  11.330  20.912  0.00  0.00    +0.000 A 
ATOM     14  C   UNL     1       0.233  10.104  21.578  0.00  0.00    +0.000 A 
ATOM     15  C   UNL     1       1.890   8.107  19.051  0.00  0.00    +0.000 C 
ATOM     16  O   UNL     1       2.388   8.098  17.939  0.00  0.00    +0.000 OA
BRANCH  14  17
ATOM     17  C   UNL     1      -0.304   9.998  22.967  0.00  0.00    +0.000 C 
ATOM     18  F   UNL     1       0.631   9.622  23.880  0.00  0.00    +0.000 F 
ATOM     19  F   UNL     1      -0.816  11.176  23.414  0.00  0.00    +0.000 F 
ATOM     20  F   UNL     1      -1.311   9.089  23.068  0.00  0.00    +0.000 F 
ENDBRANCH  14  17
ENDBRANCH   5   7
BRANCH   1  21
ATOM     21  S   UNL     1       4.753   3.290  17.975  0.00  0.00    +0.000 S 
BRANCH  21  26
ATOM     22  N   UNL     1       6.597   5.162  17.045  0.00  0.00    +0.000 N 
ATOM     23  C   UNL     1       7.663   5.982  17.590  0.00  0.00    +0.000 C 
ATOM     24  C   UNL     1       7.463   5.812  19.096  0.00  0.00    +0.000 C 
ATOM     25  N   UNL     1       6.507   4.696  19.277  0.00  0.00    +0.000 NA
ATOM     26  C   UNL     1       6.038   4.455  18.082  0.00  0.00    +0.000 C 
BRANCH  22  28
ATOM     27  C   UNL     1       4.930   6.667  16.024  0.00  0.00    +0.000 C 
ATOM     28  C   UNL     1       5.973   5.584  15.804  0.00  0.00    +0.000 C 
ENDBRANCH  22  28
ENDBRANCH  21  26
ENDBRANCH   1  21
TORSDOF 5
ENDMDL
MODEL 7
REMARK VINA RESULT:      -8.1      4.456      8.535
REMARK  Name = 
REMARK  6 active torsions:
REMARK  status: ('A' for Active; 'I' for Inactive)
REMARK    1  A    between atoms: C_1  and  C_2
REMARK    2  A    between atoms: C_2  and  N_3
REMARK    3  A    between atoms: C_7  and  S_8
REMARK    4  A    between atoms: S_8  and  C_9
REMARK    5  A    between atoms: C_13  and  N_14
REMARK    6  A    between atoms: C_21  and  C_22
REMARK                            x       y       z     vdW  Elec       q    Type
REMARK                         _______ _______ _______ _____ _____    ______ ____
ROOT
ATOM      1  C   UNL     1       3.191   3.951  18.493  0.00  0.00    +0.000 A 
ATOM      2  C   UNL     1       3.089   3.083  19.584  0.00  0.00    +0.000 A 
ATOM      3  C   UNL     1       2.545   3.526  20.779  0.00  0.00    +0.000 A 
ATOM      4  C   UNL     1       2.114   4.847  20.892  0.00  0.00    +0.000 A 
ATOM      5  C   UNL     1       2.226   5.756  19.828  0.00  0.00    +0.000 A 
ATOM      6  C   UNL     1       2.744   5.280  18.611  0.00  0.00    +0.000 A 
ENDROOT
BRANCH   5   7
ATOM      7  N   UNL     1       1.875   7.126  20.009  0.00  0.00    +0.000 N 
ATOM      8  C   UNL     1       1.220   7.636  21.213  0.00  0.00    +0.000 C 
ATOM      9  C   UNL     1       0.876   9.050  20.843  0.00  0.00    +0.000 A 
ATOM     10  C   UNL     1       1.321   9.300  19.556  0.00  0.00    +0.000 A 
ATOM     11  C   UNL     1       1.112  10.505  18.934  0.00  0.00    +0.000 A 
ATOM     12  N   UNL     1       0.463  11.504  19.568  0.00  0.00    +0.000 NA
ATOM     13  C   UNL     1       0.039  11.263  20.841  0.00  0.00    +0.000 A 
ATOM     14  C   UNL     1       0.217  10.060  21.531  0.00  0.00    +0.000 A 
ATOM     15  C   UNL     1       1.965   8.114  19.025  0.00  0.00    +0.000 C 
ATOM     16  O   UNL     1       2.451   8.111  17.908  0.00  0.00    +0.000 OA
BRANCH  14  17
ATOM     17  C   UNL     1      -0.298   9.950  22.927  0.00  0.00    +0.000 C 
ATOM     18  F   UNL     1       0.661   9.617  23.832  0.00  0.00    +0.000 F 
ATOM     19  F   UNL     1      -0.845  11.114  23.369  0.00  0.00    +0.000 F 
ATOM     20  F   UNL     1      -1.272   9.008  23.051  0.00  0.00    +0.000 F 
ENDBRANCH  14  17
ENDBRANCH   5   7
BRANCH   1  21
ATOM     21  S   UNL     1       3.867   3.273  17.000  0.00  0.00    +0.000 S 
BRANCH  21  26
ATOM     22  N   UNL     1       6.081   4.201  15.583  0.00  0.00    +0.000 N 
ATOM     23  C   UNL     1       7.375   4.789  15.876  0.00  0.00    +0.000 C 
ATOM     24  C   UNL     1       7.257   5.099  17.368  0.00  0.00    +0.000 C 
ATOM     25  N   UNL     1       6.044   4.402  17.856  0.00  0.00    +0.000 NA
ATOM     26  C   UNL     1       5.431   3.996  16.776  0.00  0.00    +0.000 C 
BRANCH  22  28
ATOM     27  C   UNL     1       6.180   3.611  13.190  0.00  0.00    +0.000 C 
ATOM     28  C   UNL     1       5.502   4.434  14.272  0.00  0.00    +0.000 C 
ENDBRANCH  22  28
ENDBRANCH  21  26
ENDBRANCH   1  21
TORSDOF 5
ENDMDL
MODEL 8
REMARK VINA RESULT:      -8.0      2.406      2.865
REMARK  Name = 
REMARK  6 active torsions:
REMARK  status: ('A' for Active; 'I' for Inactive)
REMARK    1  A    between atoms: C_1  and  C_2
REMARK    2  A    between atoms: C_2  and  N_3
REMARK    3  A    between atoms: C_7  and  S_8
REMARK    4  A    between atoms: S_8  and  C_9
REMARK    5  A    between atoms: C_13  and  N_14
REMARK    6  A    between atoms: C_21  and  C_22
REMARK                            x       y       z     vdW  Elec       q    Type
REMARK                         _______ _______ _______ _____ _____    ______ ____
ROOT
ATOM      1  C   UNL     1       0.821  10.163  19.665  0.00  0.00    +0.000 A 
ATOM      2  C   UNL     1       0.469   9.959  21.003  0.00  0.00    +0.000 A 
ATOM      3  C   UNL     1       0.795   8.770  21.636  0.00  0.00    +0.000 A 
ATOM      4  C   UNL     1       1.463   7.773  20.928  0.00  0.00    +0.000 A 
ATOM      5  C   UNL     1       1.808   7.929  19.575  0.00  0.00    +0.000 A 
ATOM      6  C   UNL     1       1.504   9.156  18.960  0.00  0.00    +0.000 A 
ENDROOT
BRANCH   5   7
ATOM      7  N   UNL     1       2.393   6.850  18.851  0.00  0.00    +0.000 N 
ATOM      8  C   UNL     1       2.122   5.443  19.143  0.00  0.00    +0.000 C 
ATOM      9  C   UNL     1       3.110   4.716  18.278  0.00  0.00    +0.000 A 
ATOM     10  C   UNL     1       3.847   5.642  17.559  0.00  0.00    +0.000 A 
ATOM     11  C   UNL     1       4.856   5.269  16.709  0.00  0.00    +0.000 A 
ATOM     12  N   UNL     1       5.164   3.966  16.535  0.00  0.00    +0.000 NA
ATOM     13  C   UNL     1       4.428   3.053  17.231  0.00  0.00    +0.000 A 
ATOM     14  C   UNL     1       3.390   3.367  18.114  0.00  0.00    +0.000 A 
ATOM     15  C   UNL     1       3.400   6.982  17.890  0.00  0.00    +0.000 C 
ATOM     16  O   UNL     1       3.898   7.959  17.359  0.00  0.00    +0.000 OA
BRANCH  14  17
ATOM     17  C   UNL     1       2.670   2.253  18.799  0.00  0.00    +0.000 C 
ATOM     18  F   UNL     1       3.191   1.026  18.529  0.00  0.00    +0.000 F 
ATOM     19  F   UNL     1       2.690   2.381  20.152  0.00  0.00    +0.000 F 
ATOM     20  F   UNL     1       1.358   2.187  18.446  0.00  0.00    +0.000 F 
ENDBRANCH  14  17
ENDBRANCH   5   7
BRANCH   1  21
ATOM     21  S   UNL     1       0.390  11.734  18.962  0.00  0.00    +0.000 S 
BRANCH  21  26
ATOM     22  N   UNL     1      -2.146  11.195  17.936  0.00  0.00    +0.000 N 
ATOM     23  C   UNL     1      -3.521  11.550  18.232  0.00  0.00    +0.000 C 
ATOM     24  C   UNL     1      -3.393  12.229  19.595  0.00  0.00    +0.000 C 
ATOM     25  N   UNL     1      -1.950  12.467  19.822  0.00  0.00    +0.000 NA
ATOM     26  C   UNL     1      -1.344  11.794  18.878  0.00  0.00    +0.000 C 
BRANCH  22  28
ATOM     27  C   UNL     1      -2.685   9.927  15.890  0.00  0.00    +0.000 C 
ATOM     28  C   UNL     1      -1.896   9.976  17.189  0.00  0.00    +0.000 C 
ENDBRANCH  22  28
ENDBRANCH  21  26
ENDBRANCH   1  21
TORSDOF 5
ENDMDL
MODEL 9
REMARK VINA RESULT:      -8.0      4.423      8.475
REMARK  Name = 
REMARK  6 active torsions:
REMARK  status: ('A' for Active; 'I' for Inactive)
REMARK    1  A    between atoms: C_1  and  C_2
REMARK    2  A    between atoms: C_2  and  N_3
REMARK    3  A    between atoms: C_7  and  S_8
REMARK    4  A    between atoms: S_8  and  C_9
REMARK    5  A    between atoms: C_13  and  N_14
REMARK    6  A    between atoms: C_21  and  C_22
REMARK                            x       y       z     vdW  Elec       q    Type
REMARK                         _______ _______ _______ _____ _____    ______ ____
ROOT
ATOM      1  C   UNL     1       3.327   3.851  18.580  0.00  0.00    +0.000 A 
ATOM      2  C   UNL     1       3.175   3.011  19.688  0.00  0.00    +0.000 A 
ATOM      3  C   UNL     1       2.581   3.486  20.847  0.00  0.00    +0.000 A 
ATOM      4  C   UNL     1       2.150   4.810  20.907  0.00  0.00    +0.000 A 
ATOM      5  C   UNL     1       2.311   5.692  19.826  0.00  0.00    +0.000 A 
ATOM      6  C   UNL     1       2.880   5.183  18.645  0.00  0.00    +0.000 A 
ENDROOT
BRANCH   5   7
ATOM      7  N   UNL     1       1.958   7.066  19.957  0.00  0.00    +0.000 N 
ATOM      8  C   UNL     1       1.296   7.618  21.139  0.00  0.00    +0.000 C 
ATOM      9  C   UNL     1       0.952   9.017  20.718  0.00  0.00    +0.000 A 
ATOM     10  C   UNL     1       1.403   9.223  19.425  0.00  0.00    +0.000 A 
ATOM     11  C   UNL     1       1.195  10.404  18.760  0.00  0.00    +0.000 A 
ATOM     12  N   UNL     1       0.542  11.424  19.355  0.00  0.00    +0.000 NA
ATOM     13  C   UNL     1       0.112  11.228  20.634  0.00  0.00    +0.000 A 
ATOM     14  C   UNL     1       0.289  10.050  21.366  0.00  0.00    +0.000 A 
ATOM     15  C   UNL     1       2.051   8.019  18.939  0.00  0.00    +0.000 C 
ATOM     16  O   UNL     1       2.543   7.978  17.825  0.00  0.00    +0.000 OA
BRANCH  14  17
ATOM     17  C   UNL     1      -0.233   9.988  22.763  0.00  0.00    +0.000 C 
ATOM     18  F   UNL     1       0.708   9.629  23.677  0.00  0.00    +0.000 F 
ATOM     19  F   UNL     1      -0.728  11.184  23.182  0.00  0.00    +0.000 F 
ATOM     20  F   UNL     1      -1.248   9.093  22.901  0.00  0.00    +0.000 F 
ENDBRANCH  14  17
ENDBRANCH   5   7
BRANCH   1  21
ATOM     21  S   UNL     1       4.064   3.133  17.136  0.00  0.00    +0.000 S 
BRANCH  21  26
ATOM     22  N   UNL     1       6.059   5.064  17.394  0.00  0.00    +0.000 N 
ATOM     23  C   UNL     1       6.943   5.817  16.525  0.00  0.00    +0.000 C 
ATOM     24  C   UNL     1       6.752   5.114  15.182  0.00  0.00    +0.000 C 
ATOM     25  N   UNL     1       5.574   4.228  15.326  0.00  0.00    +0.000 NA
ATOM     26  C   UNL     1       5.311   4.222  16.606  0.00  0.00    +0.000 C 
BRANCH  22  28
ATOM     27  C   UNL     1       7.691   5.684  19.137  0.00  0.00    +0.000 C 
ATOM     28  C   UNL     1       6.446   4.888  18.782  0.00  0.00    +0.000 C 
ENDBRANCH  22  28
ENDBRANCH  21  26
ENDBRANCH   1  21
TORSDOF 5
ENDMDL
