MODEL 1
REMARK VINA RESULT:      -9.0      0.000      0.000
REMARK  Name = 
REMARK  6 active torsions:
REMARK  status: ('A' for Active; 'I' for Inactive)
REMARK    1  A    between atoms: C_1  and  S_2
REMARK    2  A    between atoms: S_2  and  N_5
REMARK    3  A    between atoms: N_5  and  C_6
REMARK    4  A    between atoms: C_10  and  C_11
REMARK    5  A    between atoms: N_13  and  C_14
REMARK    6  A    between atoms: C_17  and  C_18
REMARK                            x       y       z     vdW  Elec       q    Type
REMARK                         _______ _______ _______ _____ _____    ______ ____
ROOT
ATOM      1  C   UNL     1       1.812   5.934  19.870  0.00  0.00    +0.000 C 
ATOM      2  O   UNL     1       0.920   5.439  20.555  0.00  0.00    +0.000 OA
ATOM      3  N   UNL     1       2.115   7.283  19.763  0.00  0.00    +0.000 N 
ATOM      4  H   UNL     1       2.764   7.560  19.037  0.00  0.00    +0.000 HD
ENDROOT
BRANCH   1   9
ATOM      5  C   UNL     1       4.784   4.151  18.386  0.00  0.00    +0.000 A 
ATOM      6  C   UNL     1       4.196   3.365  17.397  0.00  0.00    +0.000 A 
ATOM      7  C   UNL     1       2.809   3.384  17.225  0.00  0.00    +0.000 A 
ATOM      8  C   UNL     1       2.003   4.195  18.031  0.00  0.00    +0.000 A 
ATOM      9  C   UNL     1       2.596   4.997  19.013  0.00  0.00    +0.000 A 
ATOM     10  C   UNL     1       3.992   4.977  19.179  0.00  0.00    +0.000 A 
BRANCH   5  11
ATOM     11  N   UNL     1       6.185   4.088  18.604  0.00  0.00    +0.000 N 
ATOM     12  H   UNL     1       6.522   3.805  19.522  0.00  0.00    +0.000 HD
BRANCH  11  14
ATOM     13  C   UNL     1       7.984   6.071  19.033  0.00  0.00    +0.000 C 
ATOM     14  S   UNL     1       7.235   5.078  17.755  0.00  0.00    +0.000 S 
ATOM     15  O   UNL     1       6.478   5.942  16.876  0.00  0.00    +0.000 OA
ATOM     16  O   UNL     1       8.264   4.198  17.239  0.00  0.00    +0.000 OA
ENDBRANCH  11  14
ENDBRANCH   5  11
ENDBRANCH   1   9
BRANCH   3  17
ATOM     17  C   UNL     1       1.459   8.339  20.449  0.00  0.00    +0.000 A 
ATOM     18  C   UNL     1       1.260   8.362  21.832  0.00  0.00    +0.000 A 
ATOM     19  C   UNL     1       0.574   9.422  22.452  0.00  0.00    +0.000 A 
ATOM     20  C   UNL     1       0.065  10.490  21.704  0.00  0.00    +0.000 A 
ATOM     21  C   UNL     1       0.280  10.472  20.318  0.00  0.00    +0.000 A 
ATOM     22  C   UNL     1       0.978   9.420  19.700  0.00  0.00    +0.000 A 
BRANCH  20  23
ATOM     23  C   UNL     1      -0.663  11.579  22.366  0.00  0.00    +0.000 A 
ATOM     24  N   UNL     1      -0.307  12.839  22.563  0.00  0.00    +0.000 NA
ATOM     25  C   UNL     1      -1.376  13.386  23.234  0.00  0.00    +0.000 A 
ATOM     26  C   UNL     1      -1.612  14.681  23.722  0.00  0.00    +0.000 A 
ATOM     27  C   UNL     1      -2.824  14.932  24.388  0.00  0.00    +0.000 A 
ATOM     28  C   UNL     1      -3.780  13.922  24.558  0.00  0.00    +0.000 A 
ATOM     29  C   UNL     1      -3.563  12.628  24.071  0.00  0.00    +0.000 A 
ATOM     30  C   UNL     1      -2.351  12.421  23.423  0.00  0.00    +0.000 A 
ATOM     31  O   UNL     1      -1.903  11.259  22.867  0.00  0.00    +0.000 OA
ENDBRANCH  20  23
ENDBRANCH   3  17
TORSDOF 5
ENDMDL
MODEL 2
REMARK VINA RESULT:      -8.7      3.954     11.285
REMARK  Name = 
REMARK  6 active torsions:
REMARK  status: ('A' for Active; 'I' for Inactive)
REMARK    1  A    between atoms: C_1  and  S_2
REMARK    2  A    between atoms: S_2  and  N_5
REMARK    3  A    between atoms: N_5  and  C_6
REMARK    4  A    between atoms: C_10  and  C_11
REMARK    5  A    between atoms: N_13  and  C_14
REMARK    6  A    between atoms: C_17  and  C_18
REMARK                            x       y       z     vdW  Elec       q    Type
REMARK                         _______ _______ _______ _____ _____    ______ ____
ROOT
ATOM      1  C   UNL     1      -0.798  11.168  22.650  0.00  0.00    +0.000 C 
ATOM      2  O   UNL     1      -0.151  10.535  23.480  0.00  0.00    +0.000 OA
ATOM      3  N   UNL     1      -0.725  11.031  21.271  0.00  0.00    +0.000 N 
ATOM      4  H   UNL     1      -1.191  11.731  20.707  0.00  0.00    +0.000 HD
ENDROOT
BRANCH   1   9
ATOM      5  C   UNL     1      -3.877  12.815  24.072  0.00  0.00    +0.000 A 
ATOM      6  C   UNL     1      -3.518  14.161  24.080  0.00  0.00    +0.000 A 
ATOM      7  C   UNL     1      -2.245  14.545  23.648  0.00  0.00    +0.000 A 
ATOM      8  C   UNL     1      -1.328  13.589  23.196  0.00  0.00    +0.000 A 
ATOM      9  C   UNL     1      -1.695  12.239  23.174  0.00  0.00    +0.000 A 
ATOM     10  C   UNL     1      -2.979  11.859  23.606  0.00  0.00    +0.000 A 
BRANCH   5  11
ATOM     11  N   UNL     1      -5.146  12.416  24.567  0.00  0.00    +0.000 N 
ATOM     12  H   UNL     1      -5.200  11.584  25.151  0.00  0.00    +0.000 HD
BRANCH  11  14
ATOM     13  C   UNL     1      -6.016  12.739  22.019  0.00  0.00    +0.000 C 
ATOM     14  S   UNL     1      -6.549  12.762  23.721  0.00  0.00    +0.000 S 
ATOM     15  O   UNL     1      -6.995  14.097  24.053  0.00  0.00    +0.000 OA
ATOM     16  O   UNL     1      -7.410  11.612  23.915  0.00  0.00    +0.000 OA
ENDBRANCH  11  14
ENDBRANCH   5  11
ENDBRANCH   1   9
BRANCH   3  17
ATOM     17  C   UNL     1       0.100  10.113  20.570  0.00  0.00    +0.000 A 
ATOM     18  C   UNL     1       0.520   8.888  21.095  0.00  0.00    +0.000 A 
ATOM     19  C   UNL     1       1.364   8.033  20.363  0.00  0.00    +0.000 A 
ATOM     20  C   UNL     1       1.816   8.382  19.085  0.00  0.00    +0.000 A 
ATOM     21  C   UNL     1       1.381   9.606  18.554  0.00  0.00    +0.000 A 
ATOM     22  C   UNL     1       0.525  10.454  19.280  0.00  0.00    +0.000 A 
BRANCH  20  23
ATOM     23  C   UNL     1       2.711   7.485  18.343  0.00  0.00    +0.000 A 
ATOM     24  N   UNL     1       3.693   7.773  17.503  0.00  0.00    +0.000 NA
ATOM     25  C   UNL     1       4.171   6.542  17.116  0.00  0.00    +0.000 A 
ATOM     26  C   UNL     1       5.206   6.173  16.244  0.00  0.00    +0.000 A 
ATOM     27  C   UNL     1       5.452   4.804  16.043  0.00  0.00    +0.000 A 
ATOM     28  C   UNL     1       4.690   3.827  16.699  0.00  0.00    +0.000 A 
ATOM     29  C   UNL     1       3.659   4.179  17.576  0.00  0.00    +0.000 A 
ATOM     30  C   UNL     1       3.446   5.543  17.744  0.00  0.00    +0.000 A 
ATOM     31  O   UNL     1       2.509   6.138  18.535  0.00  0.00    +0.000 OA
ENDBRANCH  20  23
ENDBRANCH   3  17
TORSDOF 5
ENDMDL
MODEL 3
REMARK VINA RESULT:      -8.6      1.011      1.011
REMARK  Name = 
REMARK  6 active torsions:
REMARK  status: ('A' for Active; 'I' for Inactive)
REMARK    1  A    between atoms: C_1  and  S_2
REMARK    2  A    between atoms: S_2  and  N_5
REMARK    3  A    between atoms: N_5  and  C_6
REMARK    4  A    between atoms: C_10  and  C_11
REMARK    5  A    between atoms: N_13  and  C_14
REMARK    6  A    between atoms: C_17  and  C_18
REMARK                            x       y       z     vdW  Elec       q    Type
REMARK                         _______ _______ _______ _____ _____    ______ ____
ROOT
ATOM      1  C   UNL     1       2.345   7.248  19.057  0.00  0.00    +0.000 C 
ATOM      2  O   UNL     1       2.690   8.238  18.418  0.00  0.00    +0.000 OA
ATOM      3  N   UNL     1       1.568   7.240  20.206  0.00  0.00    +0.000 N 
ATOM      4  H   UNL     1       1.502   6.370  20.719  0.00  0.00    +0.000 HD
ENDROOT
BRANCH   1   9
ATOM      5  C   UNL     1       4.809   4.488  18.328  0.00  0.00    +0.000 A 
ATOM      6  C   UNL     1       4.017   3.549  17.671  0.00  0.00    +0.000 A 
ATOM      7  C   UNL     1       2.653   3.793  17.487  0.00  0.00    +0.000 A 
ATOM      8  C   UNL     1       2.075   4.981  17.947  0.00  0.00    +0.000 A 
ATOM      9  C   UNL     1       2.874   5.932  18.593  0.00  0.00    +0.000 A 
ATOM     10  C   UNL     1       4.246   5.682  18.772  0.00  0.00    +0.000 A 
BRANCH   5  11
ATOM     11  N   UNL     1       6.180   4.216  18.572  0.00  0.00    +0.000 N 
ATOM     12  H   UNL     1       6.480   4.050  19.530  0.00  0.00    +0.000 HD
BRANCH  11  14
ATOM     13  C   UNL     1       7.634   6.475  18.202  0.00  0.00    +0.000 C 
ATOM     14  S   UNL     1       7.372   4.829  17.568  0.00  0.00    +0.000 S 
ATOM     15  O   UNL     1       6.862   4.924  16.218  0.00  0.00    +0.000 OA
ATOM     16  O   UNL     1       8.563   4.059  17.868  0.00  0.00    +0.000 OA
ENDBRANCH  11  14
ENDBRANCH   5  11
ENDBRANCH   1   9
BRANCH   3  17
ATOM     17  C   UNL     1       1.012   8.382  20.841  0.00  0.00    +0.000 A 
ATOM     18  C   UNL     1       1.068   8.610  22.218  0.00  0.00    +0.000 A 
ATOM     19  C   UNL     1       0.470   9.746  22.794  0.00  0.00    +0.000 A 
ATOM     20  C   UNL     1      -0.205  10.686  22.006  0.00  0.00    +0.000 A 
ATOM     21  C   UNL     1      -0.247  10.462  20.622  0.00  0.00    +0.000 A 
ATOM     22  C   UNL     1       0.364   9.334  20.045  0.00  0.00    +0.000 A 
BRANCH  20  23
ATOM     23  C   UNL     1      -0.838  11.856  22.626  0.00  0.00    +0.000 A 
ATOM     24  N   UNL     1      -0.309  13.016  22.983  0.00  0.00    +0.000 NA
ATOM     25  C   UNL     1      -1.369  13.717  23.510  0.00  0.00    +0.000 A 
ATOM     26  C   UNL     1      -1.458  15.006  24.058  0.00  0.00    +0.000 A 
ATOM     27  C   UNL     1      -2.707  15.444  24.531  0.00  0.00    +0.000 A 
ATOM     28  C   UNL     1      -3.840  14.622  24.456  0.00  0.00    +0.000 A 
ATOM     29  C   UNL     1      -3.769  13.337  23.906  0.00  0.00    +0.000 A 
ATOM     30  C   UNL     1      -2.515  12.941  23.454  0.00  0.00    +0.000 A 
ATOM     31  O   UNL     1      -2.185  11.747  22.886  0.00  0.00    +0.000 OA
ENDBRANCH  20  23
ENDBRANCH   3  17
TORSDOF 5
ENDMDL
MODEL 4
REMARK VINA RESULT:      -8.4      0.876      1.635
REMARK  Name = 
REMARK  6 active torsions:
REMARK  status: ('A' for Active; 'I' for Inactive)
REMARK    1  A    between atoms: C_1  and  S_2
REMARK    2  A    between atoms: S_2  and  N_5
REMARK    3  A    between atoms: N_5  and  C_6
REMARK    4  A    between atoms: C_10  and  C_11
REMARK    5  A    between atoms: N_13  and  C_14
REMARK    6  A    between atoms: C_17  and  C_18
REMARK                            x       y       z     vdW  Elec       q    Type
REMARK                         _______ _______ _______ _____ _____    ______ ____
ROOT
ATOM      1  C   UNL     1       1.890   5.838  19.885  0.00  0.00    +0.000 C 
ATOM      2  O   UNL     1       1.036   5.432  20.669  0.00  0.00    +0.000 OA
ATOM      3  N   UNL     1       2.180   7.164  19.599  0.00  0.00    +0.000 N 
ATOM      4  H   UNL     1       2.791   7.350  18.813  0.00  0.00    +0.000 HD
ENDROOT
BRANCH   1   9
ATOM      5  C   UNL     1       4.797   3.917  18.445  0.00  0.00    +0.000 A 
ATOM      6  C   UNL     1       4.162   2.987  17.625  0.00  0.00    +0.000 A 
ATOM      7  C   UNL     1       2.766   2.955  17.559  0.00  0.00    +0.000 A 
ATOM      8  C   UNL     1       1.997   3.858  18.301  0.00  0.00    +0.000 A 
ATOM      9  C   UNL     1       2.636   4.803  19.112  0.00  0.00    +0.000 A 
ATOM     10  C   UNL     1       4.042   4.833  19.172  0.00  0.00    +0.000 A 
BRANCH   5  11
ATOM     11  N   UNL     1       6.211   3.912  18.563  0.00  0.00    +0.000 N 
ATOM     12  H   UNL     1       6.624   3.645  19.454  0.00  0.00    +0.000 HD
BRANCH  11  14
ATOM     13  C   UNL     1       7.743   6.134  18.832  0.00  0.00    +0.000 C 
ATOM     14  S   UNL     1       7.156   4.942  17.641  0.00  0.00    +0.000 S 
ATOM     15  O   UNL     1       6.325   5.620  16.672  0.00  0.00    +0.000 OA
ATOM     16  O   UNL     1       8.299   4.152  17.228  0.00  0.00    +0.000 OA
ENDBRANCH  11  14
ENDBRANCH   5  11
ENDBRANCH   1   9
BRANCH   3  17
ATOM     17  C   UNL     1       1.553   8.297  20.182  0.00  0.00    +0.000 A 
ATOM     18  C   UNL     1       1.106   9.400  19.450  0.00  0.00    +0.000 A 
ATOM     19  C   UNL     1       0.519  10.508  20.088  0.00  0.00    +0.000 A 
ATOM     20  C   UNL     1       0.367  10.546  21.479  0.00  0.00    +0.000 A 
ATOM     21  C   UNL     1       0.803   9.430  22.210  0.00  0.00    +0.000 A 
ATOM     22  C   UNL     1       1.375   8.316  21.571  0.00  0.00    +0.000 A 
BRANCH  20  23
ATOM     23  C   UNL     1      -0.232  11.718  22.129  0.00  0.00    +0.000 A 
ATOM     24  N   UNL     1      -1.277  11.797  22.938  0.00  0.00    +0.000 NA
ATOM     25  C   UNL     1      -1.373  13.138  23.228  0.00  0.00    +0.000 A 
ATOM     26  C   UNL     1      -2.270  13.860  24.030  0.00  0.00    +0.000 A 
ATOM     27  C   UNL     1      -2.110  15.254  24.120  0.00  0.00    +0.000 A 
ATOM     28  C   UNL     1      -1.080  15.911  23.434  0.00  0.00    +0.000 A 
ATOM     29  C   UNL     1      -0.174  15.205  22.635  0.00  0.00    +0.000 A 
ATOM     30  C   UNL     1      -0.369  13.830  22.570  0.00  0.00    +0.000 A 
ATOM     31  O   UNL     1       0.369  12.927  21.865  0.00  0.00    +0.000 OA
ENDBRANCH  20  23
ENDBRANCH   3  17
TORSDOF 5
ENDMDL
MODEL 5
REMARK VINA RESULT:      -8.4      2.320      2.904
REMARK  Name = 
REMARK  6 active torsions:
REMARK  status: ('A' for Active; 'I' for Inactive)
REMARK    1  A    between atoms: C_1  and  S_2
REMARK    2  A    between atoms: S_2  and  N_5
REMARK    3  A    between atoms: N_5  and  C_6
REMARK    4  A    between atoms: C_10  and  C_11
REMARK    5  A    between atoms: N_13  and  C_14
REMARK    6  A    between atoms: C_17  and  C_18
REMARK                            x       y       z     vdW  Elec       q    Type
REMARK                         _______ _______ _______ _____ _____    ______ ____
ROOT
ATOM      1  C   UNL     1       2.561   7.967  18.120  0.00  0.00    +0.000 C 
ATOM      2  O   UNL     1       2.442   8.938  17.377  0.00  0.00    +0.000 OA
ATOM      3  N   UNL     1       2.085   7.862  19.419  0.00  0.00    +0.000 N 
ATOM      4  H   UNL     1       2.399   7.072  19.969  0.00  0.00    +0.000 HD
ENDROOT
BRANCH   1   9
ATOM      5  C   UNL     1       3.593   4.407  17.431  0.00  0.00    +0.000 A 
ATOM      6  C   UNL     1       4.809   4.572  16.773  0.00  0.00    +0.000 A 
ATOM      7  C   UNL     1       5.294   5.857  16.516  0.00  0.00    +0.000 A 
ATOM      8  C   UNL     1       4.572   6.985  16.924  0.00  0.00    +0.000 A 
ATOM      9  C   UNL     1       3.358   6.818  17.600  0.00  0.00    +0.000 A 
ATOM     10  C   UNL     1       2.877   5.522  17.859  0.00  0.00    +0.000 A 
BRANCH   5  11
ATOM     11  N   UNL     1       3.068   3.105  17.639  0.00  0.00    +0.000 N 
ATOM     12  H   UNL     1       2.173   2.868  17.216  0.00  0.00    +0.000 HD
BRANCH  11  14
ATOM     13  C   UNL     1       1.870   2.184  19.890  0.00  0.00    +0.000 C 
ATOM     14  S   UNL     1       3.429   2.242  19.028  0.00  0.00    +0.000 S 
ATOM     15  O   UNL     1       4.377   2.988  19.825  0.00  0.00    +0.000 OA
ATOM     16  O   UNL     1       3.721   0.894  18.580  0.00  0.00    +0.000 OA
ENDBRANCH  11  14
ENDBRANCH   5  11
ENDBRANCH   1   9
BRANCH   3  17
ATOM     17  C   UNL     1       1.352   8.857  20.119  0.00  0.00    +0.000 A 
ATOM     18  C   UNL     1       0.852  10.017  19.522  0.00  0.00    +0.000 A 
ATOM     19  C   UNL     1       0.159  10.982  20.275  0.00  0.00    +0.000 A 
ATOM     20  C   UNL     1      -0.050  10.816  21.648  0.00  0.00    +0.000 A 
ATOM     21  C   UNL     1       0.440   9.643  22.242  0.00  0.00    +0.000 A 
ATOM     22  C   UNL     1       1.120   8.671  21.487  0.00  0.00    +0.000 A 
BRANCH  20  23
ATOM     23  C   UNL     1      -0.760  11.842  22.421  0.00  0.00    +0.000 A 
ATOM     24  N   UNL     1      -0.328  13.006  22.883  0.00  0.00    +0.000 NA
ATOM     25  C   UNL     1      -1.422  13.534  23.529  0.00  0.00    +0.000 A 
ATOM     26  C   UNL     1      -1.607  14.741  24.221  0.00  0.00    +0.000 A 
ATOM     27  C   UNL     1      -2.865  14.996  24.793  0.00  0.00    +0.000 A 
ATOM     28  C   UNL     1      -3.915  14.074  24.674  0.00  0.00    +0.000 A 
ATOM     29  C   UNL     1      -3.748  12.869  23.982  0.00  0.00    +0.000 A 
ATOM     30  C   UNL     1      -2.488  12.655  23.436  0.00  0.00    +0.000 A 
ATOM     31  O   UNL     1      -2.074  11.568  22.724  0.00  0.00    +0.000 OA
ENDBRANCH  20  23
ENDBRANCH   3  17
TORSDOF 5
ENDMDL
MODEL 6
REMARK VINA RESULT:      -8.3      1.107      1.471
REMARK  Name = 
REMARK  6 active torsions:
REMARK  status: ('A' for Active; 'I' for Inactive)
REMARK    1  A    between atoms: C_1  and  S_2
REMARK    2  A    between atoms: S_2  and  N_5
REMARK    3  A    between atoms: N_5  and  C_6
REMARK    4  A    between atoms: C_10  and  C_11
REMARK    5  A    between atoms: N_13  and  C_14
REMARK    6  A    between atoms: C_17  and  C_18
REMARK                            x       y       z     vdW  Elec       q    Type
REMARK                         _______ _______ _______ _____ _____    ______ ____
ROOT
ATOM      1  C   UNL     1       2.393   7.214  18.684  0.00  0.00    +0.000 C 
ATOM      2  O   UNL     1       2.663   8.114  17.893  0.00  0.00    +0.000 OA
ATOM      3  N   UNL     1       1.706   7.350  19.881  0.00  0.00    +0.000 N 
ATOM      4  H   UNL     1       1.701   6.556  20.510  0.00  0.00    +0.000 HD
ENDROOT
BRANCH   1   9
ATOM      5  C   UNL     1       4.852   4.386  18.265  0.00  0.00    +0.000 A 
ATOM      6  C   UNL     1       4.063   3.388  17.697  0.00  0.00    +0.000 A 
ATOM      7  C   UNL     1       2.703   3.617  17.473  0.00  0.00    +0.000 A 
ATOM      8  C   UNL     1       2.125   4.848  17.804  0.00  0.00    +0.000 A 
ATOM      9  C   UNL     1       2.921   5.856  18.361  0.00  0.00    +0.000 A 
ATOM     10  C   UNL     1       4.290   5.620  18.580  0.00  0.00    +0.000 A 
BRANCH   5  11
ATOM     11  N   UNL     1       6.219   4.134  18.551  0.00  0.00    +0.000 N 
ATOM     12  H   UNL     1       6.484   3.925  19.511  0.00  0.00    +0.000 HD
BRANCH  11  14
ATOM     13  C   UNL     1       7.716   6.392  18.442  0.00  0.00    +0.000 C 
ATOM     14  S   UNL     1       7.433   4.830  17.631  0.00  0.00    +0.000 S 
ATOM     15  O   UNL     1       6.942   5.080  16.294  0.00  0.00    +0.000 OA
ATOM     16  O   UNL     1       8.607   4.011  17.858  0.00  0.00    +0.000 OA
ENDBRANCH  11  14
ENDBRANCH   5  11
ENDBRANCH   1   9
BRANCH   3  17
ATOM     17  C   UNL     1       1.168   8.558  20.398  0.00  0.00    +0.000 A 
ATOM     18  C   UNL     1       0.924   9.694  19.623  0.00  0.00    +0.000 A 
ATOM     19  C   UNL     1       0.419  10.874  20.199  0.00  0.00    +0.000 A 
ATOM     20  C   UNL     1       0.146  10.952  21.569  0.00  0.00    +0.000 A 
ATOM     21  C   UNL     1       0.378   9.804  22.343  0.00  0.00    +0.000 A 
ATOM     22  C   UNL     1       0.869   8.620  21.765  0.00  0.00    +0.000 A 
BRANCH  20  23
ATOM     23  C   UNL     1      -0.364  12.196  22.156  0.00  0.00    +0.000 A 
ATOM     24  N   UNL     1       0.145  13.418  22.127  0.00  0.00    +0.000 NA
ATOM     25  C   UNL     1      -0.757  14.172  22.841  0.00  0.00    +0.000 A 
ATOM     26  C   UNL     1      -0.785  15.537  23.167  0.00  0.00    +0.000 A 
ATOM     27  C   UNL     1      -1.859  16.017  23.936  0.00  0.00    +0.000 A 
ATOM     28  C   UNL     1      -2.883  15.160  24.365  0.00  0.00    +0.000 A 
ATOM     29  C   UNL     1      -2.872  13.799  24.043  0.00  0.00    +0.000 A 
ATOM     30  C   UNL     1      -1.791  13.365  23.285  0.00  0.00    +0.000 A 
ATOM     31  O   UNL     1      -1.549  12.096  22.848  0.00  0.00    +0.000 OA
ENDBRANCH  20  23
ENDBRANCH   3  17
TORSDOF 5
ENDMDL
MODEL 7
REMARK VINA RESULT:      -8.3      1.242      1.557
REMARK  Name = 
REMARK  6 active torsions:
REMARK  status: ('A' for Active; 'I' for Inactive)
REMARK    1  A    between atoms: C_1  and  S_2
REMARK    2  A    between atoms: S_2  and  N_5
REMARK    3  A    between atoms: N_5  and  C_6
REMARK    4  A    between atoms: C_10  and  C_11
REMARK    5  A    between atoms: N_13  and  C_14
REMARK    6  A    between atoms: C_17  and  C_18
REMARK                            x       y       z     vdW  Elec       q    Type
REMARK                         _______ _______ _______ _____ _____    ______ ____
ROOT
ATOM      1  C   UNL     1       2.099   6.194  19.895  0.00  0.00    +0.000 C 
ATOM      2  O   UNL     1       1.485   5.636  20.801  0.00  0.00    +0.000 OA
ATOM      3  N   UNL     1       2.097   7.553  19.615  0.00  0.00    +0.000 N 
ATOM      4  H   UNL     1       2.513   7.851  18.742  0.00  0.00    +0.000 HD
ENDROOT
BRANCH   1   9
ATOM      5  C   UNL     1       4.390   5.177  17.078  0.00  0.00    +0.000 A 
ATOM      6  C   UNL     1       4.266   3.790  17.080  0.00  0.00    +0.000 A 
ATOM      7  C   UNL     1       3.452   3.164  18.029  0.00  0.00    +0.000 A 
ATOM      8  C   UNL     1       2.750   3.921  18.973  0.00  0.00    +0.000 A 
ATOM      9  C   UNL     1       2.863   5.315  18.961  0.00  0.00    +0.000 A 
ATOM     10  C   UNL     1       3.680   5.940  18.002  0.00  0.00    +0.000 A 
BRANCH   5  11
ATOM     11  N   UNL     1       5.264   5.811  16.157  0.00  0.00    +0.000 N 
ATOM     12  H   UNL     1       5.130   5.638  15.162  0.00  0.00    +0.000 HD
BRANCH  11  14
ATOM     13  C   UNL     1       7.196   5.053  17.902  0.00  0.00    +0.000 C 
ATOM     14  S   UNL     1       6.834   6.202  16.587  0.00  0.00    +0.000 S 
ATOM     15  O   UNL     1       6.866   7.547  17.119  0.00  0.00    +0.000 OA
ATOM     16  O   UNL     1       7.651   5.825  15.451  0.00  0.00    +0.000 OA
ENDBRANCH  11  14
ENDBRANCH   5  11
ENDBRANCH   1   9
BRANCH   3  17
ATOM     17  C   UNL     1       1.397   8.550  20.345  0.00  0.00    +0.000 A 
ATOM     18  C   UNL     1       1.403   8.641  21.739  0.00  0.00    +0.000 A 
ATOM     19  C   UNL     1       0.664   9.634  22.407  0.00  0.00    +0.000 A 
ATOM     20  C   UNL     1      -0.106  10.563  21.699  0.00  0.00    +0.000 A 
ATOM     21  C   UNL     1      -0.098  10.479  20.298  0.00  0.00    +0.000 A 
ATOM     22  C   UNL     1       0.653   9.496  19.629  0.00  0.00    +0.000 A 
BRANCH  20  23
ATOM     23  C   UNL     1      -0.885  11.581  22.414  0.00  0.00    +0.000 A 
ATOM     24  N   UNL     1      -2.117  11.523  22.894  0.00  0.00    +0.000 NA
ATOM     25  C   UNL     1      -2.315  12.764  23.454  0.00  0.00    +0.000 A 
ATOM     26  C   UNL     1      -3.415  13.324  24.122  0.00  0.00    +0.000 A 
ATOM     27  C   UNL     1      -3.313  14.649  24.579  0.00  0.00    +0.000 A 
ATOM     28  C   UNL     1      -2.143  15.396  24.382  0.00  0.00    +0.000 A 
ATOM     29  C   UNL     1      -1.036  14.849  23.724  0.00  0.00    +0.000 A 
ATOM     30  C   UNL     1      -1.180  13.538  23.284  0.00  0.00    +0.000 A 
ATOM     31  O   UNL     1      -0.256  12.787  22.620  0.00  0.00    +0.000 OA
ENDBRANCH  20  23
ENDBRANCH   3  17
TORSDOF 5
ENDMDL
MODEL 8
REMARK VINA RESULT:      -8.3      1.362      1.654
REMARK  Name = 
REMARK  6 active torsions:
REMARK  status: ('A' for Active; 'I' for Inactive)
REMARK    1  A    between atoms: C_1  and  S_2
REMARK    2  A    between atoms: S_2  and  N_5
REMARK    3  A    between atoms: N_5  and  C_6
REMARK    4  A    between atoms: C_10  and  C_11
REMARK    5  A    between atoms: N_13  and  C_14
REMARK    6  A    between atoms: C_17  and  C_18
REMARK                            x       y       z     vdW  Elec       q    Type
REMARK                         _______ _______ _______ _____ _____    ______ ____
ROOT
ATOM      1  C   UNL     1       2.256   7.181  19.585  0.00  0.00    +0.000 C 
ATOM      2  O   UNL     1       2.366   8.027  18.701  0.00  0.00    +0.000 OA
ATOM      3  N   UNL     1       1.622   7.346  20.807  0.00  0.00    +0.000 N 
ATOM      4  H   UNL     1       1.752   6.622  21.503  0.00  0.00    +0.000 HD
ENDROOT
BRANCH   1   9
ATOM      5  C   UNL     1       4.498   4.598  17.996  0.00  0.00    +0.000 A 
ATOM      6  C   UNL     1       4.197   3.452  18.729  0.00  0.00    +0.000 A 
ATOM      7  C   UNL     1       3.276   3.518  19.779  0.00  0.00    +0.000 A 
ATOM      8  C   UNL     1       2.643   4.725  20.095  0.00  0.00    +0.000 A 
ATOM      9  C   UNL     1       2.933   5.872  19.349  0.00  0.00    +0.000 A 
ATOM     10  C   UNL     1       3.858   5.800  18.291  0.00  0.00    +0.000 A 
BRANCH   5  11
ATOM     11  N   UNL     1       5.477   4.549  16.971  0.00  0.00    +0.000 N 
ATOM     12  H   UNL     1       5.344   3.895  16.202  0.00  0.00    +0.000 HD
BRANCH  11  14
ATOM     13  C   UNL     1       7.074   6.711  17.330  0.00  0.00    +0.000 C 
ATOM     14  S   UNL     1       7.077   4.929  17.289  0.00  0.00    +0.000 S 
ATOM     15  O   UNL     1       7.904   4.488  16.188  0.00  0.00    +0.000 OA
ATOM     16  O   UNL     1       7.322   4.470  18.642  0.00  0.00    +0.000 OA
ENDBRANCH  11  14
ENDBRANCH   5  11
ENDBRANCH   1   9
BRANCH   3  17
ATOM     17  C   UNL     1       0.963   8.524  21.249  0.00  0.00    +0.000 A 
ATOM     18  C   UNL     1       1.108   9.771  20.637  0.00  0.00    +0.000 A 
ATOM     19  C   UNL     1       0.454  10.910  21.141  0.00  0.00    +0.000 A 
ATOM     20  C   UNL     1      -0.362  10.834  22.275  0.00  0.00    +0.000 A 
ATOM     21  C   UNL     1      -0.518   9.577  22.879  0.00  0.00    +0.000 A 
ATOM     22  C   UNL     1       0.124   8.436  22.366  0.00  0.00    +0.000 A 
BRANCH  20  23
ATOM     23  C   UNL     1      -1.023  12.036  22.796  0.00  0.00    +0.000 A 
ATOM     24  N   UNL     1      -0.505  13.201  23.153  0.00  0.00    +0.000 NA
ATOM     25  C   UNL     1      -1.592  13.937  23.564  0.00  0.00    +0.000 A 
ATOM     26  C   UNL     1      -1.703  15.247  24.054  0.00  0.00    +0.000 A 
ATOM     27  C   UNL     1      -2.979  15.722  24.407  0.00  0.00    +0.000 A 
ATOM     28  C   UNL     1      -4.116  14.913  24.268  0.00  0.00    +0.000 A 
ATOM     29  C   UNL     1      -4.022  13.608  23.775  0.00  0.00    +0.000 A 
ATOM     30  C   UNL     1      -2.743  13.177  23.442  0.00  0.00    +0.000 A 
ATOM     31  O   UNL     1      -2.388  11.957  22.948  0.00  0.00    +0.000 OA
ENDBRANCH  20  23
ENDBRANCH   3  17
TORSDOF 5
ENDMDL
MODEL 9
REMARK VINA RESULT:      -8.3      2.825      3.399
REMARK  Name = 
REMARK  6 active torsions:
REMARK  status: ('A' for Active; 'I' for Inactive)
REMARK    1  A    between atoms: C_1  and  S_2
REMARK    2  A    between atoms: S_2  and  N_5
REMARK    3  A    between atoms: N_5  and  C_6
REMARK    4  A    between atoms: C_10  and  C_11
REMARK    5  A    between atoms: N_13  and  C_14
REMARK    6  A    between atoms: C_17  and  C_18
REMARK                            x       y       z     vdW  Elec       q    Type
REMARK                         _______ _______ _______ _____ _____    ______ ____
ROOT
ATOM      1  C   UNL     1       2.330   7.245  19.009  0.00  0.00    +0.000 C 
ATOM      2  O   UNL     1       2.103   7.344  20.212  0.00  0.00    +0.000 OA
ATOM      3  N   UNL     1       2.100   8.218  18.047  0.00  0.00    +0.000 N 
ATOM      4  H   UNL     1       2.177   7.941  17.075  0.00  0.00    +0.000 HD
ENDROOT
BRANCH   1   9
ATOM      5  C   UNL     1       4.738   4.447  18.243  0.00  0.00    +0.000 A 
ATOM      6  C   UNL     1       3.928   3.532  17.573  0.00  0.00    +0.000 A 
ATOM      7  C   UNL     1       2.569   3.807  17.392  0.00  0.00    +0.000 A 
ATOM      8  C   UNL     1       2.014   5.000  17.868  0.00  0.00    +0.000 A 
ATOM      9  C   UNL     1       2.832   5.926  18.527  0.00  0.00    +0.000 A 
ATOM     10  C   UNL     1       4.199   5.646  18.703  0.00  0.00    +0.000 A 
BRANCH   5  11
ATOM     11  N   UNL     1       6.103   4.144  18.482  0.00  0.00    +0.000 N 
ATOM     12  H   UNL     1       6.378   3.846  19.417  0.00  0.00    +0.000 HD
BRANCH  11  14
ATOM     13  C   UNL     1       7.691   6.340  18.576  0.00  0.00    +0.000 C 
ATOM     14  S   UNL     1       7.319   4.890  17.606  0.00  0.00    +0.000 S 
ATOM     15  O   UNL     1       6.799   5.308  16.322  0.00  0.00    +0.000 OA
ATOM     16  O   UNL     1       8.462   4.006  17.700  0.00  0.00    +0.000 OA
ENDBRANCH  11  14
ENDBRANCH   5  11
ENDBRANCH   1   9
BRANCH   3  17
ATOM     17  C   UNL     1       1.579   9.517  18.286  0.00  0.00    +0.000 A 
ATOM     18  C   UNL     1       2.342  10.685  18.210  0.00  0.00    +0.000 A 
ATOM     19  C   UNL     1       1.777  11.943  18.489  0.00  0.00    +0.000 A 
ATOM     20  C   UNL     1       0.431  12.067  18.855  0.00  0.00    +0.000 A 
ATOM     21  C   UNL     1      -0.336  10.894  18.915  0.00  0.00    +0.000 A 
ATOM     22  C   UNL     1       0.226   9.638  18.622  0.00  0.00    +0.000 A 
BRANCH  20  23
ATOM     23  C   UNL     1      -0.137  13.386  19.159  0.00  0.00    +0.000 A 
ATOM     24  N   UNL     1      -0.988  13.743  20.109  0.00  0.00    +0.000 NA
ATOM     25  C   UNL     1      -1.163  15.093  19.907  0.00  0.00    +0.000 A 
ATOM     26  C   UNL     1      -1.940  16.046  20.582  0.00  0.00    +0.000 A 
ATOM     27  C   UNL     1      -1.916  17.374  20.122  0.00  0.00    +0.000 A 
ATOM     28  C   UNL     1      -1.133  17.744  19.019  0.00  0.00    +0.000 A 
ATOM     29  C   UNL     1      -0.348  16.807  18.339  0.00  0.00    +0.000 A 
ATOM     30  C   UNL     1      -0.404  15.505  18.825  0.00  0.00    +0.000 A 
ATOM     31  O   UNL     1       0.260  14.417  18.340  0.00  0.00    +0.000 OA
ENDBRANCH  20  23
ENDBRANCH   3  17
TORSDOF 5
ENDMDL
