MODEL 1
REMARK VINA RESULT:      -7.6      0.000      0.000
REMARK  Name = 
REMARK  5 active torsions:
REMARK  status: ('A' for Active; 'I' for Inactive)
REMARK    1  A    between atoms: N_4  and  C_5
REMARK    2  A    between atoms: C_5  and  C_6
REMARK    3  A    between atoms: C_9  and  C_10
REMARK    4  A    between atoms: C_10  and  N_11
REMARK    5  A    between atoms: N_21  and  C_22
REMARK                            x       y       z     vdW  Elec       q    Type
REMARK                         _______ _______ _______ _____ _____    ______ ____
ROOT
ATOM      1  C   UNL     1      -2.418  12.316  20.442  0.00  0.00    +0.000 A 
ATOM      2  N   UNL     1      -1.255  11.927  19.863  0.00  0.00    +0.000 NA
ATOM      3  C   UNL     1      -1.287  11.492  18.577  0.00  0.00    +0.000 A 
ATOM      4  N   UNL     1      -0.158  11.043  17.922  0.00  0.00    +0.000 N 
ATOM      5  C   UNL     1      -2.538  11.486  17.924  0.00  0.00    +0.000 A 
ATOM      6  N   UNL     1      -2.871  11.115  16.636  0.00  0.00    +0.000 NA
ATOM      7  C   UNL     1      -4.177  11.237  16.588  0.00  0.00    +0.000 A 
ATOM      8  N   UNL     1      -4.704  11.660  17.783  0.00  0.00    +0.000 N 
ATOM      9  C   UNL     1      -3.660  11.873  18.652  0.00  0.00    +0.000 A 
ATOM     10  N   UNL     1      -3.668  12.310  19.926  0.00  0.00    +0.000 NA
ATOM     11  H   UNL     1      -0.244  10.939  16.918  0.00  0.00    +0.000 HD
ENDROOT
BRANCH   8  12
ATOM     12  C   UNL     1      -6.136  11.742  17.980  0.00  0.00    +0.000 C 
ATOM     13  C   UNL     1      -6.820  12.052  19.295  0.00  0.00    +0.000 C 
ATOM     14  C   UNL     1      -6.906  10.673  18.734  0.00  0.00    +0.000 C 
ENDBRANCH   8  12
BRANCH   4  15
ATOM     15  C   UNL     1       1.147  11.042  18.531  0.00  0.00    +0.000 C 
BRANCH  15  16
ATOM     16  C   UNL     1       1.564   9.617  18.859  0.00  0.00    +0.000 A 
ATOM     17  C   UNL     1       2.300   8.860  17.935  0.00  0.00    +0.000 A 
ATOM     18  C   UNL     1       2.703   7.554  18.234  0.00  0.00    +0.000 A 
ATOM     19  C   UNL     1       2.377   6.967  19.467  0.00  0.00    +0.000 A 
ATOM     20  C   UNL     1       1.624   7.715  20.382  0.00  0.00    +0.000 A 
ATOM     21  C   UNL     1       1.211   9.018  20.077  0.00  0.00    +0.000 A 
BRANCH  19  22
ATOM     22  C   UNL     1       2.828   5.565  19.802  0.00  0.00    +0.000 C 
BRANCH  22  23
ATOM     23  N   UNL     1       2.789   4.672  18.656  0.00  0.00    +0.000 N 
ATOM     24  C   UNL     1       1.703   4.060  18.109  0.00  0.00    +0.000 A 
ATOM     25  N   UNL     1       2.091   3.219  17.178  0.00  0.00    +0.000 NA
ATOM     26  C   UNL     1       3.451   3.344  17.199  0.00  0.00    +0.000 A 
ATOM     27  N   UNL     1       3.930   4.212  18.095  0.00  0.00    +0.000 NA
ENDBRANCH  22  23
ENDBRANCH  19  22
ENDBRANCH  15  16
ENDBRANCH   4  15
TORSDOF 5
ENDMDL
MODEL 2
REMARK VINA RESULT:      -7.5      1.079      1.632
REMARK  Name = 
REMARK  5 active torsions:
REMARK  status: ('A' for Active; 'I' for Inactive)
REMARK    1  A    between atoms: N_4  and  C_5
REMARK    2  A    between atoms: C_5  and  C_6
REMARK    3  A    between atoms: C_9  and  C_10
REMARK    4  A    between atoms: C_10  and  N_11
REMARK    5  A    between atoms: N_21  and  C_22
REMARK                            x       y       z     vdW  Elec       q    Type
REMARK                         _______ _______ _______ _____ _____    ______ ____
ROOT
ATOM      1  C   UNL     1      -1.368  12.493  19.836  0.00  0.00    +0.000 A 
ATOM      2  N   UNL     1      -0.374  11.744  19.299  0.00  0.00    +0.000 NA
ATOM      3  C   UNL     1      -0.688  10.870  18.308  0.00  0.00    +0.000 A 
ATOM      4  N   UNL     1       0.253  10.042  17.729  0.00  0.00    +0.000 N 
ATOM      5  C   UNL     1      -2.037  10.811  17.896  0.00  0.00    +0.000 A 
ATOM      6  N   UNL     1      -2.640  10.041  16.921  0.00  0.00    +0.000 NA
ATOM      7  C   UNL     1      -3.916  10.334  17.015  0.00  0.00    +0.000 A 
ATOM      8  N   UNL     1      -4.167  11.249  18.008  0.00  0.00    +0.000 N 
ATOM      9  C   UNL     1      -2.962  11.609  18.564  0.00  0.00    +0.000 A 
ATOM     10  N   UNL     1      -2.689  12.487  19.549  0.00  0.00    +0.000 NA
ATOM     11  H   UNL     1      -0.032   9.583  16.872  0.00  0.00    +0.000 HD
ENDROOT
BRANCH   8  12
ATOM     12  C   UNL     1      -5.523  11.616  18.359  0.00  0.00    +0.000 C 
ATOM     13  C   UNL     1      -6.079  11.655  19.766  0.00  0.00    +0.000 C 
ATOM     14  C   UNL     1      -6.537  10.590  18.829  0.00  0.00    +0.000 C 
ENDBRANCH   8  12
BRANCH   4  15
ATOM     15  C   UNL     1       1.645  10.069  18.097  0.00  0.00    +0.000 C 
BRANCH  15  16
ATOM     16  C   UNL     1       2.080   8.693  18.577  0.00  0.00    +0.000 A 
ATOM     17  C   UNL     1       1.657   8.207  19.822  0.00  0.00    +0.000 A 
ATOM     18  C   UNL     1       2.038   6.936  20.266  0.00  0.00    +0.000 A 
ATOM     19  C   UNL     1       2.857   6.116  19.474  0.00  0.00    +0.000 A 
ATOM     20  C   UNL     1       3.298   6.609  18.239  0.00  0.00    +0.000 A 
ATOM     21  C   UNL     1       2.926   7.886  17.801  0.00  0.00    +0.000 A 
BRANCH  19  22
ATOM     22  C   UNL     1       3.255   4.735  19.940  0.00  0.00    +0.000 C 
BRANCH  22  23
ATOM     23  N   UNL     1       2.484   3.682  19.300  0.00  0.00    +0.000 N 
ATOM     24  C   UNL     1       2.807   2.965  18.189  0.00  0.00    +0.000 A 
ATOM     25  N   UNL     1       1.791   2.210  17.839  0.00  0.00    +0.000 NA
ATOM     26  C   UNL     1       0.846   2.513  18.776  0.00  0.00    +0.000 A 
ATOM     27  N   UNL     1       1.215   3.418  19.687  0.00  0.00    +0.000 NA
ENDBRANCH  22  23
ENDBRANCH  19  22
ENDBRANCH  15  16
ENDBRANCH   4  15
TORSDOF 5
ENDMDL
MODEL 3
REMARK VINA RESULT:      -7.4      1.116      1.416
REMARK  Name = 
REMARK  5 active torsions:
REMARK  status: ('A' for Active; 'I' for Inactive)
REMARK    1  A    between atoms: N_4  and  C_5
REMARK    2  A    between atoms: C_5  and  C_6
REMARK    3  A    between atoms: C_9  and  C_10
REMARK    4  A    between atoms: C_10  and  N_11
REMARK    5  A    between atoms: N_21  and  C_22
REMARK                            x       y       z     vdW  Elec       q    Type
REMARK                         _______ _______ _______ _____ _____    ______ ____
ROOT
ATOM      1  C   UNL     1      -2.378  12.195  20.246  0.00  0.00    +0.000 A 
ATOM      2  N   UNL     1      -1.272  11.438  20.036  0.00  0.00    +0.000 NA
ATOM      3  C   UNL     1      -1.169  10.754  18.867  0.00  0.00    +0.000 A 
ATOM      4  N   UNL     1      -0.097   9.932  18.586  0.00  0.00    +0.000 N 
ATOM      5  C   UNL     1      -2.225  10.889  17.940  0.00  0.00    +0.000 A 
ATOM      6  N   UNL     1      -2.389  10.334  16.686  0.00  0.00    +0.000 NA
ATOM      7  C   UNL     1      -3.579  10.734  16.304  0.00  0.00    +0.000 A 
ATOM      8  N   UNL     1      -4.194  11.513  17.252  0.00  0.00    +0.000 N 
ATOM      9  C   UNL     1      -3.322  11.667  18.302  0.00  0.00    +0.000 A 
ATOM     10  N   UNL     1      -3.459  12.360  19.450  0.00  0.00    +0.000 NA
ATOM     11  H   UNL     1      -0.012   9.635  17.621  0.00  0.00    +0.000 HD
ENDROOT
BRANCH   8  12
ATOM     12  C   UNL     1      -5.563  11.956  17.081  0.00  0.00    +0.000 C 
ATOM     13  C   UNL     1      -6.280  12.940  17.980  0.00  0.00    +0.000 C 
ATOM     14  C   UNL     1      -6.676  11.503  18.007  0.00  0.00    +0.000 C 
ENDBRANCH   8  12
BRANCH   4  15
ATOM     15  C   UNL     1       1.015   9.768  19.486  0.00  0.00    +0.000 C 
BRANCH  15  16
ATOM     16  C   UNL     1       1.850   8.569  19.064  0.00  0.00    +0.000 A 
ATOM     17  C   UNL     1       2.470   8.541  17.806  0.00  0.00    +0.000 A 
ATOM     18  C   UNL     1       3.254   7.451  17.415  0.00  0.00    +0.000 A 
ATOM     19  C   UNL     1       3.438   6.355  18.273  0.00  0.00    +0.000 A 
ATOM     20  C   UNL     1       2.802   6.372  19.521  0.00  0.00    +0.000 A 
ATOM     21  C   UNL     1       2.007   7.459  19.907  0.00  0.00    +0.000 A 
BRANCH  19  22
ATOM     22  C   UNL     1       4.300   5.184  17.863  0.00  0.00    +0.000 C 
BRANCH  22  23
ATOM     23  N   UNL     1       3.663   3.901  18.113  0.00  0.00    +0.000 N 
ATOM     24  C   UNL     1       3.974   2.985  19.069  0.00  0.00    +0.000 A 
ATOM     25  N   UNL     1       3.269   1.892  18.882  0.00  0.00    +0.000 NA
ATOM     26  C   UNL     1       2.536   2.188  17.769  0.00  0.00    +0.000 A 
ATOM     27  N   UNL     1       2.749   3.402  17.251  0.00  0.00    +0.000 NA
ENDBRANCH  22  23
ENDBRANCH  19  22
ENDBRANCH  15  16
ENDBRANCH   4  15
TORSDOF 5
ENDMDL
MODEL 4
REMARK VINA RESULT:      -7.4      2.626      9.472
REMARK  Name = 
REMARK  5 active torsions:
REMARK  status: ('A' for Active; 'I' for Inactive)
REMARK    1  A    between atoms: N_4  and  C_5
REMARK    2  A    between atoms: C_5  and  C_6
REMARK    3  A    between atoms: C_9  and  C_10
REMARK    4  A    between atoms: C_10  and  N_11
REMARK    5  A    between atoms: N_21  and  C_22
REMARK                            x       y       z     vdW  Elec       q    Type
REMARK                         _______ _______ _______ _____ _____    ______ ____
ROOT
ATOM      1  C   UNL     1       2.309   3.770  19.027  0.00  0.00    +0.000 A 
ATOM      2  N   UNL     1       1.934   4.879  19.710  0.00  0.00    +0.000 NA
ATOM      3  C   UNL     1       2.485   6.070  19.361  0.00  0.00    +0.000 A 
ATOM      4  N   UNL     1       2.190   7.243  20.026  0.00  0.00    +0.000 N 
ATOM      5  C   UNL     1       3.409   6.071  18.294  0.00  0.00    +0.000 A 
ATOM      6  N   UNL     1       4.109   7.113  17.719  0.00  0.00    +0.000 NA
ATOM      7  C   UNL     1       4.876   6.538  16.823  0.00  0.00    +0.000 A 
ATOM      8  N   UNL     1       4.711   5.175  16.797  0.00  0.00    +0.000 N 
ATOM      9  C   UNL     1       3.735   4.851  17.707  0.00  0.00    +0.000 A 
ATOM     10  N   UNL     1       3.209   3.651  18.025  0.00  0.00    +0.000 NA
ATOM     11  H   UNL     1       2.486   8.096  19.566  0.00  0.00    +0.000 HD
ENDROOT
BRANCH   8  12
ATOM     12  C   UNL     1       5.551   4.338  15.965  0.00  0.00    +0.000 C 
ATOM     13  C   UNL     1       6.735   4.822  15.155  0.00  0.00    +0.000 C 
ATOM     14  C   UNL     1       5.493   4.396  14.449  0.00  0.00    +0.000 C 
ENDBRANCH   8  12
BRANCH   4  15
ATOM     15  C   UNL     1       1.243   7.307  21.110  0.00  0.00    +0.000 C 
BRANCH  15  16
ATOM     16  C   UNL     1       0.689   8.717  21.231  0.00  0.00    +0.000 A 
ATOM     17  C   UNL     1       0.719   9.590  20.134  0.00  0.00    +0.000 A 
ATOM     18  C   UNL     1       0.196  10.884  20.230  0.00  0.00    +0.000 A 
ATOM     19  C   UNL     1      -0.370  11.342  21.430  0.00  0.00    +0.000 A 
ATOM     20  C   UNL     1      -0.382  10.478  22.533  0.00  0.00    +0.000 A 
ATOM     21  C   UNL     1       0.153   9.187  22.440  0.00  0.00    +0.000 A 
BRANCH  19  22
ATOM     22  C   UNL     1      -0.955  12.731  21.533  0.00  0.00    +0.000 C 
BRANCH  22  23
ATOM     23  N   UNL     1      -2.396  12.723  21.726  0.00  0.00    +0.000 N 
ATOM     24  C   UNL     1      -3.083  12.531  22.885  0.00  0.00    +0.000 A 
ATOM     25  N   UNL     1      -4.369  12.448  22.629  0.00  0.00    +0.000 NA
ATOM     26  C   UNL     1      -4.420  12.585  21.271  0.00  0.00    +0.000 A 
ATOM     27  N   UNL     1      -3.238  12.744  20.669  0.00  0.00    +0.000 NA
ENDBRANCH  22  23
ENDBRANCH  19  22
ENDBRANCH  15  16
ENDBRANCH   4  15
TORSDOF 5
ENDMDL
MODEL 5
REMARK VINA RESULT:      -7.4      2.552      9.644
REMARK  Name = 
REMARK  5 active torsions:
REMARK  status: ('A' for Active; 'I' for Inactive)
REMARK    1  A    between atoms: N_4  and  C_5
REMARK    2  A    between atoms: C_5  and  C_6
REMARK    3  A    between atoms: C_9  and  C_10
REMARK    4  A    between atoms: C_10  and  N_11
REMARK    5  A    between atoms: N_21  and  C_22
REMARK                            x       y       z     vdW  Elec       q    Type
REMARK                         _______ _______ _______ _____ _____    ______ ____
ROOT
ATOM      1  C   UNL     1       3.209   3.694  19.375  0.00  0.00    +0.000 A 
ATOM      2  N   UNL     1       2.635   4.797  19.917  0.00  0.00    +0.000 NA
ATOM      3  C   UNL     1       2.915   6.007  19.368  0.00  0.00    +0.000 A 
ATOM      4  N   UNL     1       2.404   7.184  19.878  0.00  0.00    +0.000 N 
ATOM      5  C   UNL     1       3.781   6.031  18.254  0.00  0.00    +0.000 A 
ATOM      6  N   UNL     1       4.229   7.094  17.494  0.00  0.00    +0.000 NA
ATOM      7  C   UNL     1       5.068   6.555  16.640  0.00  0.00    +0.000 A 
ATOM      8  N   UNL     1       5.189   5.198  16.817  0.00  0.00    +0.000 N 
ATOM      9  C   UNL     1       4.333   4.827  17.826  0.00  0.00    +0.000 A 
ATOM     10  N   UNL     1       4.079   3.609  18.344  0.00  0.00    +0.000 NA
ATOM     11  H   UNL     1       2.501   7.999  19.284  0.00  0.00    +0.000 HD
ENDROOT
BRANCH   8  12
ATOM     12  C   UNL     1       6.156   4.431  16.060  0.00  0.00    +0.000 C 
ATOM     13  C   UNL     1       6.879   4.918  14.822  0.00  0.00    +0.000 C 
ATOM     14  C   UNL     1       5.835   3.863  14.689  0.00  0.00    +0.000 C 
ENDBRANCH   8  12
BRANCH   4  15
ATOM     15  C   UNL     1       1.503   7.220  21.001  0.00  0.00    +0.000 C 
BRANCH  15  16
ATOM     16  C   UNL     1       0.870   8.598  21.113  0.00  0.00    +0.000 A 
ATOM     17  C   UNL     1       0.313   9.029  22.325  0.00  0.00    +0.000 A 
ATOM     18  C   UNL     1      -0.257  10.301  22.443  0.00  0.00    +0.000 A 
ATOM     19  C   UNL     1      -0.287  11.178  21.348  0.00  0.00    +0.000 A 
ATOM     20  C   UNL     1       0.251  10.741  20.129  0.00  0.00    +0.000 A 
ATOM     21  C   UNL     1       0.810   9.462  20.009  0.00  0.00    +0.000 A 
BRANCH  19  22
ATOM     22  C   UNL     1      -0.882  12.561  21.475  0.00  0.00    +0.000 C 
BRANCH  22  23
ATOM     23  N   UNL     1      -2.332  12.562  21.360  0.00  0.00    +0.000 N 
ATOM     24  C   UNL     1      -3.081  12.692  20.232  0.00  0.00    +0.000 A 
ATOM     25  N   UNL     1      -4.351  12.791  20.553  0.00  0.00    +0.000 NA
ATOM     26  C   UNL     1      -4.328  12.728  21.917  0.00  0.00    +0.000 A 
ATOM     27  N   UNL     1      -3.115  12.600  22.462  0.00  0.00    +0.000 NA
ENDBRANCH  22  23
ENDBRANCH  19  22
ENDBRANCH  15  16
ENDBRANCH   4  15
TORSDOF 5
ENDMDL
MODEL 6
REMARK VINA RESULT:      -7.4      2.053      9.370
REMARK  Name = 
REMARK  5 active torsions:
REMARK  status: ('A' for Active; 'I' for Inactive)
REMARK    1  A    between atoms: N_4  and  C_5
REMARK    2  A    between atoms: C_5  and  C_6
REMARK    3  A    between atoms: C_9  and  C_10
REMARK    4  A    between atoms: C_10  and  N_11
REMARK    5  A    between atoms: N_21  and  C_22
REMARK                            x       y       z     vdW  Elec       q    Type
REMARK                         _______ _______ _______ _____ _____    ______ ____
ROOT
ATOM      1  C   UNL     1       2.235   3.949  17.889  0.00  0.00    +0.000 A 
ATOM      2  N   UNL     1       2.065   4.959  18.778  0.00  0.00    +0.000 NA
ATOM      3  C   UNL     1       2.991   5.951  18.812  0.00  0.00    +0.000 A 
ATOM      4  N   UNL     1       2.918   6.998  19.709  0.00  0.00    +0.000 N 
ATOM      5  C   UNL     1       4.068   5.867  17.903  0.00  0.00    +0.000 A 
ATOM      6  N   UNL     1       5.136   6.720  17.702  0.00  0.00    +0.000 NA
ATOM      7  C   UNL     1       5.867   6.120  16.792  0.00  0.00    +0.000 A 
ATOM      8  N   UNL     1       5.329   4.919  16.402  0.00  0.00    +0.000 N 
ATOM      9  C   UNL     1       4.141   4.752  17.073  0.00  0.00    +0.000 A 
ATOM     10  N   UNL     1       3.243   3.749  17.010  0.00  0.00    +0.000 NA
ATOM     11  H   UNL     1       3.530   7.783  19.520  0.00  0.00    +0.000 HD
ENDROOT
BRANCH   8  12
ATOM     12  C   UNL     1       6.041   4.040  15.498  0.00  0.00    +0.000 C 
ATOM     13  C   UNL     1       7.026   4.491  14.440  0.00  0.00    +0.000 C 
ATOM     14  C   UNL     1       5.698   3.958  14.022  0.00  0.00    +0.000 C 
ENDBRANCH   8  12
BRANCH   4  15
ATOM     15  C   UNL     1       1.835   7.145  20.647  0.00  0.00    +0.000 C 
BRANCH  15  16
ATOM     16  C   UNL     1       1.096   8.447  20.384  0.00  0.00    +0.000 A 
ATOM     17  C   UNL     1       1.339   9.180  19.213  0.00  0.00    +0.000 A 
ATOM     18  C   UNL     1       0.651  10.370  18.953  0.00  0.00    +0.000 A 
ATOM     19  C   UNL     1      -0.299  10.862  19.861  0.00  0.00    +0.000 A 
ATOM     20  C   UNL     1      -0.528  10.142  21.042  0.00  0.00    +0.000 A 
ATOM     21  C   UNL     1       0.170   8.957  21.307  0.00  0.00    +0.000 A 
BRANCH  19  22
ATOM     22  C   UNL     1      -1.059  12.137  19.576  0.00  0.00    +0.000 C 
BRANCH  22  23
ATOM     23  N   UNL     1      -2.383  11.891  19.028  0.00  0.00    +0.000 N 
ATOM     24  C   UNL     1      -2.704  11.455  17.780  0.00  0.00    +0.000 A 
ATOM     25  N   UNL     1      -4.006  11.497  17.616  0.00  0.00    +0.000 NA
ATOM     26  C   UNL     1      -4.449  11.987  18.812  0.00  0.00    +0.000 A 
ATOM     27  N   UNL     1      -3.494  12.257  19.707  0.00  0.00    +0.000 NA
ENDBRANCH  22  23
ENDBRANCH  19  22
ENDBRANCH  15  16
ENDBRANCH   4  15
TORSDOF 5
ENDMDL
MODEL 7
REMARK VINA RESULT:      -7.3      0.901      1.162
REMARK  Name = 
REMARK  5 active torsions:
REMARK  status: ('A' for Active; 'I' for Inactive)
REMARK    1  A    between atoms: N_4  and  C_5
REMARK    2  A    between atoms: C_5  and  C_6
REMARK    3  A    between atoms: C_9  and  C_10
REMARK    4  A    between atoms: C_10  and  N_11
REMARK    5  A    between atoms: N_21  and  C_22
REMARK                            x       y       z     vdW  Elec       q    Type
REMARK                         _______ _______ _______ _____ _____    ______ ____
ROOT
ATOM      1  C   UNL     1      -2.313  12.469  20.487  0.00  0.00    +0.000 A 
ATOM      2  N   UNL     1      -1.180  12.001  19.907  0.00  0.00    +0.000 NA
ATOM      3  C   UNL     1      -1.261  11.492  18.650  0.00  0.00    +0.000 A 
ATOM      4  N   UNL     1      -0.167  10.961  17.998  0.00  0.00    +0.000 N 
ATOM      5  C   UNL     1      -2.528  11.497  18.027  0.00  0.00    +0.000 A 
ATOM      6  N   UNL     1      -2.907  11.064  16.772  0.00  0.00    +0.000 NA
ATOM      7  C   UNL     1      -4.208  11.235  16.746  0.00  0.00    +0.000 A 
ATOM      8  N   UNL     1      -4.688  11.748  17.926  0.00  0.00    +0.000 N 
ATOM      9  C   UNL     1      -3.616  11.970  18.756  0.00  0.00    +0.000 A 
ATOM     10  N   UNL     1      -3.574  12.483  20.002  0.00  0.00    +0.000 NA
ATOM     11  H   UNL     1      -0.283  10.800  17.004  0.00  0.00    +0.000 HD
ENDROOT
BRANCH   8  12
ATOM     12  C   UNL     1      -6.111  11.898  18.150  0.00  0.00    +0.000 C 
ATOM     13  C   UNL     1      -6.782  11.924  19.507  0.00  0.00    +0.000 C 
ATOM     14  C   UNL     1      -6.977  10.743  18.619  0.00  0.00    +0.000 C 
ENDBRANCH   8  12
BRANCH   4  15
ATOM     15  C   UNL     1       1.152  10.944  18.576  0.00  0.00    +0.000 C 
BRANCH  15  16
ATOM     16  C   UNL     1       1.580   9.510  18.847  0.00  0.00    +0.000 A 
ATOM     17  C   UNL     1       2.188   8.747  17.840  0.00  0.00    +0.000 A 
ATOM     18  C   UNL     1       2.602   7.433  18.084  0.00  0.00    +0.000 A 
ATOM     19  C   UNL     1       2.414   6.844  19.344  0.00  0.00    +0.000 A 
ATOM     20  C   UNL     1       1.787   7.599  20.345  0.00  0.00    +0.000 A 
ATOM     21  C   UNL     1       1.363   8.910  20.096  0.00  0.00    +0.000 A 
BRANCH  19  22
ATOM     22  C   UNL     1       2.877   5.432  19.619  0.00  0.00    +0.000 C 
BRANCH  22  23
ATOM     23  N   UNL     1       4.059   5.069  18.855  0.00  0.00    +0.000 N 
ATOM     24  C   UNL     1       4.129   4.292  17.740  0.00  0.00    +0.000 A 
ATOM     25  N   UNL     1       5.386   4.077  17.428  0.00  0.00    +0.000 NA
ATOM     26  C   UNL     1       6.064   4.745  18.407  0.00  0.00    +0.000 A 
ATOM     27  N   UNL     1       5.298   5.360  19.313  0.00  0.00    +0.000 NA
ENDBRANCH  22  23
ENDBRANCH  19  22
ENDBRANCH  15  16
ENDBRANCH   4  15
TORSDOF 5
ENDMDL
MODEL 8
REMARK VINA RESULT:      -7.3      0.956      1.431
REMARK  Name = 
REMARK  5 active torsions:
REMARK  status: ('A' for Active; 'I' for Inactive)
REMARK    1  A    between atoms: N_4  and  C_5
REMARK    2  A    between atoms: C_5  and  C_6
REMARK    3  A    between atoms: C_9  and  C_10
REMARK    4  A    between atoms: C_10  and  N_11
REMARK    5  A    between atoms: N_21  and  C_22
REMARK                            x       y       z     vdW  Elec       q    Type
REMARK                         _______ _______ _______ _____ _____    ______ ____
ROOT
ATOM      1  C   UNL     1      -1.656  12.155  20.307  0.00  0.00    +0.000 A 
ATOM      2  N   UNL     1      -0.602  11.568  19.688  0.00  0.00    +0.000 NA
ATOM      3  C   UNL     1      -0.791  11.042  18.450  0.00  0.00    +0.000 A 
ATOM      4  N   UNL     1       0.216  10.394  17.763  0.00  0.00    +0.000 N 
ATOM      5  C   UNL     1      -2.080  11.153  17.886  0.00  0.00    +0.000 A 
ATOM      6  N   UNL     1      -2.558  10.731  16.661  0.00  0.00    +0.000 NA
ATOM      7  C   UNL     1      -3.837  11.024  16.691  0.00  0.00    +0.000 A 
ATOM      8  N   UNL     1      -4.209  11.608  17.877  0.00  0.00    +0.000 N 
ATOM      9  C   UNL     1      -3.082  11.745  18.651  0.00  0.00    +0.000 A 
ATOM     10  N   UNL     1      -2.932  12.279  19.879  0.00  0.00    +0.000 NA
ATOM     11  H   UNL     1       0.038  10.222  16.780  0.00  0.00    +0.000 HD
ENDROOT
BRANCH   8  12
ATOM     12  C   UNL     1      -5.599  11.898  18.162  0.00  0.00    +0.000 C 
ATOM     13  C   UNL     1      -6.557  12.590  17.216  0.00  0.00    +0.000 C 
ATOM     14  C   UNL     1      -6.086  13.310  18.433  0.00  0.00    +0.000 C 
ENDBRANCH   8  12
BRANCH   4  15
ATOM     15  C   UNL     1       1.553  10.263  18.281  0.00  0.00    +0.000 C 
BRANCH  15  16
ATOM     16  C   UNL     1       1.758   8.865  18.841  0.00  0.00    +0.000 A 
ATOM     17  C   UNL     1       1.484   8.591  20.189  0.00  0.00    +0.000 A 
ATOM     18  C   UNL     1       1.653   7.303  20.710  0.00  0.00    +0.000 A 
ATOM     19  C   UNL     1       2.103   6.253  19.895  0.00  0.00    +0.000 A 
ATOM     20  C   UNL     1       2.397   6.530  18.553  0.00  0.00    +0.000 A 
ATOM     21  C   UNL     1       2.240   7.822  18.036  0.00  0.00    +0.000 A 
BRANCH  19  22
ATOM     22  C   UNL     1       2.267   4.856  20.448  0.00  0.00    +0.000 C 
BRANCH  22  23
ATOM     23  N   UNL     1       2.572   3.876  19.419  0.00  0.00    +0.000 N 
ATOM     24  C   UNL     1       1.719   3.003  18.817  0.00  0.00    +0.000 A 
ATOM     25  N   UNL     1       2.396   2.182  18.047  0.00  0.00    +0.000 NA
ATOM     26  C   UNL     1       3.687   2.592  18.223  0.00  0.00    +0.000 A 
ATOM     27  N   UNL     1       3.850   3.618  19.063  0.00  0.00    +0.000 NA
ENDBRANCH  22  23
ENDBRANCH  19  22
ENDBRANCH  15  16
ENDBRANCH   4  15
TORSDOF 5
ENDMDL
MODEL 9
REMARK VINA RESULT:      -7.3      3.654      9.479
REMARK  Name = 
REMARK  5 active torsions:
REMARK  status: ('A' for Active; 'I' for Inactive)
REMARK    1  A    between atoms: N_4  and  C_5
REMARK    2  A    between atoms: C_5  and  C_6
REMARK    3  A    between atoms: C_9  and  C_10
REMARK    4  A    between atoms: C_10  and  N_11
REMARK    5  A    between atoms: N_21  and  C_22
REMARK                            x       y       z     vdW  Elec       q    Type
REMARK                         _______ _______ _______ _____ _____    ______ ____
ROOT
ATOM      1  C   UNL     1       2.133   3.749  18.158  0.00  0.00    +0.000 A 
ATOM      2  N   UNL     1       1.921   4.781  19.012  0.00  0.00    +0.000 NA
ATOM      3  C   UNL     1       2.750   5.855  18.946  0.00  0.00    +0.000 A 
ATOM      4  N   UNL     1       2.631   6.932  19.800  0.00  0.00    +0.000 N 
ATOM      5  C   UNL     1       3.776   5.825  17.976  0.00  0.00    +0.000 A 
ATOM      6  N   UNL     1       4.745   6.761  17.673  0.00  0.00    +0.000 NA
ATOM      7  C   UNL     1       5.475   6.187  16.746  0.00  0.00    +0.000 A 
ATOM      8  N   UNL     1       5.031   4.924  16.442  0.00  0.00    +0.000 N 
ATOM      9  C   UNL     1       3.905   4.682  17.191  0.00  0.00    +0.000 A 
ATOM     10  N   UNL     1       3.102   3.600  17.228  0.00  0.00    +0.000 NA
ATOM     11  H   UNL     1       3.155   7.760  19.540  0.00  0.00    +0.000 HD
ENDROOT
BRANCH   8  12
ATOM     12  C   UNL     1       5.769   4.072  15.533  0.00  0.00    +0.000 C 
ATOM     13  C   UNL     1       6.862   4.537  14.594  0.00  0.00    +0.000 C 
ATOM     14  C   UNL     1       5.547   4.115  14.032  0.00  0.00    +0.000 C 
ENDBRANCH   8  12
BRANCH   4  15
ATOM     15  C   UNL     1       1.596   7.026  20.796  0.00  0.00    +0.000 C 
BRANCH  15  16
ATOM     16  C   UNL     1       1.050   8.444  20.845  0.00  0.00    +0.000 A 
ATOM     17  C   UNL     1       0.519   8.962  22.035  0.00  0.00    +0.000 A 
ATOM     18  C   UNL     1       0.031  10.271  22.095  0.00  0.00    +0.000 A 
ATOM     19  C   UNL     1       0.057  11.099  20.962  0.00  0.00    +0.000 A 
ATOM     20  C   UNL     1       0.568  10.576  19.767  0.00  0.00    +0.000 A 
ATOM     21  C   UNL     1       1.046   9.261  19.705  0.00  0.00    +0.000 A 
BRANCH  19  22
ATOM     22  C   UNL     1      -0.451  12.521  21.027  0.00  0.00    +0.000 C 
BRANCH  22  23
ATOM     23  N   UNL     1       0.589  13.502  20.766  0.00  0.00    +0.000 N 
ATOM     24  C   UNL     1       0.695  14.346  19.704  0.00  0.00    +0.000 A 
ATOM     25  N   UNL     1       1.847  14.976  19.751  0.00  0.00    +0.000 NA
ATOM     26  C   UNL     1       2.428  14.466  20.877  0.00  0.00    +0.000 A 
ATOM     27  N   UNL     1       1.704  13.551  21.528  0.00  0.00    +0.000 NA
ENDBRANCH  22  23
ENDBRANCH  19  22
ENDBRANCH  15  16
ENDBRANCH   4  15
TORSDOF 5
ENDMDL
