MODEL 1
REMARK VINA RESULT:      -8.7      0.000      0.000
REMARK  Name = 
REMARK  7 active torsions:
REMARK  status: ('A' for Active; 'I' for Inactive)
REMARK    1  A    between atoms: C_1  and  C_2
REMARK    2  A    between atoms: C_4  and  N_5
REMARK    3  A    between atoms: N_5  and  C_6
REMARK    4  A    between atoms: C_6  and  C_7
REMARK    5  A    between atoms: C_11  and  O_12
REMARK    6  A    between atoms: O_12  and  C_13
REMARK    7  A    between atoms: C_13  and  C_14
REMARK                            x       y       z     vdW  Elec       q    Type
REMARK                         _______ _______ _______ _____ _____    ______ ____
ROOT
ATOM      1  C   UNL     1       2.397   3.287  18.517  0.00  0.00    +0.000 A 
ATOM      2  C   UNL     1       2.129   2.199  19.356  0.00  0.00    +0.000 A 
ATOM      3  C   UNL     1       1.574   2.400  20.622  0.00  0.00    +0.000 A 
ATOM      4  C   UNL     1       1.303   3.694  21.072  0.00  0.00    +0.000 A 
ATOM      5  C   UNL     1       1.588   4.790  20.261  0.00  0.00    +0.000 A 
ATOM      6  C   UNL     1       2.096   4.578  18.976  0.00  0.00    +0.000 A 
ENDROOT
BRANCH   1   7
ATOM      7  C   UNL     1       3.014   3.109  17.151  0.00  0.00    +0.000 C 
BRANCH   7   8
ATOM      8  N   UNL     1       4.452   2.969  17.227  0.00  0.00    +0.000 N 
ATOM      9  H   UNL     1       4.808   2.292  17.906  0.00  0.00    +0.000 HD
BRANCH   8  13
ATOM     10  C   UNL     1       7.214   4.971  13.601  0.00  0.00    +0.000 C 
ATOM     11  C   UNL     1       6.859   4.875  15.064  0.00  0.00    +0.000 A 
ATOM     12  C   UNL     1       5.749   3.943  15.418  0.00  0.00    +0.000 A 
ATOM     13  C   UNL     1       5.431   3.816  16.716  0.00  0.00    +0.000 A 
ATOM     14  N   UNL     1       6.160   4.605  17.638  0.00  0.00    +0.000 N 
ATOM     15  N   UNL     1       6.015   4.679  18.995  0.00  0.00    +0.000 NA
ATOM     16  C   UNL     1       6.960   5.563  19.314  0.00  0.00    +0.000 A 
ATOM     17  N   UNL     1       7.685   6.070  18.281  0.00  0.00    +0.000 NA
ATOM     18  C   UNL     1       7.181   5.469  17.226  0.00  0.00    +0.000 A 
ATOM     19  N   UNL     1       7.532   5.596  15.911  0.00  0.00    +0.000 NA
ENDBRANCH   8  13
ENDBRANCH   7   8
ENDBRANCH   1   7
BRANCH   5  20
ATOM     20  O   UNL     1       1.360   6.028  20.805  0.00  0.00    +0.000 OA
BRANCH  20  21
ATOM     21  C   UNL     1       2.317   7.019  20.415  0.00  0.00    +0.000 C 
BRANCH  21  22
ATOM     22  C   UNL     1       1.667   8.244  19.827  0.00  0.00    +0.000 A 
ATOM     23  C   UNL     1       1.887   8.543  18.471  0.00  0.00    +0.000 A 
ATOM     24  C   UNL     1       1.274   9.643  17.877  0.00  0.00    +0.000 A 
ATOM     25  C   UNL     1       0.426  10.450  18.628  0.00  0.00    +0.000 A 
ATOM     26  C   UNL     1       0.188  10.155  19.971  0.00  0.00    +0.000 A 
ATOM     27  C   UNL     1       0.800   9.053  20.569  0.00  0.00    +0.000 A 
ENDBRANCH  21  22
ENDBRANCH  20  21
ENDBRANCH   5  20
TORSDOF 6
ENDMDL
MODEL 2
REMARK VINA RESULT:      -8.7      0.989      1.697
REMARK  Name = 
REMARK  7 active torsions:
REMARK  status: ('A' for Active; 'I' for Inactive)
REMARK    1  A    between atoms: C_1  and  C_2
REMARK    2  A    between atoms: C_4  and  N_5
REMARK    3  A    between atoms: N_5  and  C_6
REMARK    4  A    between atoms: C_6  and  C_7
REMARK    5  A    between atoms: C_11  and  O_12
REMARK    6  A    between atoms: O_12  and  C_13
REMARK    7  A    between atoms: C_13  and  C_14
REMARK                            x       y       z     vdW  Elec       q    Type
REMARK                         _______ _______ _______ _____ _____    ______ ____
ROOT
ATOM      1  C   UNL     1       2.369   3.965  18.453  0.00  0.00    +0.000 A 
ATOM      2  C   UNL     1       1.626   3.249  19.399  0.00  0.00    +0.000 A 
ATOM      3  C   UNL     1       1.134   3.886  20.541  0.00  0.00    +0.000 A 
ATOM      4  C   UNL     1       1.399   5.239  20.760  0.00  0.00    +0.000 A 
ATOM      5  C   UNL     1       2.159   5.960  19.842  0.00  0.00    +0.000 A 
ATOM      6  C   UNL     1       2.606   5.329  18.677  0.00  0.00    +0.000 A 
ENDROOT
BRANCH   1   7
ATOM      7  C   UNL     1       2.934   3.306  17.217  0.00  0.00    +0.000 C 
BRANCH   7   8
ATOM      8  N   UNL     1       4.363   3.110  17.321  0.00  0.00    +0.000 N 
ATOM      9  H   UNL     1       4.681   2.444  18.028  0.00  0.00    +0.000 HD
BRANCH   8  13
ATOM     10  C   UNL     1       7.193   4.935  13.655  0.00  0.00    +0.000 C 
ATOM     11  C   UNL     1       6.852   4.865  15.122  0.00  0.00    +0.000 A 
ATOM     12  C   UNL     1       5.693   4.001  15.493  0.00  0.00    +0.000 A 
ATOM     13  C   UNL     1       5.383   3.896  16.795  0.00  0.00    +0.000 A 
ATOM     14  N   UNL     1       6.168   4.644  17.706  0.00  0.00    +0.000 N 
ATOM     15  N   UNL     1       6.045   4.730  19.064  0.00  0.00    +0.000 NA
ATOM     16  C   UNL     1       7.044   5.558  19.368  0.00  0.00    +0.000 A 
ATOM     17  N   UNL     1       7.785   6.018  18.325  0.00  0.00    +0.000 NA
ATOM     18  C   UNL     1       7.233   5.445  17.278  0.00  0.00    +0.000 A 
ATOM     19  N   UNL     1       7.575   5.548  15.958  0.00  0.00    +0.000 NA
ENDBRANCH   8  13
ENDBRANCH   7   8
ENDBRANCH   1   7
BRANCH   5  20
ATOM     20  O   UNL     1       2.435   7.263  20.167  0.00  0.00    +0.000 OA
BRANCH  20  21
ATOM     21  C   UNL     1       1.593   8.217  19.510  0.00  0.00    +0.000 C 
BRANCH  21  22
ATOM     22  C   UNL     1       0.858   9.100  20.484  0.00  0.00    +0.000 A 
ATOM     23  C   UNL     1       0.351   8.530  21.665  0.00  0.00    +0.000 A 
ATOM     24  C   UNL     1      -0.300   9.317  22.611  0.00  0.00    +0.000 A 
ATOM     25  C   UNL     1      -0.443  10.684  22.393  0.00  0.00    +0.000 A 
ATOM     26  C   UNL     1       0.069  11.263  21.231  0.00  0.00    +0.000 A 
ATOM     27  C   UNL     1       0.723  10.477  20.282  0.00  0.00    +0.000 A 
ENDBRANCH  21  22
ENDBRANCH  20  21
ENDBRANCH   5  20
TORSDOF 6
ENDMDL
MODEL 3
REMARK VINA RESULT:      -8.6      0.941      1.289
REMARK  Name = 
REMARK  7 active torsions:
REMARK  status: ('A' for Active; 'I' for Inactive)
REMARK    1  A    between atoms: C_1  and  C_2
REMARK    2  A    between atoms: C_4  and  N_5
REMARK    3  A    between atoms: N_5  and  C_6
REMARK    4  A    between atoms: C_6  and  C_7
REMARK    5  A    between atoms: C_11  and  O_12
REMARK    6  A    between atoms: O_12  and  C_13
REMARK    7  A    between atoms: C_13  and  C_14
REMARK                            x       y       z     vdW  Elec       q    Type
REMARK                         _______ _______ _______ _____ _____    ______ ____
ROOT
ATOM      1  C   UNL     1       2.394   3.797  18.427  0.00  0.00    +0.000 A 
ATOM      2  C   UNL     1       1.720   3.084  19.425  0.00  0.00    +0.000 A 
ATOM      3  C   UNL     1       1.176   3.750  20.526  0.00  0.00    +0.000 A 
ATOM      4  C   UNL     1       1.321   5.133  20.653  0.00  0.00    +0.000 A 
ATOM      5  C   UNL     1       2.012   5.854  19.682  0.00  0.00    +0.000 A 
ATOM      6  C   UNL     1       2.510   5.188  18.558  0.00  0.00    +0.000 A 
ENDROOT
BRANCH   1   7
ATOM      7  C   UNL     1       3.012   3.108  17.234  0.00  0.00    +0.000 C 
BRANCH   7   8
ATOM      8  N   UNL     1       4.450   3.010  17.357  0.00  0.00    +0.000 N 
ATOM      9  H   UNL     1       4.802   2.399  18.098  0.00  0.00    +0.000 HD
BRANCH   8  13
ATOM     10  C   UNL     1       7.128   4.916  13.618  0.00  0.00    +0.000 C 
ATOM     11  C   UNL     1       6.815   4.849  15.093  0.00  0.00    +0.000 A 
ATOM     12  C   UNL     1       5.705   3.937  15.495  0.00  0.00    +0.000 A 
ATOM     13  C   UNL     1       5.423   3.835  16.804  0.00  0.00    +0.000 A 
ATOM     14  N   UNL     1       6.188   4.632  17.691  0.00  0.00    +0.000 N 
ATOM     15  N   UNL     1       6.084   4.730  19.049  0.00  0.00    +0.000 NA
ATOM     16  C   UNL     1       7.048   5.608  19.325  0.00  0.00    +0.000 A 
ATOM     17  N   UNL     1       7.748   6.088  18.264  0.00  0.00    +0.000 NA
ATOM     18  C   UNL     1       7.206   5.475  17.234  0.00  0.00    +0.000 A 
ATOM     19  N   UNL     1       7.520   5.576  15.907  0.00  0.00    +0.000 NA
ENDBRANCH   8  13
ENDBRANCH   7   8
ENDBRANCH   1   7
BRANCH   5  20
ATOM     20  O   UNL     1       2.173   7.196  19.917  0.00  0.00    +0.000 OA
BRANCH  20  21
ATOM     21  C   UNL     1       1.766   7.609  21.226  0.00  0.00    +0.000 C 
BRANCH  21  22
ATOM     22  C   UNL     1       0.911   8.849  21.196  0.00  0.00    +0.000 A 
ATOM     23  C   UNL     1       0.722   9.512  19.971  0.00  0.00    +0.000 A 
ATOM     24  C   UNL     1      -0.092  10.638  19.891  0.00  0.00    +0.000 A 
ATOM     25  C   UNL     1      -0.736  11.108  21.031  0.00  0.00    +0.000 A 
ATOM     26  C   UNL     1      -0.569  10.449  22.249  0.00  0.00    +0.000 A 
ATOM     27  C   UNL     1       0.246   9.320  22.332  0.00  0.00    +0.000 A 
ENDBRANCH  21  22
ENDBRANCH  20  21
ENDBRANCH   5  20
TORSDOF 6
ENDMDL
MODEL 4
REMARK VINA RESULT:      -8.5      3.335      6.816
REMARK  Name = 
REMARK  7 active torsions:
REMARK  status: ('A' for Active; 'I' for Inactive)
REMARK    1  A    between atoms: C_1  and  C_2
REMARK    2  A    between atoms: C_4  and  N_5
REMARK    3  A    between atoms: N_5  and  C_6
REMARK    4  A    between atoms: C_6  and  C_7
REMARK    5  A    between atoms: C_11  and  O_12
REMARK    6  A    between atoms: O_12  and  C_13
REMARK    7  A    between atoms: C_13  and  C_14
REMARK                            x       y       z     vdW  Elec       q    Type
REMARK                         _______ _______ _______ _____ _____    ______ ____
ROOT
ATOM      1  C   UNL     1       1.879   4.254  19.916  0.00  0.00    +0.000 A 
ATOM      2  C   UNL     1       0.879   3.318  19.623  0.00  0.00    +0.000 A 
ATOM      3  C   UNL     1       1.088   2.341  18.646  0.00  0.00    +0.000 A 
ATOM      4  C   UNL     1       2.289   2.304  17.935  0.00  0.00    +0.000 A 
ATOM      5  C   UNL     1       3.284   3.243  18.196  0.00  0.00    +0.000 A 
ATOM      6  C   UNL     1       3.088   4.186  19.209  0.00  0.00    +0.000 A 
ENDROOT
BRANCH   1   7
ATOM      7  C   UNL     1       1.682   5.335  20.950  0.00  0.00    +0.000 C 
BRANCH   7   8
ATOM      8  N   UNL     1       2.096   6.631  20.456  0.00  0.00    +0.000 N 
ATOM      9  H   UNL     1       3.049   6.696  20.093  0.00  0.00    +0.000 HD
BRANCH   8  13
ATOM     10  C   UNL     1      -0.494   9.994  23.057  0.00  0.00    +0.000 C 
ATOM     11  C   UNL     1       0.231   9.604  21.793  0.00  0.00    +0.000 A 
ATOM     12  C   UNL     1       0.860   8.251  21.779  0.00  0.00    +0.000 A 
ATOM     13  C   UNL     1       1.488   7.865  20.657  0.00  0.00    +0.000 A 
ATOM     14  N   UNL     1       1.526   8.795  19.588  0.00  0.00    +0.000 N 
ATOM     15  N   UNL     1       2.116   8.659  18.364  0.00  0.00    +0.000 NA
ATOM     16  C   UNL     1       1.820   9.828  17.797  0.00  0.00    +0.000 A 
ATOM     17  N   UNL     1       1.106  10.702  18.554  0.00  0.00    +0.000 NA
ATOM     18  C   UNL     1       0.922  10.053  19.683  0.00  0.00    +0.000 A 
ATOM     19  N   UNL     1       0.261  10.455  20.811  0.00  0.00    +0.000 NA
ENDBRANCH   8  13
ENDBRANCH   7   8
ENDBRANCH   1   7
BRANCH   5  20
ATOM     20  O   UNL     1       4.403   3.182  17.405  0.00  0.00    +0.000 OA
BRANCH  20  21
ATOM     21  C   UNL     1       4.613   4.350  16.603  0.00  0.00    +0.000 C 
BRANCH  21  22
ATOM     22  C   UNL     1       5.683   5.248  17.166  0.00  0.00    +0.000 A 
ATOM     23  C   UNL     1       6.667   4.687  17.999  0.00  0.00    +0.000 A 
ATOM     24  C   UNL     1       7.698   5.473  18.509  0.00  0.00    +0.000 A 
ATOM     25  C   UNL     1       7.763   6.824  18.184  0.00  0.00    +0.000 A 
ATOM     26  C   UNL     1       6.800   7.388  17.346  0.00  0.00    +0.000 A 
ATOM     27  C   UNL     1       5.766   6.602  16.833  0.00  0.00    +0.000 A 
ENDBRANCH  21  22
ENDBRANCH  20  21
ENDBRANCH   5  20
TORSDOF 6
ENDMDL
MODEL 5
REMARK VINA RESULT:      -8.4      1.293      1.822
REMARK  Name = 
REMARK  7 active torsions:
REMARK  status: ('A' for Active; 'I' for Inactive)
REMARK    1  A    between atoms: C_1  and  C_2
REMARK    2  A    between atoms: C_4  and  N_5
REMARK    3  A    between atoms: N_5  and  C_6
REMARK    4  A    between atoms: C_6  and  C_7
REMARK    5  A    between atoms: C_11  and  O_12
REMARK    6  A    between atoms: O_12  and  C_13
REMARK    7  A    between atoms: C_13  and  C_14
REMARK                            x       y       z     vdW  Elec       q    Type
REMARK                         _______ _______ _______ _____ _____    ______ ____
ROOT
ATOM      1  C   UNL     1       3.222   3.183  19.523  0.00  0.00    +0.000 A 
ATOM      2  C   UNL     1       2.034   2.455  19.386  0.00  0.00    +0.000 A 
ATOM      3  C   UNL     1       0.810   3.023  19.748  0.00  0.00    +0.000 A 
ATOM      4  C   UNL     1       0.764   4.316  20.273  0.00  0.00    +0.000 A 
ATOM      5  C   UNL     1       1.939   5.044  20.440  0.00  0.00    +0.000 A 
ATOM      6  C   UNL     1       3.154   4.489  20.029  0.00  0.00    +0.000 A 
ENDROOT
BRANCH   1   7
ATOM      7  C   UNL     1       4.565   2.595  19.161  0.00  0.00    +0.000 C 
BRANCH   7   8
ATOM      8  N   UNL     1       5.544   3.625  18.886  0.00  0.00    +0.000 N 
ATOM      9  H   UNL     1       5.919   4.123  19.696  0.00  0.00    +0.000 HD
BRANCH   8  13
ATOM     10  C   UNL     1       5.452   4.022  13.925  0.00  0.00    +0.000 C 
ATOM     11  C   UNL     1       5.897   4.554  15.265  0.00  0.00    +0.000 A 
ATOM     12  C   UNL     1       5.439   3.795  16.465  0.00  0.00    +0.000 A 
ATOM     13  C   UNL     1       5.843   4.229  17.670  0.00  0.00    +0.000 A 
ATOM     14  N   UNL     1       6.647   5.394  17.698  0.00  0.00    +0.000 N 
ATOM     15  N   UNL     1       7.162   6.046  18.783  0.00  0.00    +0.000 NA
ATOM     16  C   UNL     1       7.823   7.046  18.202  0.00  0.00    +0.000 A 
ATOM     17  N   UNL     1       7.766   7.098  16.844  0.00  0.00    +0.000 NA
ATOM     18  C   UNL     1       7.025   6.059  16.527  0.00  0.00    +0.000 A 
ATOM     19  N   UNL     1       6.639   5.621  15.290  0.00  0.00    +0.000 NA
ENDBRANCH   8  13
ENDBRANCH   7   8
ENDBRANCH   1   7
BRANCH   5  20
ATOM     20  O   UNL     1       1.814   6.277  21.028  0.00  0.00    +0.000 OA
BRANCH  20  21
ATOM     21  C   UNL     1       1.931   7.372  20.113  0.00  0.00    +0.000 C 
BRANCH  21  22
ATOM     22  C   UNL     1       1.166   8.586  20.571  0.00  0.00    +0.000 A 
ATOM     23  C   UNL     1       0.851   8.712  21.935  0.00  0.00    +0.000 A 
ATOM     24  C   UNL     1       0.179   9.837  22.408  0.00  0.00    +0.000 A 
ATOM     25  C   UNL     1      -0.174  10.853  21.525  0.00  0.00    +0.000 A 
ATOM     26  C   UNL     1       0.147  10.746  20.171  0.00  0.00    +0.000 A 
ATOM     27  C   UNL     1       0.820   9.620  19.695  0.00  0.00    +0.000 A 
ENDBRANCH  21  22
ENDBRANCH  20  21
ENDBRANCH   5  20
TORSDOF 6
ENDMDL
MODEL 6
REMARK VINA RESULT:      -8.4      1.177      2.283
REMARK  Name = 
REMARK  7 active torsions:
REMARK  status: ('A' for Active; 'I' for Inactive)
REMARK    1  A    between atoms: C_1  and  C_2
REMARK    2  A    between atoms: C_4  and  N_5
REMARK    3  A    between atoms: N_5  and  C_6
REMARK    4  A    between atoms: C_6  and  C_7
REMARK    5  A    between atoms: C_11  and  O_12
REMARK    6  A    between atoms: O_12  and  C_13
REMARK    7  A    between atoms: C_13  and  C_14
REMARK                            x       y       z     vdW  Elec       q    Type
REMARK                         _______ _______ _______ _____ _____    ______ ____
ROOT
ATOM      1  C   UNL     1       3.163   3.402  19.163  0.00  0.00    +0.000 A 
ATOM      2  C   UNL     1       2.177   2.498  19.579  0.00  0.00    +0.000 A 
ATOM      3  C   UNL     1       1.067   2.945  20.299  0.00  0.00    +0.000 A 
ATOM      4  C   UNL     1       0.941   4.295  20.632  0.00  0.00    +0.000 A 
ATOM      5  C   UNL     1       1.926   5.203  20.248  0.00  0.00    +0.000 A 
ATOM      6  C   UNL     1       3.009   4.758  19.485  0.00  0.00    +0.000 A 
ENDROOT
BRANCH   1   7
ATOM      7  C   UNL     1       4.386   2.953  18.400  0.00  0.00    +0.000 C 
BRANCH   7   8
ATOM      8  N   UNL     1       5.562   3.703  18.786  0.00  0.00    +0.000 N 
ATOM      9  H   UNL     1       5.812   3.679  19.777  0.00  0.00    +0.000 HD
BRANCH   8  13
ATOM     10  C   UNL     1       8.097   7.954  18.249  0.00  0.00    +0.000 C 
ATOM     11  C   UNL     1       7.476   6.723  17.637  0.00  0.00    +0.000 A 
ATOM     12  C   UNL     1       6.827   5.766  18.580  0.00  0.00    +0.000 A 
ATOM     13  C   UNL     1       6.242   4.676  18.061  0.00  0.00    +0.000 A 
ATOM     14  N   UNL     1       6.319   4.511  16.656  0.00  0.00    +0.000 N 
ATOM     15  N   UNL     1       5.832   3.489  15.892  0.00  0.00    +0.000 NA
ATOM     16  C   UNL     1       6.193   3.877  14.670  0.00  0.00    +0.000 A 
ATOM     17  N   UNL     1       6.878   5.049  14.587  0.00  0.00    +0.000 NA
ATOM     18  C   UNL     1       6.959   5.448  15.837  0.00  0.00    +0.000 A 
ATOM     19  N   UNL     1       7.543   6.574  16.347  0.00  0.00    +0.000 NA
ENDBRANCH   8  13
ENDBRANCH   7   8
ENDBRANCH   1   7
BRANCH   5  20
ATOM     20  O   UNL     1       1.763   6.496  20.677  0.00  0.00    +0.000 OA
BRANCH  20  21
ATOM     21  C   UNL     1       2.183   7.480  19.725  0.00  0.00    +0.000 C 
BRANCH  21  22
ATOM     22  C   UNL     1       1.369   8.745  19.811  0.00  0.00    +0.000 A 
ATOM     23  C   UNL     1       1.205   9.523  18.652  0.00  0.00    +0.000 A 
ATOM     24  C   UNL     1       0.428  10.679  18.677  0.00  0.00    +0.000 A 
ATOM     25  C   UNL     1      -0.203  11.062  19.856  0.00  0.00    +0.000 A 
ATOM     26  C   UNL     1      -0.059  10.289  21.008  0.00  0.00    +0.000 A 
ATOM     27  C   UNL     1       0.719   9.130  20.986  0.00  0.00    +0.000 A 
ENDBRANCH  21  22
ENDBRANCH  20  21
ENDBRANCH   5  20
TORSDOF 6
ENDMDL
MODEL 7
REMARK VINA RESULT:      -8.4      1.273      2.557
REMARK  Name = 
REMARK  7 active torsions:
REMARK  status: ('A' for Active; 'I' for Inactive)
REMARK    1  A    between atoms: C_1  and  C_2
REMARK    2  A    between atoms: C_4  and  N_5
REMARK    3  A    between atoms: N_5  and  C_6
REMARK    4  A    between atoms: C_6  and  C_7
REMARK    5  A    between atoms: C_11  and  O_12
REMARK    6  A    between atoms: O_12  and  C_13
REMARK    7  A    between atoms: C_13  and  C_14
REMARK                            x       y       z     vdW  Elec       q    Type
REMARK                         _______ _______ _______ _____ _____    ______ ____
ROOT
ATOM      1  C   UNL     1       3.192   3.312  19.121  0.00  0.00    +0.000 A 
ATOM      2  C   UNL     1       2.145   2.408  19.336  0.00  0.00    +0.000 A 
ATOM      3  C   UNL     1       0.995   2.808  20.021  0.00  0.00    +0.000 A 
ATOM      4  C   UNL     1       0.890   4.107  20.521  0.00  0.00    +0.000 A 
ATOM      5  C   UNL     1       1.934   5.011  20.338  0.00  0.00    +0.000 A 
ATOM      6  C   UNL     1       3.060   4.620  19.608  0.00  0.00    +0.000 A 
ENDROOT
BRANCH   1   7
ATOM      7  C   UNL     1       4.458   2.910  18.402  0.00  0.00    +0.000 C 
BRANCH   7   8
ATOM      8  N   UNL     1       5.586   3.716  18.815  0.00  0.00    +0.000 N 
ATOM      9  H   UNL     1       5.793   3.730  19.817  0.00  0.00    +0.000 HD
BRANCH   8  13
ATOM     10  C   UNL     1       8.129   7.963  18.288  0.00  0.00    +0.000 C 
ATOM     11  C   UNL     1       7.496   6.740  17.671  0.00  0.00    +0.000 A 
ATOM     12  C   UNL     1       6.856   5.777  18.614  0.00  0.00    +0.000 A 
ATOM     13  C   UNL     1       6.260   4.693  18.091  0.00  0.00    +0.000 A 
ATOM     14  N   UNL     1       6.319   4.542  16.685  0.00  0.00    +0.000 N 
ATOM     15  N   UNL     1       5.820   3.529  15.917  0.00  0.00    +0.000 NA
ATOM     16  C   UNL     1       6.167   3.928  14.694  0.00  0.00    +0.000 A 
ATOM     17  N   UNL     1       6.854   5.098  14.613  0.00  0.00    +0.000 NA
ATOM     18  C   UNL     1       6.952   5.485  15.866  0.00  0.00    +0.000 A 
ATOM     19  N   UNL     1       7.547   6.604  16.380  0.00  0.00    +0.000 NA
ENDBRANCH   8  13
ENDBRANCH   7   8
ENDBRANCH   1   7
BRANCH   5  20
ATOM     20  O   UNL     1       1.783   6.244  20.921  0.00  0.00    +0.000 OA
BRANCH  20  21
ATOM     21  C   UNL     1       2.016   7.340  20.030  0.00  0.00    +0.000 C 
BRANCH  21  22
ATOM     22  C   UNL     1       1.266   8.581  20.439  0.00  0.00    +0.000 A 
ATOM     23  C   UNL     1       0.916   8.745  21.791  0.00  0.00    +0.000 A 
ATOM     24  C   UNL     1       0.257   9.895  22.220  0.00  0.00    +0.000 A 
ATOM     25  C   UNL     1      -0.049  10.898  21.305  0.00  0.00    +0.000 A 
ATOM     26  C   UNL     1       0.307  10.752  19.964  0.00  0.00    +0.000 A 
ATOM     27  C   UNL     1       0.968   9.601  19.532  0.00  0.00    +0.000 A 
ENDBRANCH  21  22
ENDBRANCH  20  21
ENDBRANCH   5  20
TORSDOF 6
ENDMDL
MODEL 8
REMARK VINA RESULT:      -8.3      1.144      2.578
REMARK  Name = 
REMARK  7 active torsions:
REMARK  status: ('A' for Active; 'I' for Inactive)
REMARK    1  A    between atoms: C_1  and  C_2
REMARK    2  A    between atoms: C_4  and  N_5
REMARK    3  A    between atoms: N_5  and  C_6
REMARK    4  A    between atoms: C_6  and  C_7
REMARK    5  A    between atoms: C_11  and  O_12
REMARK    6  A    between atoms: O_12  and  C_13
REMARK    7  A    between atoms: C_13  and  C_14
REMARK                            x       y       z     vdW  Elec       q    Type
REMARK                         _______ _______ _______ _____ _____    ______ ____
ROOT
ATOM      1  C   UNL     1       2.559   3.607  18.654  0.00  0.00    +0.000 A 
ATOM      2  C   UNL     1       2.633   2.541  19.558  0.00  0.00    +0.000 A 
ATOM      3  C   UNL     1       2.303   2.730  20.903  0.00  0.00    +0.000 A 
ATOM      4  C   UNL     1       1.921   3.992  21.362  0.00  0.00    +0.000 A 
ATOM      5  C   UNL     1       1.868   5.069  20.480  0.00  0.00    +0.000 A 
ATOM      6  C   UNL     1       2.149   4.862  19.127  0.00  0.00    +0.000 A 
ENDROOT
BRANCH   1   7
ATOM      7  C   UNL     1       2.926   3.445  17.198  0.00  0.00    +0.000 C 
BRANCH   7   8
ATOM      8  N   UNL     1       4.319   3.090  17.033  0.00  0.00    +0.000 N 
ATOM      9  H   UNL     1       4.544   2.094  17.088  0.00  0.00    +0.000 HD
BRANCH   8  13
ATOM     10  C   UNL     1       7.729   5.880  19.350  0.00  0.00    +0.000 C 
ATOM     11  C   UNL     1       7.156   5.320  18.072  0.00  0.00    +0.000 A 
ATOM     12  C   UNL     1       5.982   4.410  18.213  0.00  0.00    +0.000 A 
ATOM     13  C   UNL     1       5.434   3.919  17.090  0.00  0.00    +0.000 A 
ATOM     14  N   UNL     1       6.040   4.286  15.864  0.00  0.00    +0.000 N 
ATOM     15  N   UNL     1       5.694   3.907  14.598  0.00  0.00    +0.000 NA
ATOM     16  C   UNL     1       6.601   4.559  13.870  0.00  0.00    +0.000 A 
ATOM     17  N   UNL     1       7.501   5.309  14.559  0.00  0.00    +0.000 NA
ATOM     18  C   UNL     1       7.150   5.136  15.814  0.00  0.00    +0.000 A 
ATOM     19  N   UNL     1       7.710   5.661  16.946  0.00  0.00    +0.000 NA
ENDBRANCH   8  13
ENDBRANCH   7   8
ENDBRANCH   1   7
BRANCH   5  20
ATOM     20  O   UNL     1       1.553   6.288  21.025  0.00  0.00    +0.000 OA
BRANCH  20  21
ATOM     21  C   UNL     1       1.855   7.400  20.174  0.00  0.00    +0.000 C 
BRANCH  21  22
ATOM     22  C   UNL     1       1.128   8.653  20.588  0.00  0.00    +0.000 A 
ATOM     23  C   UNL     1       0.722   8.788  21.927  0.00  0.00    +0.000 A 
ATOM     24  C   UNL     1       0.082   9.947  22.361  0.00  0.00    +0.000 A 
ATOM     25  C   UNL     1      -0.148  10.987  21.466  0.00  0.00    +0.000 A 
ATOM     26  C   UNL     1       0.265  10.869  20.138  0.00  0.00    +0.000 A 
ATOM     27  C   UNL     1       0.906   9.710  19.700  0.00  0.00    +0.000 A 
ENDBRANCH  21  22
ENDBRANCH  20  21
ENDBRANCH   5  20
TORSDOF 6
ENDMDL
MODEL 9
REMARK VINA RESULT:      -8.3      4.912      7.064
REMARK  Name = 
REMARK  7 active torsions:
REMARK  status: ('A' for Active; 'I' for Inactive)
REMARK    1  A    between atoms: C_1  and  C_2
REMARK    2  A    between atoms: C_4  and  N_5
REMARK    3  A    between atoms: N_5  and  C_6
REMARK    4  A    between atoms: C_6  and  C_7
REMARK    5  A    between atoms: C_11  and  O_12
REMARK    6  A    between atoms: O_12  and  C_13
REMARK    7  A    between atoms: C_13  and  C_14
REMARK                            x       y       z     vdW  Elec       q    Type
REMARK                         _______ _______ _______ _____ _____    ______ ____
ROOT
ATOM      1  C   UNL     1       7.614   7.661  17.929  0.00  0.00    +0.000 A 
ATOM      2  C   UNL     1       8.171   6.775  18.859  0.00  0.00    +0.000 A 
ATOM      3  C   UNL     1       7.504   5.595  19.198  0.00  0.00    +0.000 A 
ATOM      4  C   UNL     1       6.264   5.300  18.629  0.00  0.00    +0.000 A 
ATOM      5  C   UNL     1       5.684   6.184  17.722  0.00  0.00    +0.000 A 
ATOM      6  C   UNL     1       6.379   7.337  17.349  0.00  0.00    +0.000 A 
ENDROOT
BRANCH   1   7
ATOM      7  C   UNL     1       8.296   8.955  17.553  0.00  0.00    +0.000 C 
BRANCH   7   8
ATOM      8  N   UNL     1       8.850   9.624  18.711  0.00  0.00    +0.000 N 
ATOM      9  H   UNL     1       8.545   9.280  19.624  0.00  0.00    +0.000 HD
BRANCH   8  13
ATOM     10  C   UNL     1      11.619  13.319  16.851  0.00  0.00    +0.000 C 
ATOM     11  C   UNL     1      10.864  12.715  18.009  0.00  0.00    +0.000 A 
ATOM     12  C   UNL     1      10.172  11.420  17.746  0.00  0.00    +0.000 A 
ATOM     13  C   UNL     1       9.516  10.844  18.766  0.00  0.00    +0.000 A 
ATOM     14  N   UNL     1       9.511  11.537  20.001  0.00  0.00    +0.000 N 
ATOM     15  N   UNL     1       8.903  11.182  21.173  0.00  0.00    +0.000 NA
ATOM     16  C   UNL     1       9.247  12.196  21.966  0.00  0.00    +0.000 A 
ATOM     17  N   UNL     1      10.009  13.172  21.403  0.00  0.00    +0.000 NA
ATOM     18  C   UNL     1      10.174  12.758  20.166  0.00  0.00    +0.000 A 
ATOM     19  N   UNL     1      10.864  13.349  19.143  0.00  0.00    +0.000 NA
ENDBRANCH   8  13
ENDBRANCH   7   8
ENDBRANCH   1   7
BRANCH   5  20
ATOM     20  O   UNL     1       4.433   5.855  17.264  0.00  0.00    +0.000 OA
BRANCH  20  21
ATOM     21  C   UNL     1       3.367   6.438  18.021  0.00  0.00    +0.000 C 
BRANCH  21  22
ATOM     22  C   UNL     1       2.485   5.400  18.664  0.00  0.00    +0.000 A 
ATOM     23  C   UNL     1       2.049   4.310  17.890  0.00  0.00    +0.000 A 
ATOM     24  C   UNL     1       1.265   3.307  18.456  0.00  0.00    +0.000 A 
ATOM     25  C   UNL     1       0.919   3.375  19.801  0.00  0.00    +0.000 A 
ATOM     26  C   UNL     1       1.360   4.445  20.582  0.00  0.00    +0.000 A 
ATOM     27  C   UNL     1       2.145   5.451  20.019  0.00  0.00    +0.000 A 
ENDBRANCH  21  22
ENDBRANCH  20  21
ENDBRANCH   5  20
TORSDOF 6
ENDMDL
