MODEL 1
REMARK VINA RESULT:      -7.7      0.000      0.000
REMARK  Name = 
REMARK  3 active torsions:
REMARK  status: ('A' for Active; 'I' for Inactive)
REMARK    1  A    between atoms: N_1  and  C_2
REMARK    2  A    between atoms: C_8  and  C_9
REMARK    3  A    between atoms: C_15  and  C_16
REMARK                            x       y       z     vdW  Elec       q    Type
REMARK                         _______ _______ _______ _____ _____    ______ ____
ROOT
ATOM      1  C   UNL     1       1.036   9.596  21.208  0.00  0.00    +0.000 C 
ATOM      2  O   UNL     1       1.522   9.756  22.327  0.00  0.00    +0.000 OA
ATOM      3  N   UNL     1       0.095  10.483  20.665  0.00  0.00    +0.000 N 
ATOM      4  C   UNL     1      -0.082  11.787  21.304  0.00  0.00    +0.000 C 
ATOM      5  C   UNL     1      -1.548  12.214  21.333  0.00  0.00    +0.000 C 
ATOM      6  C   UNL     1      -2.178  12.181  19.938  0.00  0.00    +0.000 C 
ATOM      7  C   UNL     1      -1.992  10.800  19.298  0.00  0.00    +0.000 C 
ATOM      8  C   UNL     1      -0.527  10.350  19.350  0.00  0.00    +0.000 C 
ENDROOT
BRANCH   1  15
ATOM      9  C   UNL     1       2.709   4.877  18.502  0.00  0.00    +0.000 A 
ATOM     10  N   UNL     1       2.680   3.699  19.135  0.00  0.00    +0.000 NA
ATOM     11  C   UNL     1       2.220   3.723  20.391  0.00  0.00    +0.000 A 
ATOM     12  N   UNL     1       1.765   4.798  21.054  0.00  0.00    +0.000 NA
ATOM     13  C   UNL     1       1.822   5.971  20.413  0.00  0.00    +0.000 A 
ATOM     14  C   UNL     1       1.393   7.132  21.056  0.00  0.00    +0.000 A 
ATOM     15  C   UNL     1       1.484   8.393  20.441  0.00  0.00    +0.000 A 
ATOM     16  C   UNL     1       2.054   8.487  19.177  0.00  0.00    +0.000 A 
ATOM     17  C   UNL     1       2.410   7.336  18.484  0.00  0.00    +0.000 A 
ATOM     18  C   UNL     1       2.309   6.076  19.102  0.00  0.00    +0.000 A 
BRANCH   9  19
ATOM     19  N   UNL     1       3.205   4.843  17.194  0.00  0.00    +0.000 N 
ATOM     20  H   UNL     1       4.154   4.480  17.247  0.00  0.00    +0.000 HD
ATOM     21  H   UNL     1       2.623   4.270  16.592  0.00  0.00    +0.000 HD
ENDBRANCH   9  19
ENDBRANCH   1  15
BRANCH   7  22
ATOM     22  C   UNL     1      -2.463  10.702  17.855  0.00  0.00    +0.000 A 
ATOM     23  C   UNL     1      -1.858   9.822  16.942  0.00  0.00    +0.000 A 
ATOM     24  C   UNL     1      -2.388   9.645  15.663  0.00  0.00    +0.000 A 
ATOM     25  C   UNL     1      -3.524  10.350  15.276  0.00  0.00    +0.000 A 
ATOM     26  C   UNL     1      -4.132  11.231  16.167  0.00  0.00    +0.000 A 
ATOM     27  C   UNL     1      -3.607  11.404  17.450  0.00  0.00    +0.000 A 
ENDBRANCH   7  22
TORSDOF 3
ENDMDL
MODEL 2
REMARK VINA RESULT:      -7.4      3.064      4.389
REMARK  Name = 
REMARK  3 active torsions:
REMARK  status: ('A' for Active; 'I' for Inactive)
REMARK    1  A    between atoms: N_1  and  C_2
REMARK    2  A    between atoms: C_8  and  C_9
REMARK    3  A    between atoms: C_15  and  C_16
REMARK                            x       y       z     vdW  Elec       q    Type
REMARK                         _______ _______ _______ _____ _____    ______ ____
ROOT
ATOM      1  C   UNL     1       2.652   8.094  17.983  0.00  0.00    +0.000 C 
ATOM      2  O   UNL     1       3.447   8.024  17.047  0.00  0.00    +0.000 OA
ATOM      3  N   UNL     1       2.037   9.298  18.357  0.00  0.00    +0.000 N 
ATOM      4  C   UNL     1       2.099  10.427  17.429  0.00  0.00    +0.000 C 
ATOM      5  C   UNL     1       2.305  11.754  18.159  0.00  0.00    +0.000 C 
ATOM      6  C   UNL     1       1.250  11.975  19.246  0.00  0.00    +0.000 C 
ATOM      7  C   UNL     1       1.219  10.785  20.212  0.00  0.00    +0.000 C 
ATOM      8  C   UNL     1       1.093   9.455  19.459  0.00  0.00    +0.000 C 
ENDROOT
BRANCH   1  15
ATOM      9  C   UNL     1       1.525   3.165  20.596  0.00  0.00    +0.000 A 
ATOM     10  N   UNL     1       1.211   2.084  19.875  0.00  0.00    +0.000 NA
ATOM     11  C   UNL     1       1.211   2.249  18.547  0.00  0.00    +0.000 A 
ATOM     12  N   UNL     1       1.520   3.373  17.883  0.00  0.00    +0.000 NA
ATOM     13  C   UNL     1       1.811   4.451  18.621  0.00  0.00    +0.000 A 
ATOM     14  C   UNL     1       2.112   5.659  17.993  0.00  0.00    +0.000 A 
ATOM     15  C   UNL     1       2.371   6.828  18.728  0.00  0.00    +0.000 A 
ATOM     16  C   UNL     1       2.284   6.786  20.115  0.00  0.00    +0.000 A 
ATOM     17  C   UNL     1       2.070   5.576  20.764  0.00  0.00    +0.000 A 
ATOM     18  C   UNL     1       1.818   4.407  20.023  0.00  0.00    +0.000 A 
BRANCH   9  19
ATOM     19  N   UNL     1       1.509   2.985  21.984  0.00  0.00    +0.000 N 
ATOM     20  H   UNL     1       2.453   3.170  22.316  0.00  0.00    +0.000 HD
ATOM     21  H   UNL     1       0.834   3.597  22.430  0.00  0.00    +0.000 HD
ENDBRANCH   9  19
ENDBRANCH   1  15
BRANCH   7  22
ATOM     22  C   UNL     1       0.109  10.842  21.252  0.00  0.00    +0.000 A 
ATOM     23  C   UNL     1       0.046   9.922  22.311  0.00  0.00    +0.000 A 
ATOM     24  C   UNL     1      -0.896  10.072  23.330  0.00  0.00    +0.000 A 
ATOM     25  C   UNL     1      -1.792  11.137  23.302  0.00  0.00    +0.000 A 
ATOM     26  C   UNL     1      -1.745  12.054  22.254  0.00  0.00    +0.000 A 
ATOM     27  C   UNL     1      -0.799  11.911  21.237  0.00  0.00    +0.000 A 
ENDBRANCH   7  22
TORSDOF 3
ENDMDL
MODEL 3
REMARK VINA RESULT:      -7.3      3.188      4.417
REMARK  Name = 
REMARK  3 active torsions:
REMARK  status: ('A' for Active; 'I' for Inactive)
REMARK    1  A    between atoms: N_1  and  C_2
REMARK    2  A    between atoms: C_8  and  C_9
REMARK    3  A    between atoms: C_15  and  C_16
REMARK                            x       y       z     vdW  Elec       q    Type
REMARK                         _______ _______ _______ _____ _____    ______ ____
ROOT
ATOM      1  C   UNL     1       2.056   6.286  20.312  0.00  0.00    +0.000 C 
ATOM      2  O   UNL     1       1.743   5.268  20.928  0.00  0.00    +0.000 OA
ATOM      3  N   UNL     1       1.467   7.532  20.574  0.00  0.00    +0.000 N 
ATOM      4  C   UNL     1       0.695   7.690  21.807  0.00  0.00    +0.000 C 
ATOM      5  C   UNL     1      -0.553   8.545  21.591  0.00  0.00    +0.000 C 
ATOM      6  C   UNL     1      -0.214   9.898  20.961  0.00  0.00    +0.000 C 
ATOM      7  C   UNL     1       0.581   9.701  19.664  0.00  0.00    +0.000 C 
ATOM      8  C   UNL     1       1.784   8.776  19.879  0.00  0.00    +0.000 C 
ENDROOT
BRANCH   1  15
ATOM      9  C   UNL     1       6.176   5.644  16.439  0.00  0.00    +0.000 A 
ATOM     10  N   UNL     1       7.348   5.105  16.793  0.00  0.00    +0.000 NA
ATOM     11  C   UNL     1       7.451   4.725  18.072  0.00  0.00    +0.000 A 
ATOM     12  N   UNL     1       6.493   4.806  19.009  0.00  0.00    +0.000 NA
ATOM     13  C   UNL     1       5.335   5.367  18.642  0.00  0.00    +0.000 A 
ATOM     14  C   UNL     1       4.308   5.510  19.575  0.00  0.00    +0.000 A 
ATOM     15  C   UNL     1       3.096   6.140  19.248  0.00  0.00    +0.000 A 
ATOM     16  C   UNL     1       2.935   6.672  17.974  0.00  0.00    +0.000 A 
ATOM     17  C   UNL     1       3.909   6.468  17.004  0.00  0.00    +0.000 A 
ATOM     18  C   UNL     1       5.118   5.828  17.335  0.00  0.00    +0.000 A 
BRANCH   9  19
ATOM     19  N   UNL     1       6.084   6.052  15.104  0.00  0.00    +0.000 N 
ATOM     20  H   UNL     1       5.763   7.017  15.111  0.00  0.00    +0.000 HD
ATOM     21  H   UNL     1       6.974   5.961  14.625  0.00  0.00    +0.000 HD
ENDBRANCH   9  19
ENDBRANCH   1  15
BRANCH   7  22
ATOM     22  C   UNL     1       1.086  10.989  19.030  0.00  0.00    +0.000 A 
ATOM     23  C   UNL     1       0.523  12.235  19.349  0.00  0.00    +0.000 A 
ATOM     24  C   UNL     1       1.086  13.417  18.863  0.00  0.00    +0.000 A 
ATOM     25  C   UNL     1       2.213  13.369  18.047  0.00  0.00    +0.000 A 
ATOM     26  C   UNL     1       2.778  12.139  17.716  0.00  0.00    +0.000 A 
ATOM     27  C   UNL     1       2.221  10.956  18.206  0.00  0.00    +0.000 A 
ENDBRANCH   7  22
TORSDOF 3
ENDMDL
MODEL 4
REMARK VINA RESULT:      -7.3      3.122      4.929
REMARK  Name = 
REMARK  3 active torsions:
REMARK  status: ('A' for Active; 'I' for Inactive)
REMARK    1  A    between atoms: N_1  and  C_2
REMARK    2  A    between atoms: C_8  and  C_9
REMARK    3  A    between atoms: C_15  and  C_16
REMARK                            x       y       z     vdW  Elec       q    Type
REMARK                         _______ _______ _______ _____ _____    ______ ____
ROOT
ATOM      1  C   UNL     1      -1.394  13.167  22.958  0.00  0.00    +0.000 C 
ATOM      2  O   UNL     1      -0.779  13.772  23.834  0.00  0.00    +0.000 OA
ATOM      3  N   UNL     1      -2.670  13.561  22.527  0.00  0.00    +0.000 N 
ATOM      4  C   UNL     1      -3.149  14.892  22.901  0.00  0.00    +0.000 C 
ATOM      5  C   UNL     1      -4.636  14.884  23.250  0.00  0.00    +0.000 C 
ATOM      6  C   UNL     1      -5.482  14.275  22.129  0.00  0.00    +0.000 C 
ATOM      7  C   UNL     1      -4.967  12.877  21.768  0.00  0.00    +0.000 C 
ATOM      8  C   UNL     1      -3.457  12.887  21.499  0.00  0.00    +0.000 C 
ENDROOT
BRANCH   1  15
ATOM      9  C   UNL     1       1.173   8.728  20.488  0.00  0.00    +0.000 A 
ATOM     10  N   UNL     1       1.614   8.827  19.230  0.00  0.00    +0.000 NA
ATOM     11  C   UNL     1       1.431  10.014  18.640  0.00  0.00    +0.000 A 
ATOM     12  N   UNL     1       0.880  11.104  19.196  0.00  0.00    +0.000 NA
ATOM     13  C   UNL     1       0.425  10.981  20.448  0.00  0.00    +0.000 A 
ATOM     14  C   UNL     1      -0.185  12.067  21.073  0.00  0.00    +0.000 A 
ATOM     15  C   UNL     1      -0.724  11.967  22.367  0.00  0.00    +0.000 A 
ATOM     16  C   UNL     1      -0.684  10.741  23.021  0.00  0.00    +0.000 A 
ATOM     17  C   UNL     1      -0.007   9.669  22.453  0.00  0.00    +0.000 A 
ATOM     18  C   UNL     1       0.538   9.778  21.160  0.00  0.00    +0.000 A 
BRANCH   9  19
ATOM     19  N   UNL     1       1.357   7.479  21.091  0.00  0.00    +0.000 N 
ATOM     20  H   UNL     1       0.432   7.095  21.265  0.00  0.00    +0.000 HD
ATOM     21  H   UNL     1       1.910   6.861  20.505  0.00  0.00    +0.000 HD
ENDBRANCH   9  19
ENDBRANCH   1  15
BRANCH   7  22
ATOM     22  C   UNL     1      -5.653  12.239  20.570  0.00  0.00    +0.000 A 
ATOM     23  C   UNL     1      -5.070  12.258  19.292  0.00  0.00    +0.000 A 
ATOM     24  C   UNL     1      -5.646  11.552  18.234  0.00  0.00    +0.000 A 
ATOM     25  C   UNL     1      -6.815  10.823  18.437  0.00  0.00    +0.000 A 
ATOM     26  C   UNL     1      -7.409  10.800  19.696  0.00  0.00    +0.000 A 
ATOM     27  C   UNL     1      -6.831  11.500  20.757  0.00  0.00    +0.000 A 
ENDBRANCH   7  22
TORSDOF 3
ENDMDL
MODEL 5
REMARK VINA RESULT:      -7.2      3.208      7.559
REMARK  Name = 
REMARK  3 active torsions:
REMARK  status: ('A' for Active; 'I' for Inactive)
REMARK    1  A    between atoms: N_1  and  C_2
REMARK    2  A    between atoms: C_8  and  C_9
REMARK    3  A    between atoms: C_15  and  C_16
REMARK                            x       y       z     vdW  Elec       q    Type
REMARK                         _______ _______ _______ _____ _____    ______ ____
ROOT
ATOM      1  C   UNL     1       1.050   7.549  20.694  0.00  0.00    +0.000 C 
ATOM      2  O   UNL     1       0.205   7.475  21.585  0.00  0.00    +0.000 OA
ATOM      3  N   UNL     1       1.786   6.435  20.263  0.00  0.00    +0.000 N 
ATOM      4  C   UNL     1       1.327   5.104  20.659  0.00  0.00    +0.000 C 
ATOM      5  C   UNL     1       2.493   4.178  21.000  0.00  0.00    +0.000 C 
ATOM      6  C   UNL     1       3.515   4.106  19.863  0.00  0.00    +0.000 C 
ATOM      7  C   UNL     1       3.989   5.513  19.480  0.00  0.00    +0.000 C 
ATOM      8  C   UNL     1       2.806   6.453  19.219  0.00  0.00    +0.000 C 
ENDROOT
BRANCH   1  15
ATOM      9  C   UNL     1       1.815  12.783  18.592  0.00  0.00    +0.000 A 
ATOM     10  N   UNL     1       1.553  13.852  19.352  0.00  0.00    +0.000 NA
ATOM     11  C   UNL     1       1.140  13.594  20.598  0.00  0.00    +0.000 A 
ATOM     12  N   UNL     1       0.995  12.382  21.156  0.00  0.00    +0.000 NA
ATOM     13  C   UNL     1       1.240  11.324  20.375  0.00  0.00    +0.000 A 
ATOM     14  C   UNL     1       1.079  10.036  20.885  0.00  0.00    +0.000 A 
ATOM     15  C   UNL     1       1.275   8.897  20.086  0.00  0.00    +0.000 A 
ATOM     16  C   UNL     1       1.596   9.061  18.744  0.00  0.00    +0.000 A 
ATOM     17  C   UNL     1       1.844  10.331  18.236  0.00  0.00    +0.000 A 
ATOM     18  C   UNL     1       1.654  11.468  19.043  0.00  0.00    +0.000 A 
BRANCH   9  19
ATOM     19  N   UNL     1       2.233  13.063  17.287  0.00  0.00    +0.000 N 
ATOM     20  H   UNL     1       1.947  14.018  17.083  0.00  0.00    +0.000 HD
ATOM     21  H   UNL     1       3.235  12.947  17.185  0.00  0.00    +0.000 HD
ENDBRANCH   9  19
ENDBRANCH   1  15
BRANCH   7  22
ATOM     22  C   UNL     1       4.905   5.564  18.266  0.00  0.00    +0.000 A 
ATOM     23  C   UNL     1       6.098   4.825  18.213  0.00  0.00    +0.000 A 
ATOM     24  C   UNL     1       6.856   4.776  17.042  0.00  0.00    +0.000 A 
ATOM     25  C   UNL     1       6.437   5.470  15.910  0.00  0.00    +0.000 A 
ATOM     26  C   UNL     1       5.259   6.213  15.949  0.00  0.00    +0.000 A 
ATOM     27  C   UNL     1       4.496   6.258  17.118  0.00  0.00    +0.000 A 
ENDBRANCH   7  22
TORSDOF 3
ENDMDL
MODEL 6
REMARK VINA RESULT:      -7.1      3.842      6.784
REMARK  Name = 
REMARK  3 active torsions:
REMARK  status: ('A' for Active; 'I' for Inactive)
REMARK    1  A    between atoms: N_1  and  C_2
REMARK    2  A    between atoms: C_8  and  C_9
REMARK    3  A    between atoms: C_15  and  C_16
REMARK                            x       y       z     vdW  Elec       q    Type
REMARK                         _______ _______ _______ _____ _____    ______ ____
ROOT
ATOM      1  C   UNL     1       4.638   3.497  18.943  0.00  0.00    +0.000 C 
ATOM      2  O   UNL     1       4.812   2.334  19.304  0.00  0.00    +0.000 OA
ATOM      3  N   UNL     1       3.772   4.371  19.617  0.00  0.00    +0.000 N 
ATOM      4  C   UNL     1       3.306   3.995  20.952  0.00  0.00    +0.000 C 
ATOM      5  C   UNL     1       1.842   4.370  21.170  0.00  0.00    +0.000 C 
ATOM      6  C   UNL     1       1.584   5.851  20.881  0.00  0.00    +0.000 C 
ATOM      7  C   UNL     1       2.067   6.213  19.471  0.00  0.00    +0.000 C 
ATOM      8  C   UNL     1       3.513   5.757  19.240  0.00  0.00    +0.000 C 
ENDROOT
BRANCH   1  15
ATOM      9  C   UNL     1       7.334   5.065  14.182  0.00  0.00    +0.000 A 
ATOM     10  N   UNL     1       6.897   4.633  12.994  0.00  0.00    +0.000 NA
ATOM     11  C   UNL     1       5.807   3.858  13.021  0.00  0.00    +0.000 A 
ATOM     12  N   UNL     1       5.106   3.504  14.110  0.00  0.00    +0.000 NA
ATOM     13  C   UNL     1       5.570   3.927  15.291  0.00  0.00    +0.000 A 
ATOM     14  C   UNL     1       4.905   3.570  16.464  0.00  0.00    +0.000 A 
ATOM     15  C   UNL     1       5.387   3.948  17.729  0.00  0.00    +0.000 A 
ATOM     16  C   UNL     1       6.577   4.659  17.813  0.00  0.00    +0.000 A 
ATOM     17  C   UNL     1       7.211   5.099  16.656  0.00  0.00    +0.000 A 
ATOM     18  C   UNL     1       6.720   4.724  15.392  0.00  0.00    +0.000 A 
BRANCH   9  19
ATOM     19  N   UNL     1       8.483   5.863  14.144  0.00  0.00    +0.000 N 
ATOM     20  H   UNL     1       8.929   5.696  13.245  0.00  0.00    +0.000 HD
ATOM     21  H   UNL     1       8.257   6.844  14.268  0.00  0.00    +0.000 HD
ENDBRANCH   9  19
ENDBRANCH   1  15
BRANCH   7  22
ATOM     22  C   UNL     1       1.982   7.694  19.133  0.00  0.00    +0.000 A 
ATOM     23  C   UNL     1       2.440   8.195  17.904  0.00  0.00    +0.000 A 
ATOM     24  C   UNL     1       2.231   9.531  17.556  0.00  0.00    +0.000 A 
ATOM     25  C   UNL     1       1.568  10.385  18.433  0.00  0.00    +0.000 A 
ATOM     26  C   UNL     1       1.114   9.904  19.659  0.00  0.00    +0.000 A 
ATOM     27  C   UNL     1       1.316   8.567  20.007  0.00  0.00    +0.000 A 
ENDBRANCH   7  22
TORSDOF 3
ENDMDL
MODEL 7
REMARK VINA RESULT:      -7.1      4.241      7.638
REMARK  Name = 
REMARK  3 active torsions:
REMARK  status: ('A' for Active; 'I' for Inactive)
REMARK    1  A    between atoms: N_1  and  C_2
REMARK    2  A    between atoms: C_8  and  C_9
REMARK    3  A    between atoms: C_15  and  C_16
REMARK                            x       y       z     vdW  Elec       q    Type
REMARK                         _______ _______ _______ _____ _____    ______ ____
ROOT
ATOM      1  C   UNL     1       0.127  13.261  21.739  0.00  0.00    +0.000 C 
ATOM      2  O   UNL     1      -0.377  13.993  22.589  0.00  0.00    +0.000 OA
ATOM      3  N   UNL     1      -0.075  11.873  21.728  0.00  0.00    +0.000 N 
ATOM      4  C   UNL     1      -1.152  11.321  22.551  0.00  0.00    +0.000 C 
ATOM      5  C   UNL     1      -0.749  10.002  23.206  0.00  0.00    +0.000 C 
ATOM      6  C   UNL     1      -0.248   8.984  22.178  0.00  0.00    +0.000 C 
ATOM      7  C   UNL     1       0.889   9.584  21.341  0.00  0.00    +0.000 C 
ATOM      8  C   UNL     1       0.497  10.946  20.756  0.00  0.00    +0.000 C 
ENDROOT
BRANCH   1  15
ATOM      9  C   UNL     1       3.229  15.933  17.785  0.00  0.00    +0.000 A 
ATOM     10  N   UNL     1       2.794  17.083  17.260  0.00  0.00    +0.000 NA
ATOM     11  C   UNL     1       1.634  17.542  17.744  0.00  0.00    +0.000 A 
ATOM     12  N   UNL     1       0.893  16.978  18.710  0.00  0.00    +0.000 NA
ATOM     13  C   UNL     1       1.332  15.816  19.208  0.00  0.00    +0.000 A 
ATOM     14  C   UNL     1       0.594  15.163  20.194  0.00  0.00    +0.000 A 
ATOM     15  C   UNL     1       0.990  13.916  20.708  0.00  0.00    +0.000 A 
ATOM     16  C   UNL     1       2.123  13.302  20.188  0.00  0.00    +0.000 A 
ATOM     17  C   UNL     1       2.920  13.972  19.267  0.00  0.00    +0.000 A 
ATOM     18  C   UNL     1       2.523  15.224  18.763  0.00  0.00    +0.000 A 
BRANCH   9  19
ATOM     19  N   UNL     1       4.436  15.455  17.263  0.00  0.00    +0.000 N 
ATOM     20  H   UNL     1       4.233  14.561  16.821  0.00  0.00    +0.000 HD
ATOM     21  H   UNL     1       4.841  16.110  16.603  0.00  0.00    +0.000 HD
ENDBRANCH   9  19
ENDBRANCH   1  15
BRANCH   7  22
ATOM     22  C   UNL     1       1.366   8.701  20.197  0.00  0.00    +0.000 A 
ATOM     23  C   UNL     1       1.453   9.186  18.882  0.00  0.00    +0.000 A 
ATOM     24  C   UNL     1       2.020   8.408  17.871  0.00  0.00    +0.000 A 
ATOM     25  C   UNL     1       2.502   7.134  18.159  0.00  0.00    +0.000 A 
ATOM     26  C   UNL     1       2.417   6.637  19.457  0.00  0.00    +0.000 A 
ATOM     27  C   UNL     1       1.856   7.416  20.471  0.00  0.00    +0.000 A 
ENDBRANCH   7  22
TORSDOF 3
ENDMDL
MODEL 8
REMARK VINA RESULT:      -7.1      3.180      8.000
REMARK  Name = 
REMARK  3 active torsions:
REMARK  status: ('A' for Active; 'I' for Inactive)
REMARK    1  A    between atoms: N_1  and  C_2
REMARK    2  A    between atoms: C_8  and  C_9
REMARK    3  A    between atoms: C_15  and  C_16
REMARK                            x       y       z     vdW  Elec       q    Type
REMARK                         _______ _______ _______ _____ _____    ______ ____
ROOT
ATOM      1  C   UNL     1       1.907   5.560  19.892  0.00  0.00    +0.000 C 
ATOM      2  O   UNL     1       1.210   5.256  20.858  0.00  0.00    +0.000 OA
ATOM      3  N   UNL     1       2.654   4.611  19.178  0.00  0.00    +0.000 N 
ATOM      4  C   UNL     1       2.359   3.194  19.387  0.00  0.00    +0.000 C 
ATOM      5  C   UNL     1       3.628   2.344  19.403  0.00  0.00    +0.000 C 
ATOM      6  C   UNL     1       4.476   2.563  18.147  0.00  0.00    +0.000 C 
ATOM      7  C   UNL     1       4.782   4.054  17.961  0.00  0.00    +0.000 C 
ATOM      8  C   UNL     1       3.507   4.902  18.029  0.00  0.00    +0.000 C 
ENDROOT
BRANCH   1  15
ATOM      9  C   UNL     1       1.892  11.112  18.640  0.00  0.00    +0.000 A 
ATOM     10  N   UNL     1       1.329  11.985  19.482  0.00  0.00    +0.000 NA
ATOM     11  C   UNL     1       0.818  11.465  20.604  0.00  0.00    +0.000 A 
ATOM     12  N   UNL     1       0.843  10.173  20.968  0.00  0.00    +0.000 NA
ATOM     13  C   UNL     1       1.391   9.312  20.104  0.00  0.00    +0.000 A 
ATOM     14  C   UNL     1       1.422   7.951  20.408  0.00  0.00    +0.000 A 
ATOM     15  C   UNL     1       1.940   7.005  19.508  0.00  0.00    +0.000 A 
ATOM     16  C   UNL     1       2.393   7.434  18.266  0.00  0.00    +0.000 A 
ATOM     17  C   UNL     1       2.450   8.791  17.974  0.00  0.00    +0.000 A 
ATOM     18  C   UNL     1       1.937   9.735  18.884  0.00  0.00    +0.000 A 
BRANCH   9  19
ATOM     19  N   UNL     1       2.412  11.664  17.464  0.00  0.00    +0.000 N 
ATOM     20  H   UNL     1       3.062  12.395  17.743  0.00  0.00    +0.000 HD
ATOM     21  H   UNL     1       2.870  10.960  16.894  0.00  0.00    +0.000 HD
ENDBRANCH   9  19
ENDBRANCH   1  15
BRANCH   7  22
ATOM     22  C   UNL     1       5.505   4.395  16.666  0.00  0.00    +0.000 A 
ATOM     23  C   UNL     1       6.829   4.864  16.665  0.00  0.00    +0.000 A 
ATOM     24  C   UNL     1       7.521   5.042  15.466  0.00  0.00    +0.000 A 
ATOM     25  C   UNL     1       6.899   4.761  14.252  0.00  0.00    +0.000 A 
ATOM     26  C   UNL     1       5.583   4.302  14.237  0.00  0.00    +0.000 A 
ATOM     27  C   UNL     1       4.891   4.117  15.436  0.00  0.00    +0.000 A 
ENDBRANCH   7  22
TORSDOF 3
ENDMDL
MODEL 9
REMARK VINA RESULT:      -7.0      4.990      9.107
REMARK  Name = 
REMARK  3 active torsions:
REMARK  status: ('A' for Active; 'I' for Inactive)
REMARK    1  A    between atoms: N_1  and  C_2
REMARK    2  A    between atoms: C_8  and  C_9
REMARK    3  A    between atoms: C_15  and  C_16
REMARK                            x       y       z     vdW  Elec       q    Type
REMARK                         _______ _______ _______ _____ _____    ______ ____
ROOT
ATOM      1  C   UNL     1      -5.843  12.127  17.893  0.00  0.00    +0.000 C 
ATOM      2  O   UNL     1      -6.795  12.090  17.115  0.00  0.00    +0.000 OA
ATOM      3  N   UNL     1      -4.564  11.672  17.535  0.00  0.00    +0.000 N 
ATOM      4  C   UNL     1      -4.280  11.441  16.119  0.00  0.00    +0.000 C 
ATOM      5  C   UNL     1      -3.417  10.198  15.907  0.00  0.00    +0.000 C 
ATOM      6  C   UNL     1      -2.133  10.248  16.739  0.00  0.00    +0.000 C 
ATOM      7  C   UNL     1      -2.461  10.476  18.219  0.00  0.00    +0.000 C 
ATOM      8  C   UNL     1      -3.394  11.679  18.408  0.00  0.00    +0.000 C 
ENDROOT
BRANCH   1  15
ATOM      9  C   UNL     1      -6.965  13.977  23.156  0.00  0.00    +0.000 A 
ATOM     10  N   UNL     1      -7.568  13.168  24.034  0.00  0.00    +0.000 NA
ATOM     11  C   UNL     1      -7.846  11.935  23.594  0.00  0.00    +0.000 A 
ATOM     12  N   UNL     1      -7.555  11.435  22.383  0.00  0.00    +0.000 NA
ATOM     13  C   UNL     1      -6.972  12.266  21.511  0.00  0.00    +0.000 A 
ATOM     14  C   UNL     1      -6.670  11.818  20.225  0.00  0.00    +0.000 A 
ATOM     15  C   UNL     1      -6.106  12.670  19.261  0.00  0.00    +0.000 A 
ATOM     16  C   UNL     1      -5.883  14.003  19.586  0.00  0.00    +0.000 A 
ATOM     17  C   UNL     1      -6.097  14.450  20.885  0.00  0.00    +0.000 A 
ATOM     18  C   UNL     1      -6.654  13.589  21.848  0.00  0.00    +0.000 A 
BRANCH   9  19
ATOM     19  N   UNL     1      -6.691  15.268  23.622  0.00  0.00    +0.000 N 
ATOM     20  H   UNL     1      -5.678  15.358  23.663  0.00  0.00    +0.000 HD
ATOM     21  H   UNL     1      -7.100  15.975  23.020  0.00  0.00    +0.000 HD
ENDBRANCH   9  19
ENDBRANCH   1  15
BRANCH   7  22
ATOM     22  C   UNL     1      -1.247  10.678  19.114  0.00  0.00    +0.000 A 
ATOM     23  C   UNL     1      -0.034  10.015  18.867  0.00  0.00    +0.000 A 
ATOM     24  C   UNL     1       1.107  10.315  19.614  0.00  0.00    +0.000 A 
ATOM     25  C   UNL     1       1.050  11.275  20.620  0.00  0.00    +0.000 A 
ATOM     26  C   UNL     1      -0.148  11.936  20.881  0.00  0.00    +0.000 A 
ATOM     27  C   UNL     1      -1.289  11.643  20.131  0.00  0.00    +0.000 A 
ENDBRANCH   7  22
TORSDOF 3
ENDMDL
