MODEL 1
REMARK VINA RESULT:      -7.9      0.000      0.000
REMARK  Name = 
REMARK  4 active torsions:
REMARK  status: ('A' for Active; 'I' for Inactive)
REMARK    1  A    between atoms: N_1  and  C_2
REMARK    2  A    between atoms: C_4  and  C_5
REMARK    3  A    between atoms: C_5  and  N_6
REMARK    4  A    between atoms: C_10  and  C_11
REMARK                            x       y       z     vdW  Elec       q    Type
REMARK                         _______ _______ _______ _____ _____    ______ ____
ROOT
ATOM      1  C   UNL     1      -2.489  10.527  17.630  0.00  0.00    +0.000 A 
ATOM      2  N   UNL     1      -1.152  10.385  17.685  0.00  0.00    +0.000 NA
ATOM      3  C   UNL     1      -0.443  11.053  18.618  0.00  0.00    +0.000 A 
ATOM      4  N   UNL     1      -0.951  11.892  19.523  0.00  0.00    +0.000 NA
ATOM      5  C   UNL     1      -2.283  12.029  19.435  0.00  0.00    +0.000 A 
ATOM      6  S   UNL     1      -3.094  13.036  20.536  0.00  0.00    +0.000 S 
ATOM      7  C   UNL     1      -4.609  12.661  19.862  0.00  0.00    +0.000 A 
ATOM      8  C   UNL     1      -4.510  11.813  18.768  0.00  0.00    +0.000 A 
ATOM      9  C   UNL     1      -3.132  11.405  18.528  0.00  0.00    +0.000 A 
ATOM     10  C   UNL     1      -5.736  11.375  18.022  0.00  0.00    +0.000 C 
ATOM     11  C   UNL     1      -6.658  10.519  18.893  0.00  0.00    +0.000 C 
ATOM     12  C   UNL     1      -7.534  11.342  19.843  0.00  0.00    +0.000 C 
ATOM     13  C   UNL     1      -6.785  12.076  20.961  0.00  0.00    +0.000 C 
ATOM     14  C   UNL     1      -5.867  13.203  20.476  0.00  0.00    +0.000 C 
ENDROOT
BRANCH   1  15
ATOM     15  N   UNL     1      -3.106   9.730  16.680  0.00  0.00    +0.000 N 
ATOM     16  H   UNL     1      -3.363  10.273  15.863  0.00  0.00    +0.000 HD
ATOM     17  H   UNL     1      -3.790   9.064  16.993  0.00  0.00    +0.000 HD
ENDBRANCH   1  15
BRANCH   3  18
ATOM     18  C   UNL     1       1.041  10.753  18.690  0.00  0.00    +0.000 C 
BRANCH  18  19
ATOM     19  N   UNL     1       1.338   9.428  19.263  0.00  0.00    +0.000 N 
ATOM     20  C   UNL     1       0.965   9.158  20.570  0.00  0.00    +0.000 A 
ATOM     21  C   UNL     1       1.264   7.991  21.145  0.00  0.00    +0.000 A 
ATOM     22  C   UNL     1       1.972   6.990  20.395  0.00  0.00    +0.000 A 
ATOM     23  C   UNL     1       2.339   7.197  19.114  0.00  0.00    +0.000 A 
ATOM     24  C   UNL     1       2.014   8.498  18.472  0.00  0.00    +0.000 A 
ATOM     25  O   UNL     1       2.318   8.719  17.302  0.00  0.00    +0.000 OA
BRANCH  23  26
ATOM     26  C   UNL     1       3.048   6.172  18.310  0.00  0.00    +0.000 C 
ATOM     27  F   UNL     1       4.018   6.610  17.470  0.00  0.00    +0.000 F 
ATOM     28  F   UNL     1       3.636   5.243  19.114  0.00  0.00    +0.000 F 
ATOM     29  F   UNL     1       2.167   5.478  17.534  0.00  0.00    +0.000 F 
ENDBRANCH  23  26
ENDBRANCH  18  19
ENDBRANCH   3  18
TORSDOF 4
ENDMDL
MODEL 2
REMARK VINA RESULT:      -7.7      3.471      5.249
REMARK  Name = 
REMARK  4 active torsions:
REMARK  status: ('A' for Active; 'I' for Inactive)
REMARK    1  A    between atoms: N_1  and  C_2
REMARK    2  A    between atoms: C_4  and  C_5
REMARK    3  A    between atoms: C_5  and  N_6
REMARK    4  A    between atoms: C_10  and  C_11
REMARK                            x       y       z     vdW  Elec       q    Type
REMARK                         _______ _______ _______ _____ _____    ______ ____
ROOT
ATOM      1  C   UNL     1       1.862   8.609  18.763  0.00  0.00    +0.000 A 
ATOM      2  N   UNL     1       2.341   7.360  18.914  0.00  0.00    +0.000 NA
ATOM      3  C   UNL     1       2.193   6.721  20.092  0.00  0.00    +0.000 A 
ATOM      4  N   UNL     1       1.610   7.229  21.180  0.00  0.00    +0.000 NA
ATOM      5  C   UNL     1       1.159   8.480  21.009  0.00  0.00    +0.000 A 
ATOM      6  S   UNL     1       0.359   9.262  22.287  0.00  0.00    +0.000 S 
ATOM      7  C   UNL     1       0.075  10.649  21.345  0.00  0.00    +0.000 A 
ATOM      8  C   UNL     1       0.626  10.553  20.076  0.00  0.00    +0.000 A 
ATOM      9  C   UNL     1       1.243   9.252  19.856  0.00  0.00    +0.000 A 
ATOM     10  C   UNL     1       0.497  11.682  19.095  0.00  0.00    +0.000 C 
ATOM     11  C   UNL     1      -0.958  11.927  18.695  0.00  0.00    +0.000 C 
ATOM     12  C   UNL     1      -1.744  12.740  19.729  0.00  0.00    +0.000 C 
ATOM     13  C   UNL     1      -1.993  12.039  21.069  0.00  0.00    +0.000 C 
ATOM     14  C   UNL     1      -0.730  11.790  21.899  0.00  0.00    +0.000 C 
ENDROOT
BRANCH   1  15
ATOM     15  N   UNL     1       2.009   9.123  17.485  0.00  0.00    +0.000 N 
ATOM     16  H   UNL     1       1.406   8.641  16.828  0.00  0.00    +0.000 HD
ATOM     17  H   UNL     1       2.939   9.322  17.159  0.00  0.00    +0.000 HD
ENDBRANCH   1  15
BRANCH   3  18
ATOM     18  C   UNL     1       2.654   5.279  20.148  0.00  0.00    +0.000 C 
BRANCH  18  19
ATOM     19  N   UNL     1       3.306   4.829  18.905  0.00  0.00    +0.000 N 
ATOM     20  C   UNL     1       2.548   4.182  17.941  0.00  0.00    +0.000 A 
ATOM     21  C   UNL     1       3.111   3.710  16.826  0.00  0.00    +0.000 A 
ATOM     22  C   UNL     1       4.522   3.886  16.612  0.00  0.00    +0.000 A 
ATOM     23  C   UNL     1       5.296   4.527  17.510  0.00  0.00    +0.000 A 
ATOM     24  C   UNL     1       4.676   5.047  18.756  0.00  0.00    +0.000 A 
ATOM     25  O   UNL     1       5.346   5.650  19.592  0.00  0.00    +0.000 OA
BRANCH  23  26
ATOM     26  C   UNL     1       6.749   4.744  17.301  0.00  0.00    +0.000 C 
ATOM     27  F   UNL     1       7.583   4.320  18.283  0.00  0.00    +0.000 F 
ATOM     28  F   UNL     1       7.173   4.137  16.158  0.00  0.00    +0.000 F 
ATOM     29  F   UNL     1       7.015   6.071  17.130  0.00  0.00    +0.000 F 
ENDBRANCH  23  26
ENDBRANCH  18  19
ENDBRANCH   3  18
TORSDOF 4
ENDMDL
MODEL 3
REMARK VINA RESULT:      -7.7      3.872      8.049
REMARK  Name = 
REMARK  4 active torsions:
REMARK  status: ('A' for Active; 'I' for Inactive)
REMARK    1  A    between atoms: N_1  and  C_2
REMARK    2  A    between atoms: C_4  and  C_5
REMARK    3  A    between atoms: C_5  and  N_6
REMARK    4  A    between atoms: C_10  and  C_11
REMARK                            x       y       z     vdW  Elec       q    Type
REMARK                         _______ _______ _______ _____ _____    ______ ____
ROOT
ATOM      1  C   UNL     1       1.381   7.825  20.532  0.00  0.00    +0.000 A 
ATOM      2  N   UNL     1       1.221   9.066  20.037  0.00  0.00    +0.000 NA
ATOM      3  C   UNL     1       1.729   9.380  18.828  0.00  0.00    +0.000 A 
ATOM      4  N   UNL     1       2.421   8.553  18.042  0.00  0.00    +0.000 NA
ATOM      5  C   UNL     1       2.583   7.329  18.566  0.00  0.00    +0.000 A 
ATOM      6  S   UNL     1       3.414   6.143  17.678  0.00  0.00    +0.000 S 
ATOM      7  C   UNL     1       3.162   4.972  18.884  0.00  0.00    +0.000 A 
ATOM      8  C   UNL     1       2.494   5.479  19.988  0.00  0.00    +0.000 A 
ATOM      9  C   UNL     1       2.115   6.873  19.793  0.00  0.00    +0.000 A 
ATOM     10  C   UNL     1       2.188   4.606  21.170  0.00  0.00    +0.000 C 
ATOM     11  C   UNL     1       1.216   3.481  20.811  0.00  0.00    +0.000 C 
ATOM     12  C   UNL     1       1.888   2.295  20.112  0.00  0.00    +0.000 C 
ATOM     13  C   UNL     1       2.434   2.579  18.708  0.00  0.00    +0.000 C 
ATOM     14  C   UNL     1       3.614   3.556  18.671  0.00  0.00    +0.000 C 
ENDROOT
BRANCH   1  15
ATOM     15  N   UNL     1       0.748   7.609  21.745  0.00  0.00    +0.000 N 
ATOM     16  H   UNL     1       0.852   8.411  22.356  0.00  0.00    +0.000 HD
ATOM     17  H   UNL     1       0.857   6.711  22.182  0.00  0.00    +0.000 HD
ENDBRANCH   1  15
BRANCH   3  18
ATOM     18  C   UNL     1       1.407  10.760  18.291  0.00  0.00    +0.000 C 
BRANCH  18  19
ATOM     19  N   UNL     1       0.058  11.226  18.659  0.00  0.00    +0.000 N 
ATOM     20  C   UNL     1      -0.075  12.213  19.622  0.00  0.00    +0.000 A 
ATOM     21  C   UNL     1      -1.280  12.625  20.024  0.00  0.00    +0.000 A 
ATOM     22  C   UNL     1      -2.460  12.047  19.440  0.00  0.00    +0.000 A 
ATOM     23  C   UNL     1      -2.382  11.098  18.485  0.00  0.00    +0.000 A 
ATOM     24  C   UNL     1      -1.043  10.632  18.040  0.00  0.00    +0.000 A 
ATOM     25  O   UNL     1      -0.930   9.780  17.161  0.00  0.00    +0.000 OA
BRANCH  23  26
ATOM     26  C   UNL     1      -3.582  10.504  17.849  0.00  0.00    +0.000 C 
ATOM     27  F   UNL     1      -3.684   9.152  17.866  0.00  0.00    +0.000 F 
ATOM     28  F   UNL     1      -4.723  10.975  18.425  0.00  0.00    +0.000 F 
ATOM     29  F   UNL     1      -3.659  10.869  16.537  0.00  0.00    +0.000 F 
ENDBRANCH  23  26
ENDBRANCH  18  19
ENDBRANCH   3  18
TORSDOF 4
ENDMDL
MODEL 4
REMARK VINA RESULT:      -7.5      3.730      7.833
REMARK  Name = 
REMARK  4 active torsions:
REMARK  status: ('A' for Active; 'I' for Inactive)
REMARK    1  A    between atoms: N_1  and  C_2
REMARK    2  A    between atoms: C_4  and  C_5
REMARK    3  A    between atoms: C_5  and  N_6
REMARK    4  A    between atoms: C_10  and  C_11
REMARK                            x       y       z     vdW  Elec       q    Type
REMARK                         _______ _______ _______ _____ _____    ______ ____
ROOT
ATOM      1  C   UNL     1       1.084   8.532  20.641  0.00  0.00    +0.000 A 
ATOM      2  N   UNL     1       0.796   9.807  20.320  0.00  0.00    +0.000 NA
ATOM      3  C   UNL     1       1.186  10.305  19.129  0.00  0.00    +0.000 A 
ATOM      4  N   UNL     1       1.875   9.640  18.200  0.00  0.00    +0.000 NA
ATOM      5  C   UNL     1       2.165   8.378  18.552  0.00  0.00    +0.000 A 
ATOM      6  S   UNL     1       3.010   7.382  17.467  0.00  0.00    +0.000 S 
ATOM      7  C   UNL     1       2.937   6.056  18.528  0.00  0.00    +0.000 A 
ATOM      8  C   UNL     1       2.320   6.369  19.730  0.00  0.00    +0.000 A 
ATOM      9  C   UNL     1       1.827   7.740  19.739  0.00  0.00    +0.000 A 
ATOM     10  C   UNL     1       2.169   5.336  20.808  0.00  0.00    +0.000 C 
ATOM     11  C   UNL     1       1.257   4.187  20.375  0.00  0.00    +0.000 C 
ATOM     12  C   UNL     1       1.960   3.154  19.488  0.00  0.00    +0.000 C 
ATOM     13  C   UNL     1       2.374   3.651  18.098  0.00  0.00    +0.000 C 
ATOM     14  C   UNL     1       3.473   4.718  18.107  0.00  0.00    +0.000 C 
ENDROOT
BRANCH   1  15
ATOM     15  N   UNL     1       0.562   8.119  21.856  0.00  0.00    +0.000 N 
ATOM     16  H   UNL     1       1.284   7.715  22.442  0.00  0.00    +0.000 HD
ATOM     17  H   UNL     1      -0.318   7.635  21.852  0.00  0.00    +0.000 HD
ENDBRANCH   1  15
BRANCH   3  18
ATOM     18  C   UNL     1       0.725  11.710  18.795  0.00  0.00    +0.000 C 
BRANCH  18  19
ATOM     19  N   UNL     1      -0.713  11.921  19.036  0.00  0.00    +0.000 N 
ATOM     20  C   UNL     1      -1.109  12.781  20.048  0.00  0.00    +0.000 A 
ATOM     21  C   UNL     1      -2.401  12.958  20.335  0.00  0.00    +0.000 A 
ATOM     22  C   UNL     1      -3.401  12.257  19.575  0.00  0.00    +0.000 A 
ATOM     23  C   UNL     1      -3.066  11.426  18.568  0.00  0.00    +0.000 A 
ATOM     24  C   UNL     1      -1.629  11.220  18.249  0.00  0.00    +0.000 A 
ATOM     25  O   UNL     1      -1.285  10.482  17.329  0.00  0.00    +0.000 OA
BRANCH  23  26
ATOM     26  C   UNL     1      -4.078  10.711  17.752  0.00  0.00    +0.000 C 
ATOM     27  F   UNL     1      -4.129  11.011  16.430  0.00  0.00    +0.000 F 
ATOM     28  F   UNL     1      -3.900   9.363  17.826  0.00  0.00    +0.000 F 
ATOM     29  F   UNL     1      -5.332  10.940  18.237  0.00  0.00    +0.000 F 
ENDBRANCH  23  26
ENDBRANCH  18  19
ENDBRANCH   3  18
TORSDOF 4
ENDMDL
MODEL 5
REMARK VINA RESULT:      -7.5      3.606      5.385
REMARK  Name = 
REMARK  4 active torsions:
REMARK  status: ('A' for Active; 'I' for Inactive)
REMARK    1  A    between atoms: N_1  and  C_2
REMARK    2  A    between atoms: C_4  and  C_5
REMARK    3  A    between atoms: C_5  and  N_6
REMARK    4  A    between atoms: C_10  and  C_11
REMARK                            x       y       z     vdW  Elec       q    Type
REMARK                         _______ _______ _______ _____ _____    ______ ____
ROOT
ATOM      1  C   UNL     1       1.923   8.704  18.480  0.00  0.00    +0.000 A 
ATOM      2  N   UNL     1       2.412   7.452  18.405  0.00  0.00    +0.000 NA
ATOM      3  C   UNL     1       2.350   6.640  19.480  0.00  0.00    +0.000 A 
ATOM      4  N   UNL     1       1.846   6.971  20.671  0.00  0.00    +0.000 NA
ATOM      5  C   UNL     1       1.383   8.229  20.724  0.00  0.00    +0.000 A 
ATOM      6  S   UNL     1       0.678   8.799  22.160  0.00  0.00    +0.000 S 
ATOM      7  C   UNL     1       0.326  10.309  21.463  0.00  0.00    +0.000 A 
ATOM      8  C   UNL     1       0.784  10.413  20.158  0.00  0.00    +0.000 A 
ATOM      9  C   UNL     1       1.384   9.167  19.699  0.00  0.00    +0.000 A 
ATOM     10  C   UNL     1       0.584  11.675  19.371  0.00  0.00    +0.000 C 
ATOM     11  C   UNL     1      -0.897  11.962  19.118  0.00  0.00    +0.000 C 
ATOM     12  C   UNL     1      -1.607  12.599  20.317  0.00  0.00    +0.000 C 
ATOM     13  C   UNL     1      -1.758  11.700  21.550  0.00  0.00    +0.000 C 
ATOM     14  C   UNL     1      -0.438  11.343  22.240  0.00  0.00    +0.000 C 
ENDROOT
BRANCH   1  15
ATOM     15  N   UNL     1       1.977   9.408  17.288  0.00  0.00    +0.000 N 
ATOM     16  H   UNL     1       2.937   9.551  16.994  0.00  0.00    +0.000 HD
ATOM     17  H   UNL     1       1.364  10.197  17.177  0.00  0.00    +0.000 HD
ENDBRANCH   1  15
BRANCH   3  18
ATOM     18  C   UNL     1       2.815   5.212  19.283  0.00  0.00    +0.000 C 
BRANCH  18  19
ATOM     19  N   UNL     1       4.187   5.115  18.755  0.00  0.00    +0.000 N 
ATOM     20  C   UNL     1       5.249   5.483  19.566  0.00  0.00    +0.000 A 
ATOM     21  C   UNL     1       6.504   5.463  19.108  0.00  0.00    +0.000 A 
ATOM     22  C   UNL     1       6.761   5.041  17.758  0.00  0.00    +0.000 A 
ATOM     23  C   UNL     1       5.764   4.654  16.938  0.00  0.00    +0.000 A 
ATOM     24  C   UNL     1       4.365   4.682  17.440  0.00  0.00    +0.000 A 
ATOM     25  O   UNL     1       3.430   4.323  16.728  0.00  0.00    +0.000 OA
BRANCH  23  26
ATOM     26  C   UNL     1       6.005   4.191  15.550  0.00  0.00    +0.000 C 
ATOM     27  F   UNL     1       5.234   4.734  14.575  0.00  0.00    +0.000 F 
ATOM     28  F   UNL     1       7.296   4.415  15.178  0.00  0.00    +0.000 F 
ATOM     29  F   UNL     1       5.828   2.841  15.458  0.00  0.00    +0.000 F 
ENDBRANCH  23  26
ENDBRANCH  18  19
ENDBRANCH   3  18
TORSDOF 4
ENDMDL
MODEL 6
REMARK VINA RESULT:      -7.4      3.166      4.829
REMARK  Name = 
REMARK  4 active torsions:
REMARK  status: ('A' for Active; 'I' for Inactive)
REMARK    1  A    between atoms: N_1  and  C_2
REMARK    2  A    between atoms: C_4  and  C_5
REMARK    3  A    between atoms: C_5  and  N_6
REMARK    4  A    between atoms: C_10  and  C_11
REMARK                            x       y       z     vdW  Elec       q    Type
REMARK                         _______ _______ _______ _____ _____    ______ ____
ROOT
ATOM      1  C   UNL     1       1.415   8.635  20.638  0.00  0.00    +0.000 A 
ATOM      2  N   UNL     1       2.232   7.922  19.841  0.00  0.00    +0.000 NA
ATOM      3  C   UNL     1       2.168   8.075  18.503  0.00  0.00    +0.000 A 
ATOM      4  N   UNL     1       1.327   8.886  17.856  0.00  0.00    +0.000 NA
ATOM      5  C   UNL     1       0.512   9.570  18.672  0.00  0.00    +0.000 A 
ATOM      6  S   UNL     1      -0.598  10.673  18.011  0.00  0.00    +0.000 S 
ATOM      7  C   UNL     1      -1.160  11.128  19.549  0.00  0.00    +0.000 A 
ATOM      8  C   UNL     1      -0.551  10.416  20.571  0.00  0.00    +0.000 A 
ATOM      9  C   UNL     1       0.470   9.511  20.060  0.00  0.00    +0.000 A 
ATOM     10  C   UNL     1      -0.920  10.661  22.005  0.00  0.00    +0.000 C 
ATOM     11  C   UNL     1      -0.547  12.073  22.457  0.00  0.00    +0.000 C 
ATOM     12  C   UNL     1      -1.556  13.139  22.018  0.00  0.00    +0.000 C 
ATOM     13  C   UNL     1      -1.630  13.396  20.509  0.00  0.00    +0.000 C 
ATOM     14  C   UNL     1      -2.178  12.223  19.691  0.00  0.00    +0.000 C 
ENDROOT
BRANCH   1  15
ATOM     15  N   UNL     1       1.632   8.444  21.993  0.00  0.00    +0.000 N 
ATOM     16  H   UNL     1       0.807   8.687  22.530  0.00  0.00    +0.000 HD
ATOM     17  H   UNL     1       2.509   8.748  22.379  0.00  0.00    +0.000 HD
ENDBRANCH   1  15
BRANCH   3  18
ATOM     18  C   UNL     1       3.197   7.325  17.682  0.00  0.00    +0.000 C 
BRANCH  18  19
ATOM     19  N   UNL     1       3.548   6.012  18.250  0.00  0.00    +0.000 N 
ATOM     20  C   UNL     1       4.766   5.858  18.893  0.00  0.00    +0.000 A 
ATOM     21  C   UNL     1       5.146   4.672  19.373  0.00  0.00    +0.000 A 
ATOM     22  C   UNL     1       4.275   3.536  19.234  0.00  0.00    +0.000 A 
ATOM     23  C   UNL     1       3.072   3.640  18.634  0.00  0.00    +0.000 A 
ATOM     24  C   UNL     1       2.648   4.957  18.092  0.00  0.00    +0.000 A 
ATOM     25  O   UNL     1       1.552   5.095  17.552  0.00  0.00    +0.000 OA
BRANCH  23  26
ATOM     26  C   UNL     1       2.145   2.490  18.500  0.00  0.00    +0.000 C 
ATOM     27  F   UNL     1       0.840   2.713  18.797  0.00  0.00    +0.000 F 
ATOM     28  F   UNL     1       2.164   1.994  17.232  0.00  0.00    +0.000 F 
ATOM     29  F   UNL     1       2.540   1.460  19.302  0.00  0.00    +0.000 F 
ENDBRANCH  23  26
ENDBRANCH  18  19
ENDBRANCH   3  18
TORSDOF 4
ENDMDL
MODEL 7
REMARK VINA RESULT:      -7.3      4.567      8.328
REMARK  Name = 
REMARK  4 active torsions:
REMARK  status: ('A' for Active; 'I' for Inactive)
REMARK    1  A    between atoms: N_1  and  C_2
REMARK    2  A    between atoms: C_4  and  C_5
REMARK    3  A    between atoms: C_5  and  N_6
REMARK    4  A    between atoms: C_10  and  C_11
REMARK                            x       y       z     vdW  Elec       q    Type
REMARK                         _______ _______ _______ _____ _____    ______ ____
ROOT
ATOM      1  C   UNL     1      -0.021   9.227  20.929  0.00  0.00    +0.000 A 
ATOM      2  N   UNL     1      -0.668  10.377  20.665  0.00  0.00    +0.000 NA
ATOM      3  C   UNL     1      -0.425  11.036  19.514  0.00  0.00    +0.000 A 
ATOM      4  N   UNL     1       0.444  10.658  18.575  0.00  0.00    +0.000 NA
ATOM      5  C   UNL     1       1.089   9.520  18.871  0.00  0.00    +0.000 A 
ATOM      6  S   UNL     1       2.208   8.881  17.764  0.00  0.00    +0.000 S 
ATOM      7  C   UNL     1       2.514   7.533  18.754  0.00  0.00    +0.000 A 
ATOM      8  C   UNL     1       1.813   7.580  19.950  0.00  0.00    +0.000 A 
ATOM      9  C   UNL     1       0.937   8.742  20.013  0.00  0.00    +0.000 A 
ATOM     10  C   UNL     1       1.958   6.488  20.970  0.00  0.00    +0.000 C 
ATOM     11  C   UNL     1       1.434   5.149  20.450  0.00  0.00    +0.000 C 
ATOM     12  C   UNL     1       2.424   4.422  19.534  0.00  0.00    +0.000 C 
ATOM     13  C   UNL     1       2.695   5.098  18.185  0.00  0.00    +0.000 C 
ATOM     14  C   UNL     1       3.429   6.439  18.283  0.00  0.00    +0.000 C 
ENDROOT
BRANCH   1  15
ATOM     15  N   UNL     1      -0.416   8.609  22.105  0.00  0.00    +0.000 N 
ATOM     16  H   UNL     1      -0.834   7.704  21.917  0.00  0.00    +0.000 HD
ATOM     17  H   UNL     1      -0.880   9.167  22.800  0.00  0.00    +0.000 HD
ENDBRANCH   1  15
BRANCH   3  18
ATOM     18  C   UNL     1      -1.276  12.259  19.236  0.00  0.00    +0.000 C 
BRANCH  18  19
ATOM     19  N   UNL     1      -2.605  11.930  18.691  0.00  0.00    +0.000 N 
ATOM     20  C   UNL     1      -2.697  11.390  17.417  0.00  0.00    +0.000 A 
ATOM     21  C   UNL     1      -3.883  11.130  16.864  0.00  0.00    +0.000 A 
ATOM     22  C   UNL     1      -5.087  11.399  17.603  0.00  0.00    +0.000 A 
ATOM     23  C   UNL     1      -5.049  11.904  18.853  0.00  0.00    +0.000 A 
ATOM     24  C   UNL     1      -3.730  12.203  19.470  0.00  0.00    +0.000 A 
ATOM     25  O   UNL     1      -3.653  12.650  20.612  0.00  0.00    +0.000 OA
BRANCH  23  26
ATOM     26  C   UNL     1      -6.274  12.168  19.646  0.00  0.00    +0.000 C 
ATOM     27  F   UNL     1      -6.399  11.506  20.824  0.00  0.00    +0.000 F 
ATOM     28  F   UNL     1      -6.387  13.492  19.944  0.00  0.00    +0.000 F 
ATOM     29  F   UNL     1      -7.388  11.860  18.923  0.00  0.00    +0.000 F 
ENDBRANCH  23  26
ENDBRANCH  18  19
ENDBRANCH   3  18
TORSDOF 4
ENDMDL
MODEL 8
REMARK VINA RESULT:      -7.3      3.044      4.598
REMARK  Name = 
REMARK  4 active torsions:
REMARK  status: ('A' for Active; 'I' for Inactive)
REMARK    1  A    between atoms: N_1  and  C_2
REMARK    2  A    between atoms: C_4  and  C_5
REMARK    3  A    between atoms: C_5  and  N_6
REMARK    4  A    between atoms: C_10  and  C_11
REMARK                            x       y       z     vdW  Elec       q    Type
REMARK                         _______ _______ _______ _____ _____    ______ ____
ROOT
ATOM      1  C   UNL     1       1.435   9.066  19.024  0.00  0.00    +0.000 A 
ATOM      2  N   UNL     1       1.996   7.858  19.220  0.00  0.00    +0.000 NA
ATOM      3  C   UNL     1       1.914   7.267  20.430  0.00  0.00    +0.000 A 
ATOM      4  N   UNL     1       1.322   7.787  21.507  0.00  0.00    +0.000 NA
ATOM      5  C   UNL     1       0.788   8.998  21.290  0.00  0.00    +0.000 A 
ATOM      6  S   UNL     1      -0.032   9.786  22.551  0.00  0.00    +0.000 S 
ATOM      7  C   UNL     1      -0.425  11.107  21.554  0.00  0.00    +0.000 A 
ATOM      8  C   UNL     1       0.104  10.988  20.278  0.00  0.00    +0.000 A 
ATOM      9  C   UNL     1       0.799   9.719  20.102  0.00  0.00    +0.000 A 
ATOM     10  C   UNL     1      -0.118  12.059  19.251  0.00  0.00    +0.000 C 
ATOM     11  C   UNL     1      -1.594  12.193  18.875  0.00  0.00    +0.000 C 
ATOM     12  C   UNL     1      -2.409  13.001  19.890  0.00  0.00    +0.000 C 
ATOM     13  C   UNL     1      -2.584  12.349  21.266  0.00  0.00    +0.000 C 
ATOM     14  C   UNL     1      -1.290  12.219  22.076  0.00  0.00    +0.000 C 
ENDROOT
BRANCH   1  15
ATOM     15  N   UNL     1       1.522   9.529  17.722  0.00  0.00    +0.000 N 
ATOM     16  H   UNL     1       0.773   9.152  17.152  0.00  0.00    +0.000 HD
ATOM     17  H   UNL     1       2.428   9.556  17.289  0.00  0.00    +0.000 HD
ENDBRANCH   1  15
BRANCH   3  18
ATOM     18  C   UNL     1       2.468   5.861  20.539  0.00  0.00    +0.000 C 
BRANCH  18  19
ATOM     19  N   UNL     1       2.599   5.185  19.235  0.00  0.00    +0.000 N 
ATOM     20  C   UNL     1       1.531   4.452  18.745  0.00  0.00    +0.000 A 
ATOM     21  C   UNL     1       1.627   3.779  17.595  0.00  0.00    +0.000 A 
ATOM     22  C   UNL     1       2.853   3.826  16.845  0.00  0.00    +0.000 A 
ATOM     23  C   UNL     1       3.913   4.542  17.270  0.00  0.00    +0.000 A 
ATOM     24  C   UNL     1       3.813   5.286  18.553  0.00  0.00    +0.000 A 
ATOM     25  O   UNL     1       4.752   5.963  18.967  0.00  0.00    +0.000 OA
BRANCH  23  26
ATOM     26  C   UNL     1       5.179   4.628  16.503  0.00  0.00    +0.000 C 
ATOM     27  F   UNL     1       5.586   5.864  16.120  0.00  0.00    +0.000 F 
ATOM     28  F   UNL     1       6.214   4.092  17.209  0.00  0.00    +0.000 F 
ATOM     29  F   UNL     1       5.097   3.890  15.359  0.00  0.00    +0.000 F 
ENDBRANCH  23  26
ENDBRANCH  18  19
ENDBRANCH   3  18
TORSDOF 4
ENDMDL
MODEL 9
REMARK VINA RESULT:      -7.2      3.797      4.886
REMARK  Name = 
REMARK  4 active torsions:
REMARK  status: ('A' for Active; 'I' for Inactive)
REMARK    1  A    between atoms: N_1  and  C_2
REMARK    2  A    between atoms: C_4  and  C_5
REMARK    3  A    between atoms: C_5  and  N_6
REMARK    4  A    between atoms: C_10  and  C_11
REMARK                            x       y       z     vdW  Elec       q    Type
REMARK                         _______ _______ _______ _____ _____    ______ ____
ROOT
ATOM      1  C   UNL     1       1.746  10.610  18.510  0.00  0.00    +0.000 A 
ATOM      2  N   UNL     1       2.195   9.565  17.790  0.00  0.00    +0.000 NA
ATOM      3  C   UNL     1       2.034   8.310  18.254  0.00  0.00    +0.000 A 
ATOM      4  N   UNL     1       1.464   7.981  19.415  0.00  0.00    +0.000 NA
ATOM      5  C   UNL     1       1.043   9.041  20.122  0.00  0.00    +0.000 A 
ATOM      6  S   UNL     1       0.264   8.795  21.611  0.00  0.00    +0.000 S 
ATOM      7  C   UNL     1       0.012  10.463  21.826  0.00  0.00    +0.000 A 
ATOM      8  C   UNL     1       0.558  11.221  20.801  0.00  0.00    +0.000 A 
ATOM      9  C   UNL     1       1.144  10.380  19.766  0.00  0.00    +0.000 A 
ATOM     10  C   UNL     1       0.454  12.718  20.814  0.00  0.00    +0.000 C 
ATOM     11  C   UNL     1      -0.995  13.191  20.700  0.00  0.00    +0.000 C 
ATOM     12  C   UNL     1      -1.761  13.130  22.026  0.00  0.00    +0.000 C 
ATOM     13  C   UNL     1      -2.024  11.722  22.572  0.00  0.00    +0.000 C 
ATOM     14  C   UNL     1      -0.766  10.965  23.009  0.00  0.00    +0.000 C 
ENDROOT
BRANCH   1  15
ATOM     15  N   UNL     1       1.903  11.838  17.890  0.00  0.00    +0.000 N 
ATOM     16  H   UNL     1       1.170  11.997  17.207  0.00  0.00    +0.000 HD
ATOM     17  H   UNL     1       2.828  12.110  17.607  0.00  0.00    +0.000 HD
ENDBRANCH   1  15
BRANCH   3  18
ATOM     18  C   UNL     1       2.461   7.184  17.335  0.00  0.00    +0.000 C 
BRANCH  18  19
ATOM     19  N   UNL     1       3.026   6.028  18.054  0.00  0.00    +0.000 N 
ATOM     20  C   UNL     1       4.201   6.188  18.771  0.00  0.00    +0.000 A 
ATOM     21  C   UNL     1       4.775   5.154  19.391  0.00  0.00    +0.000 A 
ATOM     22  C   UNL     1       4.160   3.856  19.328  0.00  0.00    +0.000 A 
ATOM     23  C   UNL     1       3.006   3.655  18.661  0.00  0.00    +0.000 A 
ATOM     24  C   UNL     1       2.367   4.801  17.963  0.00  0.00    +0.000 A 
ATOM     25  O   UNL     1       1.307   4.661  17.356  0.00  0.00    +0.000 OA
BRANCH  23  26
ATOM     26  C   UNL     1       2.338   2.332  18.601  0.00  0.00    +0.000 C 
ATOM     27  F   UNL     1       1.083   2.252  19.109  0.00  0.00    +0.000 F 
ATOM     28  F   UNL     1       2.254   1.886  17.317  0.00  0.00    +0.000 F 
ATOM     29  F   UNL     1       3.072   1.394  19.265  0.00  0.00    +0.000 F 
ENDBRANCH  23  26
ENDBRANCH  18  19
ENDBRANCH   3  18
TORSDOF 4
ENDMDL
