MODEL 1
REMARK VINA RESULT:      -8.7      0.000      0.000
REMARK  Name = 
REMARK  6 active torsions:
REMARK  status: ('A' for Active; 'I' for Inactive)
REMARK    1  A    between atoms: C_1  and  N_2
REMARK    2  A    between atoms: C_3  and  C_5
REMARK    3  A    between atoms: C_9  and  C_10
REMARK    4  A    between atoms: C_10  and  N_11
REMARK    5  A    between atoms: N_11  and  C_12
REMARK    6  A    between atoms: C_14  and  C_15
REMARK                            x       y       z     vdW  Elec       q    Type
REMARK                         _______ _______ _______ _____ _____    ______ ____
ROOT
ATOM      1  N   UNL     1       4.835   3.155  17.437  0.00  0.00    +0.000 N 
ATOM      2  H   UNL     1       5.221   2.226  17.590  0.00  0.00    +0.000 HD
ENDROOT
BRANCH   1   3
ATOM      3  C   UNL     1       5.615   3.865  16.517  0.00  0.00    +0.000 A 
ATOM      4  N   UNL     1       5.652   3.511  15.203  0.00  0.00    +0.000 NA
ATOM      5  C   UNL     1       6.376   4.248  14.304  0.00  0.00    +0.000 A 
ATOM      6  N   UNL     1       7.125   5.344  14.604  0.00  0.00    +0.000 NA
ATOM      7  C   UNL     1       7.065   5.646  15.905  0.00  0.00    +0.000 A 
ATOM      8  N   UNL     1       7.686   6.690  16.528  0.00  0.00    +0.000 N 
ATOM      9  C   UNL     1       7.351   6.633  17.856  0.00  0.00    +0.000 A 
ATOM     10  N   UNL     1       6.563   5.611  18.120  0.00  0.00    +0.000 NA
ATOM     11  C   UNL     1       6.364   4.992  16.902  0.00  0.00    +0.000 A 
ATOM     12  H   UNL     1       8.271   7.376  16.078  0.00  0.00    +0.000 HD
BRANCH   5  13
ATOM     13  C   UNL     1       6.339   3.822  12.828  0.00  0.00    +0.000 C 
ATOM     14  F   UNL     1       7.164   4.546  12.013  0.00  0.00    +0.000 F 
ATOM     15  F   UNL     1       6.702   2.516  12.642  0.00  0.00    +0.000 F 
ATOM     16  F   UNL     1       5.094   3.935  12.272  0.00  0.00    +0.000 F 
ENDBRANCH   5  13
ENDBRANCH   1   3
BRANCH   1  17
ATOM     17  C   UNL     1       3.404   3.216  17.227  0.00  0.00    +0.000 C 
BRANCH  17  22
ATOM     18  C   UNL     1       1.991   5.638  19.837  0.00  0.00    +0.000 A 
ATOM     19  C   UNL     1       1.271   4.762  20.660  0.00  0.00    +0.000 A 
ATOM     20  C   UNL     1       1.302   3.388  20.415  0.00  0.00    +0.000 A 
ATOM     21  C   UNL     1       2.022   2.884  19.330  0.00  0.00    +0.000 A 
ATOM     22  C   UNL     1       2.708   3.748  18.463  0.00  0.00    +0.000 A 
ATOM     23  C   UNL     1       2.706   5.126  18.744  0.00  0.00    +0.000 A 
BRANCH  18  26
ATOM     24  C   UNL     1       1.392   8.962  21.561  0.00  0.00    +0.000 C 
ATOM     25  N   UNL     1       1.481   7.555  21.267  0.00  0.00    +0.000 N 
ATOM     26  C   UNL     1       1.957   7.115  20.046  0.00  0.00    +0.000 C 
ATOM     27  O   UNL     1       2.345   7.874  19.166  0.00  0.00    +0.000 OA
ATOM     28  H   UNL     1       1.331   6.896  22.017  0.00  0.00    +0.000 HD
ENDBRANCH  18  26
ENDBRANCH  17  22
ENDBRANCH   1  17
TORSDOF 5
ENDMDL
MODEL 2
REMARK VINA RESULT:      -8.7      1.057      1.350
REMARK  Name = 
REMARK  6 active torsions:
REMARK  status: ('A' for Active; 'I' for Inactive)
REMARK    1  A    between atoms: C_1  and  N_2
REMARK    2  A    between atoms: C_3  and  C_5
REMARK    3  A    between atoms: C_9  and  C_10
REMARK    4  A    between atoms: C_10  and  N_11
REMARK    5  A    between atoms: N_11  and  C_12
REMARK    6  A    between atoms: C_14  and  C_15
REMARK                            x       y       z     vdW  Elec       q    Type
REMARK                         _______ _______ _______ _____ _____    ______ ____
ROOT
ATOM      1  N   UNL     1       4.732   3.064  17.289  0.00  0.00    +0.000 N 
ATOM      2  H   UNL     1       5.003   2.083  17.311  0.00  0.00    +0.000 HD
ENDROOT
BRANCH   1   3
ATOM      3  C   UNL     1       5.516   3.771  16.371  0.00  0.00    +0.000 A 
ATOM      4  N   UNL     1       5.563   3.411  15.059  0.00  0.00    +0.000 NA
ATOM      5  C   UNL     1       6.292   4.145  14.161  0.00  0.00    +0.000 A 
ATOM      6  N   UNL     1       7.037   5.244  14.461  0.00  0.00    +0.000 NA
ATOM      7  C   UNL     1       6.968   5.551  15.761  0.00  0.00    +0.000 A 
ATOM      8  N   UNL     1       7.583   6.600  16.383  0.00  0.00    +0.000 N 
ATOM      9  C   UNL     1       7.239   6.548  17.709  0.00  0.00    +0.000 A 
ATOM     10  N   UNL     1       6.451   5.526  17.973  0.00  0.00    +0.000 NA
ATOM     11  C   UNL     1       6.262   4.901  16.756  0.00  0.00    +0.000 A 
ATOM     12  H   UNL     1       8.170   7.285  15.934  0.00  0.00    +0.000 HD
BRANCH   5  13
ATOM     13  C   UNL     1       6.265   3.712  12.687  0.00  0.00    +0.000 C 
ATOM     14  F   UNL     1       5.039   3.818  12.092  0.00  0.00    +0.000 F 
ATOM     15  F   UNL     1       7.113   4.445  11.902  0.00  0.00    +0.000 F 
ATOM     16  F   UNL     1       6.642   2.409  12.508  0.00  0.00    +0.000 F 
ENDBRANCH   5  13
ENDBRANCH   1   3
BRANCH   1  17
ATOM     17  C   UNL     1       3.308   3.322  17.229  0.00  0.00    +0.000 C 
BRANCH  17  22
ATOM     18  C   UNL     1       2.214   6.187  19.525  0.00  0.00    +0.000 A 
ATOM     19  C   UNL     1       1.845   5.484  20.680  0.00  0.00    +0.000 A 
ATOM     20  C   UNL     1       2.017   4.100  20.742  0.00  0.00    +0.000 A 
ATOM     21  C   UNL     1       2.526   3.406  19.642  0.00  0.00    +0.000 A 
ATOM     22  C   UNL     1       2.855   4.083  18.458  0.00  0.00    +0.000 A 
ATOM     23  C   UNL     1       2.718   5.482  18.421  0.00  0.00    +0.000 A 
BRANCH  18  26
ATOM     24  C   UNL     1       1.990   9.619  17.927  0.00  0.00    +0.000 C 
ATOM     25  N   UNL     1       2.145   8.203  18.144  0.00  0.00    +0.000 N 
ATOM     26  C   UNL     1       2.016   7.661  19.408  0.00  0.00    +0.000 C 
ATOM     27  O   UNL     1       1.746   8.330  20.399  0.00  0.00    +0.000 OA
ATOM     28  H   UNL     1       2.202   7.597  17.338  0.00  0.00    +0.000 HD
ENDBRANCH  18  26
ENDBRANCH  17  22
ENDBRANCH   1  17
TORSDOF 5
ENDMDL
MODEL 3
REMARK VINA RESULT:      -8.6      2.793      3.579
REMARK  Name = 
REMARK  6 active torsions:
REMARK  status: ('A' for Active; 'I' for Inactive)
REMARK    1  A    between atoms: C_1  and  N_2
REMARK    2  A    between atoms: C_3  and  C_5
REMARK    3  A    between atoms: C_9  and  C_10
REMARK    4  A    between atoms: C_10  and  N_11
REMARK    5  A    between atoms: N_11  and  C_12
REMARK    6  A    between atoms: C_14  and  C_15
REMARK                            x       y       z     vdW  Elec       q    Type
REMARK                         _______ _______ _______ _____ _____    ______ ____
ROOT
ATOM      1  N   UNL     1       4.415   2.944  17.055  0.00  0.00    +0.000 N 
ATOM      2  H   UNL     1       4.537   2.135  16.450  0.00  0.00    +0.000 HD
ENDROOT
BRANCH   1   3
ATOM      3  C   UNL     1       5.483   3.836  16.905  0.00  0.00    +0.000 A 
ATOM      4  N   UNL     1       6.086   4.402  17.987  0.00  0.00    +0.000 NA
ATOM      5  C   UNL     1       7.165   5.230  17.828  0.00  0.00    +0.000 A 
ATOM      6  N   UNL     1       7.715   5.590  16.636  0.00  0.00    +0.000 NA
ATOM      7  C   UNL     1       7.083   5.019  15.605  0.00  0.00    +0.000 A 
ATOM      8  N   UNL     1       7.391   5.159  14.282  0.00  0.00    +0.000 N 
ATOM      9  C   UNL     1       6.499   4.399  13.571  0.00  0.00    +0.000 A 
ATOM     10  N   UNL     1       5.635   3.792  14.357  0.00  0.00    +0.000 NA
ATOM     11  C   UNL     1       5.999   4.161  15.637  0.00  0.00    +0.000 A 
ATOM     12  H   UNL     1       8.147   5.714  13.913  0.00  0.00    +0.000 HD
BRANCH   5  13
ATOM     13  C   UNL     1       7.828   5.799  19.092  0.00  0.00    +0.000 C 
ATOM     14  F   UNL     1       8.346   7.054  18.939  0.00  0.00    +0.000 F 
ATOM     15  F   UNL     1       6.967   5.889  20.151  0.00  0.00    +0.000 F 
ATOM     16  F   UNL     1       8.871   5.032  19.537  0.00  0.00    +0.000 F 
ENDBRANCH   5  13
ENDBRANCH   1   3
BRANCH   1  17
ATOM     17  C   UNL     1       3.095   3.538  17.053  0.00  0.00    +0.000 C 
BRANCH  17  22
ATOM     18  C   UNL     1       2.157   5.884  19.932  0.00  0.00    +0.000 A 
ATOM     19  C   UNL     1       1.899   4.966  20.959  0.00  0.00    +0.000 A 
ATOM     20  C   UNL     1       2.098   3.602  20.743  0.00  0.00    +0.000 A 
ATOM     21  C   UNL     1       2.522   3.143  19.494  0.00  0.00    +0.000 A 
ATOM     22  C   UNL     1       2.736   4.040  18.437  0.00  0.00    +0.000 A 
ATOM     23  C   UNL     1       2.575   5.416  18.677  0.00  0.00    +0.000 A 
BRANCH  18  26
ATOM     24  C   UNL     1       1.264   9.148  21.646  0.00  0.00    +0.000 C 
ATOM     25  N   UNL     1       1.529   7.758  21.371  0.00  0.00    +0.000 N 
ATOM     26  C   UNL     1       1.926   7.347  20.113  0.00  0.00    +0.000 C 
ATOM     27  O   UNL     1       2.094   8.121  19.178  0.00  0.00    +0.000 OA
ATOM     28  H   UNL     1       1.564   7.114  22.148  0.00  0.00    +0.000 HD
ENDBRANCH  18  26
ENDBRANCH  17  22
ENDBRANCH   1  17
TORSDOF 5
ENDMDL
MODEL 4
REMARK VINA RESULT:      -8.4      2.995      3.755
REMARK  Name = 
REMARK  6 active torsions:
REMARK  status: ('A' for Active; 'I' for Inactive)
REMARK    1  A    between atoms: C_1  and  N_2
REMARK    2  A    between atoms: C_3  and  C_5
REMARK    3  A    between atoms: C_9  and  C_10
REMARK    4  A    between atoms: C_10  and  N_11
REMARK    5  A    between atoms: N_11  and  C_12
REMARK    6  A    between atoms: C_14  and  C_15
REMARK                            x       y       z     vdW  Elec       q    Type
REMARK                         _______ _______ _______ _____ _____    ______ ____
ROOT
ATOM      1  N   UNL     1       4.412   2.957  17.100  0.00  0.00    +0.000 N 
ATOM      2  H   UNL     1       4.564   2.112  16.554  0.00  0.00    +0.000 HD
ENDROOT
BRANCH   1   3
ATOM      3  C   UNL     1       5.485   3.842  16.948  0.00  0.00    +0.000 A 
ATOM      4  N   UNL     1       6.091   4.407  18.028  0.00  0.00    +0.000 NA
ATOM      5  C   UNL     1       7.175   5.228  17.868  0.00  0.00    +0.000 A 
ATOM      6  N   UNL     1       7.729   5.581  16.675  0.00  0.00    +0.000 NA
ATOM      7  C   UNL     1       7.094   5.009  15.646  0.00  0.00    +0.000 A 
ATOM      8  N   UNL     1       7.405   5.143  14.322  0.00  0.00    +0.000 N 
ATOM      9  C   UNL     1       6.509   4.386  13.613  0.00  0.00    +0.000 A 
ATOM     10  N   UNL     1       5.640   3.787  14.400  0.00  0.00    +0.000 NA
ATOM     11  C   UNL     1       6.005   4.158  15.680  0.00  0.00    +0.000 A 
ATOM     12  H   UNL     1       8.165   5.691  13.952  0.00  0.00    +0.000 HD
BRANCH   5  13
ATOM     13  C   UNL     1       7.841   5.797  19.130  0.00  0.00    +0.000 C 
ATOM     14  F   UNL     1       7.003   5.915  20.204  0.00  0.00    +0.000 F 
ATOM     15  F   UNL     1       8.888   5.034  19.570  0.00  0.00    +0.000 F 
ATOM     16  F   UNL     1       8.361   7.049  18.940  0.00  0.00    +0.000 F 
ENDBRANCH   5  13
ENDBRANCH   1   3
BRANCH   1  17
ATOM     17  C   UNL     1       3.093   3.546  16.995  0.00  0.00    +0.000 C 
BRANCH  17  22
ATOM     18  C   UNL     1       2.170   6.350  19.436  0.00  0.00    +0.000 A 
ATOM     19  C   UNL     1       1.897   5.619  20.600  0.00  0.00    +0.000 A 
ATOM     20  C   UNL     1       2.081   4.235  20.616  0.00  0.00    +0.000 A 
ATOM     21  C   UNL     1       2.504   3.569  19.464  0.00  0.00    +0.000 A 
ATOM     22  C   UNL     1       2.734   4.276  18.274  0.00  0.00    +0.000 A 
ATOM     23  C   UNL     1       2.588   5.674  18.280  0.00  0.00    +0.000 A 
BRANCH  18  26
ATOM     24  C   UNL     1       2.045   9.853  17.989  0.00  0.00    +0.000 C 
ATOM     25  N   UNL     1       2.205   8.430  18.153  0.00  0.00    +0.000 N 
ATOM     26  C   UNL     1       1.955   7.825  19.369  0.00  0.00    +0.000 C 
ATOM     27  O   UNL     1       1.570   8.440  20.357  0.00  0.00    +0.000 OA
ATOM     28  H   UNL     1       2.358   7.866  17.330  0.00  0.00    +0.000 HD
ENDBRANCH  18  26
ENDBRANCH  17  22
ENDBRANCH   1  17
TORSDOF 5
ENDMDL
MODEL 5
REMARK VINA RESULT:      -8.3      1.287      1.383
REMARK  Name = 
REMARK  6 active torsions:
REMARK  status: ('A' for Active; 'I' for Inactive)
REMARK    1  A    between atoms: C_1  and  N_2
REMARK    2  A    between atoms: C_3  and  C_5
REMARK    3  A    between atoms: C_9  and  C_10
REMARK    4  A    between atoms: C_10  and  N_11
REMARK    5  A    between atoms: N_11  and  C_12
REMARK    6  A    between atoms: C_14  and  C_15
REMARK                            x       y       z     vdW  Elec       q    Type
REMARK                         _______ _______ _______ _____ _____    ______ ____
ROOT
ATOM      1  N   UNL     1       5.740   3.591  18.662  0.00  0.00    +0.000 N 
ATOM      2  H   UNL     1       6.461   2.981  19.042  0.00  0.00    +0.000 HD
ENDROOT
BRANCH   1   3
ATOM      3  C   UNL     1       6.224   4.292  17.552  0.00  0.00    +0.000 A 
ATOM      4  N   UNL     1       6.017   3.836  16.285  0.00  0.00    +0.000 NA
ATOM      5  C   UNL     1       6.449   4.559  15.206  0.00  0.00    +0.000 A 
ATOM      6  N   UNL     1       7.122   5.741  15.266  0.00  0.00    +0.000 NA
ATOM      7  C   UNL     1       7.309   6.142  16.528  0.00  0.00    +0.000 A 
ATOM      8  N   UNL     1       7.933   7.287  16.934  0.00  0.00    +0.000 N 
ATOM      9  C   UNL     1       7.898   7.308  18.304  0.00  0.00    +0.000 A 
ATOM     10  N   UNL     1       7.299   6.244  18.797  0.00  0.00    +0.000 NA
ATOM     11  C   UNL     1       6.913   5.511  17.692  0.00  0.00    +0.000 A 
ATOM     12  H   UNL     1       8.331   7.985  16.326  0.00  0.00    +0.000 HD
BRANCH   5  13
ATOM     13  C   UNL     1       6.143   4.012  13.803  0.00  0.00    +0.000 C 
ATOM     14  F   UNL     1       6.985   4.467  12.826  0.00  0.00    +0.000 F 
ATOM     15  F   UNL     1       6.215   2.648  13.737  0.00  0.00    +0.000 F 
ATOM     16  F   UNL     1       4.884   4.330  13.370  0.00  0.00    +0.000 F 
ENDBRANCH   5  13
ENDBRANCH   1   3
BRANCH   1  17
ATOM     17  C   UNL     1       4.429   2.997  18.507  0.00  0.00    +0.000 C 
BRANCH  17  22
ATOM     18  C   UNL     1       2.257   5.840  19.876  0.00  0.00    +0.000 A 
ATOM     19  C   UNL     1       1.385   5.136  20.717  0.00  0.00    +0.000 A 
ATOM     20  C   UNL     1       1.544   3.761  20.896  0.00  0.00    +0.000 A 
ATOM     21  C   UNL     1       2.551   3.075  20.213  0.00  0.00    +0.000 A 
ATOM     22  C   UNL     1       3.403   3.752  19.328  0.00  0.00    +0.000 A 
ATOM     23  C   UNL     1       3.263   5.144  19.188  0.00  0.00    +0.000 A 
BRANCH  18  26
ATOM     24  C   UNL     1       2.159   9.133  17.997  0.00  0.00    +0.000 C 
ATOM     25  N   UNL     1       2.272   7.736  18.333  0.00  0.00    +0.000 N 
ATOM     26  C   UNL     1       2.100   7.304  19.634  0.00  0.00    +0.000 C 
ATOM     27  O   UNL     1       1.825   8.059  20.560  0.00  0.00    +0.000 OA
ATOM     28  H   UNL     1       2.332   7.065  17.582  0.00  0.00    +0.000 HD
ENDBRANCH  18  26
ENDBRANCH  17  22
ENDBRANCH   1  17
TORSDOF 5
ENDMDL
MODEL 6
REMARK VINA RESULT:      -8.2      0.699      1.020
REMARK  Name = 
REMARK  6 active torsions:
REMARK  status: ('A' for Active; 'I' for Inactive)
REMARK    1  A    between atoms: C_1  and  N_2
REMARK    2  A    between atoms: C_3  and  C_5
REMARK    3  A    between atoms: C_9  and  C_10
REMARK    4  A    between atoms: C_10  and  N_11
REMARK    5  A    between atoms: N_11  and  C_12
REMARK    6  A    between atoms: C_14  and  C_15
REMARK                            x       y       z     vdW  Elec       q    Type
REMARK                         _______ _______ _______ _____ _____    ______ ____
ROOT
ATOM      1  N   UNL     1       3.906   3.887  16.620  0.00  0.00    +0.000 N 
ATOM      2  H   UNL     1       3.272   4.672  16.750  0.00  0.00    +0.000 HD
ENDROOT
BRANCH   1   3
ATOM      3  C   UNL     1       5.031   4.278  15.885  0.00  0.00    +0.000 A 
ATOM      4  N   UNL     1       5.239   3.822  14.619  0.00  0.00    +0.000 NA
ATOM      5  C   UNL     1       6.315   4.256  13.891  0.00  0.00    +0.000 A 
ATOM      6  N   UNL     1       7.268   5.123  14.331  0.00  0.00    +0.000 NA
ATOM      7  C   UNL     1       7.026   5.534  15.581  0.00  0.00    +0.000 A 
ATOM      8  N   UNL     1       7.776   6.413  16.309  0.00  0.00    +0.000 N 
ATOM      9  C   UNL     1       7.169   6.557  17.529  0.00  0.00    +0.000 A 
ATOM     10  N   UNL     1       6.084   5.817  17.629  0.00  0.00    +0.000 NA
ATOM     11  C   UNL     1       5.975   5.181  16.408  0.00  0.00    +0.000 A 
ATOM     12  H   UNL     1       8.614   6.872  15.989  0.00  0.00    +0.000 HD
BRANCH   5  13
ATOM     13  C   UNL     1       6.467   3.739  12.452  0.00  0.00    +0.000 C 
ATOM     14  F   UNL     1       6.947   2.463  12.361  0.00  0.00    +0.000 F 
ATOM     15  F   UNL     1       5.286   3.733  11.762  0.00  0.00    +0.000 F 
ATOM     16  F   UNL     1       7.321   4.500  11.701  0.00  0.00    +0.000 F 
ENDBRANCH   5  13
ENDBRANCH   1   3
BRANCH   1  17
ATOM     17  C   UNL     1       4.173   3.091  17.801  0.00  0.00    +0.000 C 
BRANCH  17  22
ATOM     18  C   UNL     1       2.401   5.563  20.130  0.00  0.00    +0.000 A 
ATOM     19  C   UNL     1       1.949   4.707  21.143  0.00  0.00    +0.000 A 
ATOM     20  C   UNL     1       2.277   3.351  21.110  0.00  0.00    +0.000 A 
ATOM     21  C   UNL     1       3.028   2.835  20.052  0.00  0.00    +0.000 A 
ATOM     22  C   UNL     1       3.448   3.665  19.002  0.00  0.00    +0.000 A 
ATOM     23  C   UNL     1       3.150   5.037  19.066  0.00  0.00    +0.000 A 
BRANCH  18  26
ATOM     24  C   UNL     1       1.144   8.921  21.366  0.00  0.00    +0.000 C 
ATOM     25  N   UNL     1       1.534   7.536  21.284  0.00  0.00    +0.000 N 
ATOM     26  C   UNL     1       2.045   7.012  20.113  0.00  0.00    +0.000 C 
ATOM     27  O   UNL     1       2.215   7.679  19.098  0.00  0.00    +0.000 OA
ATOM     28  H   UNL     1       1.568   6.996  22.136  0.00  0.00    +0.000 HD
ENDBRANCH  18  26
ENDBRANCH  17  22
ENDBRANCH   1  17
TORSDOF 5
ENDMDL
MODEL 7
REMARK VINA RESULT:      -8.0      3.265      5.223
REMARK  Name = 
REMARK  6 active torsions:
REMARK  status: ('A' for Active; 'I' for Inactive)
REMARK    1  A    between atoms: C_1  and  N_2
REMARK    2  A    between atoms: C_3  and  C_5
REMARK    3  A    between atoms: C_9  and  C_10
REMARK    4  A    between atoms: C_10  and  N_11
REMARK    5  A    between atoms: N_11  and  C_12
REMARK    6  A    between atoms: C_14  and  C_15
REMARK                            x       y       z     vdW  Elec       q    Type
REMARK                         _______ _______ _______ _____ _____    ______ ____
ROOT
ATOM      1  N   UNL     1       2.438   6.311  18.896  0.00  0.00    +0.000 N 
ATOM      2  H   UNL     1       2.263   6.935  18.111  0.00  0.00    +0.000 HD
ENDROOT
BRANCH   1   3
ATOM      3  C   UNL     1       3.689   5.697  18.767  0.00  0.00    +0.000 A 
ATOM      4  N   UNL     1       4.754   6.370  18.251  0.00  0.00    +0.000 NA
ATOM      5  C   UNL     1       5.986   5.776  18.182  0.00  0.00    +0.000 A 
ATOM      6  N   UNL     1       6.271   4.503  18.573  0.00  0.00    +0.000 NA
ATOM      7  C   UNL     1       5.193   3.881  19.062  0.00  0.00    +0.000 A 
ATOM      8  N   UNL     1       5.141   2.607  19.552  0.00  0.00    +0.000 N 
ATOM      9  C   UNL     1       3.851   2.376  19.954  0.00  0.00    +0.000 A 
ATOM     10  N   UNL     1       3.075   3.419  19.741  0.00  0.00    +0.000 NA
ATOM     11  C   UNL     1       3.908   4.375  19.195  0.00  0.00    +0.000 A 
ATOM     12  H   UNL     1       5.920   1.970  19.612  0.00  0.00    +0.000 HD
BRANCH   5  13
ATOM     13  C   UNL     1       7.156   6.606  17.632  0.00  0.00    +0.000 C 
ATOM     14  F   UNL     1       7.664   6.146  16.449  0.00  0.00    +0.000 F 
ATOM     15  F   UNL     1       6.820   7.911  17.400  0.00  0.00    +0.000 F 
ATOM     16  F   UNL     1       8.224   6.653  18.487  0.00  0.00    +0.000 F 
ENDBRANCH   5  13
ENDBRANCH   1   3
BRANCH   1  17
ATOM     17  C   UNL     1       2.132   6.846  20.207  0.00  0.00    +0.000 C 
BRANCH  17  22
ATOM     18  C   UNL     1       0.244  10.057  21.100  0.00  0.00    +0.000 A 
ATOM     19  C   UNL     1       0.401  10.802  19.923  0.00  0.00    +0.000 A 
ATOM     20  C   UNL     1       1.050  10.241  18.822  0.00  0.00    +0.000 A 
ATOM     21  C   UNL     1       1.575   8.949  18.899  0.00  0.00    +0.000 A 
ATOM     22  C   UNL     1       1.474   8.205  20.084  0.00  0.00    +0.000 A 
ATOM     23  C   UNL     1       0.781   8.762  21.173  0.00  0.00    +0.000 A 
BRANCH  18  26
ATOM     24  C   UNL     1      -2.083  12.205  23.186  0.00  0.00    +0.000 C 
ATOM     25  N   UNL     1      -1.398  11.577  22.085  0.00  0.00    +0.000 N 
ATOM     26  C   UNL     1      -0.415  10.632  22.309  0.00  0.00    +0.000 C 
ATOM     27  O   UNL     1      -0.085  10.261  23.429  0.00  0.00    +0.000 OA
ATOM     28  H   UNL     1      -1.750  11.728  21.151  0.00  0.00    +0.000 HD
ENDBRANCH  18  26
ENDBRANCH  17  22
ENDBRANCH   1  17
TORSDOF 5
ENDMDL
MODEL 8
REMARK VINA RESULT:      -8.0      4.628      6.197
REMARK  Name = 
REMARK  6 active torsions:
REMARK  status: ('A' for Active; 'I' for Inactive)
REMARK    1  A    between atoms: C_1  and  N_2
REMARK    2  A    between atoms: C_3  and  C_5
REMARK    3  A    between atoms: C_9  and  C_10
REMARK    4  A    between atoms: C_10  and  N_11
REMARK    5  A    between atoms: N_11  and  C_12
REMARK    6  A    between atoms: C_14  and  C_15
REMARK                            x       y       z     vdW  Elec       q    Type
REMARK                         _______ _______ _______ _____ _____    ______ ____
ROOT
ATOM      1  N   UNL     1       2.524   6.947  17.599  0.00  0.00    +0.000 N 
ATOM      2  H   UNL     1       2.645   6.808  16.598  0.00  0.00    +0.000 HD
ENDROOT
BRANCH   1   3
ATOM      3  C   UNL     1       3.047   5.863  18.313  0.00  0.00    +0.000 A 
ATOM      4  N   UNL     1       2.295   5.195  19.231  0.00  0.00    +0.000 NA
ATOM      5  C   UNL     1       2.801   4.102  19.883  0.00  0.00    +0.000 A 
ATOM      6  N   UNL     1       4.055   3.598  19.722  0.00  0.00    +0.000 NA
ATOM      7  C   UNL     1       4.757   4.292  18.819  0.00  0.00    +0.000 A 
ATOM      8  N   UNL     1       6.037   4.040  18.415  0.00  0.00    +0.000 N 
ATOM      9  C   UNL     1       6.362   4.984  17.476  0.00  0.00    +0.000 A 
ATOM     10  N   UNL     1       5.374   5.828  17.264  0.00  0.00    +0.000 NA
ATOM     11  C   UNL     1       4.355   5.396  18.091  0.00  0.00    +0.000 A 
ATOM     12  H   UNL     1       6.618   3.287  18.746  0.00  0.00    +0.000 HD
BRANCH   5  13
ATOM     13  C   UNL     1       1.885   3.366  20.873  0.00  0.00    +0.000 C 
ATOM     14  F   UNL     1       2.271   3.470  22.180  0.00  0.00    +0.000 F 
ATOM     15  F   UNL     1       0.594   3.816  20.840  0.00  0.00    +0.000 F 
ATOM     16  F   UNL     1       1.806   2.022  20.627  0.00  0.00    +0.000 F 
ENDBRANCH   5  13
ENDBRANCH   1   3
BRANCH   1  17
ATOM     17  C   UNL     1       2.878   8.259  18.100  0.00  0.00    +0.000 C 
BRANCH  17  22
ATOM     18  C   UNL     1      -0.376  10.211  18.623  0.00  0.00    +0.000 A 
ATOM     19  C   UNL     1      -0.622   9.972  19.981  0.00  0.00    +0.000 A 
ATOM     20  C   UNL     1       0.296   9.244  20.740  0.00  0.00    +0.000 A 
ATOM     21  C   UNL     1       1.446   8.724  20.143  0.00  0.00    +0.000 A 
ATOM     22  C   UNL     1       1.687   8.909  18.773  0.00  0.00    +0.000 A 
ATOM     23  C   UNL     1       0.778   9.679  18.027  0.00  0.00    +0.000 A 
BRANCH  18  26
ATOM     24  C   UNL     1      -2.803  10.910  15.794  0.00  0.00    +0.000 C 
ATOM     25  N   UNL     1      -1.870  10.273  16.689  0.00  0.00    +0.000 N 
ATOM     26  C   UNL     1      -1.347  10.956  17.770  0.00  0.00    +0.000 C 
ATOM     27  O   UNL     1      -1.653  12.111  18.044  0.00  0.00    +0.000 OA
ATOM     28  H   UNL     1      -1.719   9.280  16.599  0.00  0.00    +0.000 HD
ENDBRANCH  18  26
ENDBRANCH  17  22
ENDBRANCH   1  17
TORSDOF 5
ENDMDL
MODEL 9
REMARK VINA RESULT:      -8.0      3.914      5.544
REMARK  Name = 
REMARK  6 active torsions:
REMARK  status: ('A' for Active; 'I' for Inactive)
REMARK    1  A    between atoms: C_1  and  N_2
REMARK    2  A    between atoms: C_3  and  C_5
REMARK    3  A    between atoms: C_9  and  C_10
REMARK    4  A    between atoms: C_10  and  N_11
REMARK    5  A    between atoms: N_11  and  C_12
REMARK    6  A    between atoms: C_14  and  C_15
REMARK                            x       y       z     vdW  Elec       q    Type
REMARK                         _______ _______ _______ _____ _____    ______ ____
ROOT
ATOM      1  N   UNL     1       2.383   6.458  18.082  0.00  0.00    +0.000 N 
ATOM      2  H   UNL     1       1.728   6.161  17.362  0.00  0.00    +0.000 HD
ENDROOT
BRANCH   1   3
ATOM      3  C   UNL     1       3.458   5.565  18.167  0.00  0.00    +0.000 A 
ATOM      4  N   UNL     1       4.731   6.010  18.355  0.00  0.00    +0.000 NA
ATOM      5  C   UNL     1       5.765   5.123  18.491  0.00  0.00    +0.000 A 
ATOM      6  N   UNL     1       5.655   3.767  18.430  0.00  0.00    +0.000 NA
ATOM      7  C   UNL     1       4.390   3.380  18.233  0.00  0.00    +0.000 A 
ATOM      8  N   UNL     1       3.938   2.095  18.140  0.00  0.00    +0.000 N 
ATOM      9  C   UNL     1       2.582   2.152  17.947  0.00  0.00    +0.000 A 
ATOM     10  N   UNL     1       2.143   3.392  17.902  0.00  0.00    +0.000 NA
ATOM     11  C   UNL     1       3.266   4.173  18.095  0.00  0.00    +0.000 A 
ATOM     12  H   UNL     1       4.507   1.267  18.213  0.00  0.00    +0.000 HD
BRANCH   5  13
ATOM     13  C   UNL     1       7.170   5.689  18.748  0.00  0.00    +0.000 C 
ATOM     14  F   UNL     1       7.358   6.960  18.283  0.00  0.00    +0.000 F 
ATOM     15  F   UNL     1       7.489   5.739  20.077  0.00  0.00    +0.000 F 
ATOM     16  F   UNL     1       8.159   4.942  18.167  0.00  0.00    +0.000 F 
ENDBRANCH   5  13
ENDBRANCH   1   3
BRANCH   1  17
ATOM     17  C   UNL     1       2.734   7.863  18.075  0.00  0.00    +0.000 C 
BRANCH  17  22
ATOM     18  C   UNL     1      -0.279  10.161  18.638  0.00  0.00    +0.000 A 
ATOM     19  C   UNL     1      -0.443  10.061  20.026  0.00  0.00    +0.000 A 
ATOM     20  C   UNL     1       0.460   9.313  20.784  0.00  0.00    +0.000 A 
ATOM     21  C   UNL     1       1.509   8.634  20.160  0.00  0.00    +0.000 A 
ATOM     22  C   UNL     1       1.661   8.680  18.766  0.00  0.00    +0.000 A 
ATOM     23  C   UNL     1       0.773   9.471  18.016  0.00  0.00    +0.000 A 
BRANCH  18  26
ATOM     24  C   UNL     1      -2.743  10.888  15.847  0.00  0.00    +0.000 C 
ATOM     25  N   UNL     1      -1.814  10.237  16.736  0.00  0.00    +0.000 N 
ATOM     26  C   UNL     1      -1.241  10.924  17.789  0.00  0.00    +0.000 C 
ATOM     27  O   UNL     1      -1.494  12.096  18.041  0.00  0.00    +0.000 OA
ATOM     28  H   UNL     1      -1.705   9.236  16.667  0.00  0.00    +0.000 HD
ENDBRANCH  18  26
ENDBRANCH  17  22
ENDBRANCH   1  17
TORSDOF 5
ENDMDL
