MODEL 1
REMARK VINA RESULT:      -8.2      0.000      0.000
REMARK  Name = 
REMARK  6 active torsions:
REMARK  status: ('A' for Active; 'I' for Inactive)
REMARK    1  A    between atoms: N_6  and  C_7
REMARK    2  A    between atoms: C_7  and  C_8
REMARK    3  A    between atoms: C_13  and  N_14
REMARK    4  A    between atoms: N_14  and  C_15
REMARK    5  A    between atoms: C_15  and  C_16
REMARK    6  A    between atoms: C_19  and  C_20
REMARK                            x       y       z     vdW  Elec       q    Type
REMARK                         _______ _______ _______ _____ _____    ______ ____
ROOT
ATOM      1  N   UNL     1       2.538   7.093  18.245  0.00  0.00    +0.000 N 
ATOM      2  H   UNL     1       1.598   6.811  18.522  0.00  0.00    +0.000 HD
ENDROOT
BRANCH   1   8
ATOM      3  C   UNL     1       2.874   4.664  17.679  0.00  0.00    +0.000 A 
ATOM      4  C   UNL     1       3.724   3.716  17.053  0.00  0.00    +0.000 A 
ATOM      5  C   UNL     1       4.931   4.082  16.468  0.00  0.00    +0.000 A 
ATOM      6  C   UNL     1       5.304   5.413  16.471  0.00  0.00    +0.000 A 
ATOM      7  C   UNL     1       4.475   6.363  17.072  0.00  0.00    +0.000 A 
ATOM      8  C   UNL     1       3.267   6.018  17.728  0.00  0.00    +0.000 A 
BRANCH   3   9
ATOM      9  C   UNL     1       1.631   4.079  18.320  0.00  0.00    +0.000 C 
BRANCH   9  15
ATOM     10  O   UNL     1       1.639   5.726  20.808  0.00  0.00    +0.000 OA
ATOM     11  C   UNL     1       1.830   4.524  20.797  0.00  0.00    +0.000 C 
ATOM     12  N   UNL     1       2.121   3.753  21.921  0.00  0.00    +0.000 N 
ATOM     13  C   UNL     1       2.579   2.453  21.510  0.00  0.00    +0.000 C 
ATOM     14  C   UNL     1       1.948   2.298  20.139  0.00  0.00    +0.000 C 
ATOM     15  N   UNL     1       1.877   3.677  19.696  0.00  0.00    +0.000 N 
ATOM     16  H   UNL     1       2.384   4.224  22.776  0.00  0.00    +0.000 HD
ENDBRANCH   9  15
ENDBRANCH   3   9
ENDBRANCH   1   8
BRANCH   1  17
ATOM     17  C   UNL     1       2.456   8.398  17.574  0.00  0.00    +0.000 C 
BRANCH  17  18
ATOM     18  C   UNL     1       1.840   9.502  18.384  0.00  0.00    +0.000 A 
ATOM     19  N   UNL     1       2.050  10.803  18.134  0.00  0.00    +0.000 NA
ATOM     20  O   UNL     1       1.272  11.434  19.115  0.00  0.00    +0.000 OA
ATOM     21  C   UNL     1       0.670  10.444  19.840  0.00  0.00    +0.000 A 
ATOM     22  N   UNL     1       0.991   9.239  19.424  0.00  0.00    +0.000 NA
BRANCH  21  23
ATOM     23  C   UNL     1      -0.219  10.819  20.927  0.00  0.00    +0.000 A 
ATOM     24  C   UNL     1      -1.126  11.879  20.735  0.00  0.00    +0.000 A 
ATOM     25  C   UNL     1      -1.986  12.279  21.762  0.00  0.00    +0.000 A 
ATOM     26  C   UNL     1      -1.943  11.618  22.984  0.00  0.00    +0.000 A 
ATOM     27  F   UNL     1      -2.763  12.004  23.969  0.00  0.00    +0.000 F 
ATOM     28  C   UNL     1      -1.063  10.569  23.199  0.00  0.00    +0.000 A 
ATOM     29  C   UNL     1      -0.208  10.175  22.172  0.00  0.00    +0.000 A 
ATOM     30  F   UNL     1       0.630   9.159  22.410  0.00  0.00    +0.000 F 
ENDBRANCH  21  23
ENDBRANCH  17  18
ENDBRANCH   1  17
TORSDOF 6
ENDMDL
MODEL 2
REMARK VINA RESULT:      -8.0      2.792      4.391
REMARK  Name = 
REMARK  6 active torsions:
REMARK  status: ('A' for Active; 'I' for Inactive)
REMARK    1  A    between atoms: N_6  and  C_7
REMARK    2  A    between atoms: C_7  and  C_8
REMARK    3  A    between atoms: C_13  and  N_14
REMARK    4  A    between atoms: N_14  and  C_15
REMARK    5  A    between atoms: C_15  and  C_16
REMARK    6  A    between atoms: C_19  and  C_20
REMARK                            x       y       z     vdW  Elec       q    Type
REMARK                         _______ _______ _______ _____ _____    ______ ____
ROOT
ATOM      1  N   UNL     1       3.208   5.978  19.543  0.00  0.00    +0.000 N 
ATOM      2  H   UNL     1       3.943   5.957  20.250  0.00  0.00    +0.000 HD
ENDROOT
BRANCH   1   8
ATOM      3  C   UNL     1       3.897   3.805  18.479  0.00  0.00    +0.000 A 
ATOM      4  C   UNL     1       3.464   2.522  18.054  0.00  0.00    +0.000 A 
ATOM      5  C   UNL     1       2.140   2.116  18.171  0.00  0.00    +0.000 A 
ATOM      6  C   UNL     1       1.220   2.975  18.743  0.00  0.00    +0.000 A 
ATOM      7  C   UNL     1       1.629   4.237  19.177  0.00  0.00    +0.000 A 
ATOM      8  C   UNL     1       2.956   4.706  19.022  0.00  0.00    +0.000 A 
BRANCH   3   9
ATOM      9  C   UNL     1       5.360   4.103  18.217  0.00  0.00    +0.000 C 
BRANCH   9  15
ATOM     10  O   UNL     1       5.289   6.946  17.318  0.00  0.00    +0.000 OA
ATOM     11  C   UNL     1       5.537   6.014  16.577  0.00  0.00    +0.000 C 
ATOM     12  N   UNL     1       5.777   6.125  15.209  0.00  0.00    +0.000 N 
ATOM     13  C   UNL     1       5.732   4.822  14.602  0.00  0.00    +0.000 C 
ATOM     14  C   UNL     1       6.077   3.906  15.762  0.00  0.00    +0.000 C 
ATOM     15  N   UNL     1       5.563   4.659  16.889  0.00  0.00    +0.000 N 
ATOM     16  H   UNL     1       5.548   6.995  14.746  0.00  0.00    +0.000 HD
ENDBRANCH   9  15
ENDBRANCH   3   9
ENDBRANCH   1   8
BRANCH   1  17
ATOM     17  C   UNL     1       2.140   6.875  20.009  0.00  0.00    +0.000 C 
BRANCH  17  18
ATOM     18  C   UNL     1       1.953   8.128  19.203  0.00  0.00    +0.000 A 
ATOM     19  N   UNL     1       2.324   8.240  17.919  0.00  0.00    +0.000 NA
ATOM     20  O   UNL     1       1.940   9.551  17.601  0.00  0.00    +0.000 OA
ATOM     21  C   UNL     1       1.369  10.080  18.725  0.00  0.00    +0.000 A 
ATOM     22  N   UNL     1       1.355   9.238  19.735  0.00  0.00    +0.000 NA
BRANCH  21  23
ATOM     23  C   UNL     1       0.860  11.440  18.673  0.00  0.00    +0.000 A 
ATOM     24  C   UNL     1       1.772  12.510  18.595  0.00  0.00    +0.000 A 
ATOM     25  C   UNL     1       1.322  13.833  18.558  0.00  0.00    +0.000 A 
ATOM     26  C   UNL     1      -0.044  14.089  18.600  0.00  0.00    +0.000 A 
ATOM     27  F   UNL     1      -0.475  15.356  18.570  0.00  0.00    +0.000 F 
ATOM     28  C   UNL     1      -0.964  13.055  18.672  0.00  0.00    +0.000 A 
ATOM     29  C   UNL     1      -0.509  11.739  18.709  0.00  0.00    +0.000 A 
ATOM     30  F   UNL     1      -1.422  10.763  18.780  0.00  0.00    +0.000 F 
ENDBRANCH  21  23
ENDBRANCH  17  18
ENDBRANCH   1  17
TORSDOF 6
ENDMDL
MODEL 3
REMARK VINA RESULT:      -8.0      2.140      3.685
REMARK  Name = 
REMARK  6 active torsions:
REMARK  status: ('A' for Active; 'I' for Inactive)
REMARK    1  A    between atoms: N_6  and  C_7
REMARK    2  A    between atoms: C_7  and  C_8
REMARK    3  A    between atoms: C_13  and  N_14
REMARK    4  A    between atoms: N_14  and  C_15
REMARK    5  A    between atoms: C_15  and  C_16
REMARK    6  A    between atoms: C_19  and  C_20
REMARK                            x       y       z     vdW  Elec       q    Type
REMARK                         _______ _______ _______ _____ _____    ______ ____
ROOT
ATOM      1  N   UNL     1       2.494   6.097  18.394  0.00  0.00    +0.000 N 
ATOM      2  H   UNL     1       2.999   6.638  17.692  0.00  0.00    +0.000 HD
ENDROOT
BRANCH   1   8
ATOM      3  C   UNL     1       3.980   4.069  18.278  0.00  0.00    +0.000 A 
ATOM      4  C   UNL     1       4.022   2.654  18.190  0.00  0.00    +0.000 A 
ATOM      5  C   UNL     1       2.865   1.888  18.098  0.00  0.00    +0.000 A 
ATOM      6  C   UNL     1       1.635   2.519  18.122  0.00  0.00    +0.000 A 
ATOM      7  C   UNL     1       1.574   3.910  18.221  0.00  0.00    +0.000 A 
ATOM      8  C   UNL     1       2.731   4.726  18.258  0.00  0.00    +0.000 A 
BRANCH   3   9
ATOM      9  C   UNL     1       5.336   4.746  18.306  0.00  0.00    +0.000 C 
BRANCH   9  15
ATOM     10  O   UNL     1       4.618   6.910  16.381  0.00  0.00    +0.000 OA
ATOM     11  C   UNL     1       5.455   6.057  16.151  0.00  0.00    +0.000 C 
ATOM     12  N   UNL     1       6.162   5.935  14.956  0.00  0.00    +0.000 N 
ATOM     13  C   UNL     1       6.829   4.662  14.917  0.00  0.00    +0.000 C 
ATOM     14  C   UNL     1       6.988   4.326  16.388  0.00  0.00    +0.000 C 
ATOM     15  N   UNL     1       5.836   4.995  16.963  0.00  0.00    +0.000 N 
ATOM     16  H   UNL     1       5.842   6.454  14.149  0.00  0.00    +0.000 HD
ENDBRANCH   9  15
ENDBRANCH   3   9
ENDBRANCH   1   8
BRANCH   1  17
ATOM     17  C   UNL     1       2.591   6.799  19.682  0.00  0.00    +0.000 C 
BRANCH  17  18
ATOM     18  C   UNL     1       1.868   8.112  19.757  0.00  0.00    +0.000 A 
ATOM     19  N   UNL     1       1.642   8.890  18.689  0.00  0.00    +0.000 NA
ATOM     20  O   UNL     1       0.936   9.971  19.238  0.00  0.00    +0.000 OA
ATOM     21  C   UNL     1       0.803   9.718  20.575  0.00  0.00    +0.000 A 
ATOM     22  N   UNL     1       1.361   8.584  20.938  0.00  0.00    +0.000 NA
BRANCH  21  23
ATOM     23  C   UNL     1       0.088  10.679  21.398  0.00  0.00    +0.000 A 
ATOM     24  C   UNL     1       0.248  12.054  21.141  0.00  0.00    +0.000 A 
ATOM     25  C   UNL     1      -0.410  13.009  21.919  0.00  0.00    +0.000 A 
ATOM     26  C   UNL     1      -1.233  12.591  22.960  0.00  0.00    +0.000 A 
ATOM     27  F   UNL     1      -1.860  13.505  23.709  0.00  0.00    +0.000 F 
ATOM     28  C   UNL     1      -1.412  11.244  23.233  0.00  0.00    +0.000 A 
ATOM     29  C   UNL     1      -0.752  10.297  22.453  0.00  0.00    +0.000 A 
ATOM     30  F   UNL     1      -0.944   9.004  22.742  0.00  0.00    +0.000 F 
ENDBRANCH  21  23
ENDBRANCH  17  18
ENDBRANCH   1  17
TORSDOF 6
ENDMDL
MODEL 4
REMARK VINA RESULT:      -8.0      1.476      1.611
REMARK  Name = 
REMARK  6 active torsions:
REMARK  status: ('A' for Active; 'I' for Inactive)
REMARK    1  A    between atoms: N_6  and  C_7
REMARK    2  A    between atoms: C_7  and  C_8
REMARK    3  A    between atoms: C_13  and  N_14
REMARK    4  A    between atoms: N_14  and  C_15
REMARK    5  A    between atoms: C_15  and  C_16
REMARK    6  A    between atoms: C_19  and  C_20
REMARK                            x       y       z     vdW  Elec       q    Type
REMARK                         _______ _______ _______ _____ _____    ______ ____
ROOT
ATOM      1  N   UNL     1       2.330   5.666  18.608  0.00  0.00    +0.000 N 
ATOM      2  H   UNL     1       1.598   6.098  18.044  0.00  0.00    +0.000 HD
ENDROOT
BRANCH   1   8
ATOM      3  C   UNL     1       3.669   3.944  17.353  0.00  0.00    +0.000 A 
ATOM      4  C   UNL     1       4.786   3.720  16.507  0.00  0.00    +0.000 A 
ATOM      5  C   UNL     1       5.627   4.753  16.109  0.00  0.00    +0.000 A 
ATOM      6  C   UNL     1       5.354   6.042  16.527  0.00  0.00    +0.000 A 
ATOM      7  C   UNL     1       4.253   6.284  17.351  0.00  0.00    +0.000 A 
ATOM      8  C   UNL     1       3.408   5.249  17.822  0.00  0.00    +0.000 A 
BRANCH   3   9
ATOM      9  C   UNL     1       2.900   2.695  17.737  0.00  0.00    +0.000 C 
BRANCH   9  15
ATOM     10  O   UNL     1       0.138   2.500  18.847  0.00  0.00    +0.000 OA
ATOM     11  C   UNL     1       1.132   2.618  19.538  0.00  0.00    +0.000 C 
ATOM     12  N   UNL     1       1.130   2.723  20.928  0.00  0.00    +0.000 N 
ATOM     13  C   UNL     1       2.426   3.149  21.383  0.00  0.00    +0.000 C 
ATOM     14  C   UNL     1       3.339   2.681  20.265  0.00  0.00    +0.000 C 
ATOM     15  N   UNL     1       2.452   2.748  19.120  0.00  0.00    +0.000 N 
ATOM     16  H   UNL     1       0.253   2.908  21.398  0.00  0.00    +0.000 HD
ENDBRANCH   9  15
ENDBRANCH   3   9
ENDBRANCH   1   8
BRANCH   1  17
ATOM     17  C   UNL     1       2.497   6.453  19.838  0.00  0.00    +0.000 C 
BRANCH  17  18
ATOM     18  C   UNL     1       1.807   7.786  19.849  0.00  0.00    +0.000 A 
ATOM     19  N   UNL     1       1.883   8.664  18.838  0.00  0.00    +0.000 NA
ATOM     20  O   UNL     1       1.081   9.723  19.287  0.00  0.00    +0.000 OA
ATOM     21  C   UNL     1       0.601   9.362  20.515  0.00  0.00    +0.000 A 
ATOM     22  N   UNL     1       1.021   8.177  20.900  0.00  0.00    +0.000 NA
BRANCH  21  23
ATOM     23  C   UNL     1      -0.283  10.279  21.214  0.00  0.00    +0.000 A 
ATOM     24  C   UNL     1      -0.908  11.313  20.491  0.00  0.00    +0.000 A 
ATOM     25  C   UNL     1      -1.753  12.224  21.131  0.00  0.00    +0.000 A 
ATOM     26  C   UNL     1      -1.976  12.104  22.497  0.00  0.00    +0.000 A 
ATOM     27  F   UNL     1      -2.781  12.979  23.112  0.00  0.00    +0.000 F 
ATOM     28  C   UNL     1      -1.378  11.093  23.233  0.00  0.00    +0.000 A 
ATOM     29  C   UNL     1      -0.536  10.188  22.590  0.00  0.00    +0.000 A 
ATOM     30  F   UNL     1       0.027   9.224  23.328  0.00  0.00    +0.000 F 
ENDBRANCH  21  23
ENDBRANCH  17  18
ENDBRANCH   1  17
TORSDOF 6
ENDMDL
MODEL 5
REMARK VINA RESULT:      -8.0      1.818      2.535
REMARK  Name = 
REMARK  6 active torsions:
REMARK  status: ('A' for Active; 'I' for Inactive)
REMARK    1  A    between atoms: N_6  and  C_7
REMARK    2  A    between atoms: C_7  and  C_8
REMARK    3  A    between atoms: C_13  and  N_14
REMARK    4  A    between atoms: N_14  and  C_15
REMARK    5  A    between atoms: C_15  and  C_16
REMARK    6  A    between atoms: C_19  and  C_20
REMARK                            x       y       z     vdW  Elec       q    Type
REMARK                         _______ _______ _______ _____ _____    ______ ____
ROOT
ATOM      1  N   UNL     1       4.182   7.228  17.671  0.00  0.00    +0.000 N 
ATOM      2  H   UNL     1       4.510   7.294  18.634  0.00  0.00    +0.000 HD
ENDROOT
BRANCH   1   8
ATOM      3  C   UNL     1       4.746   4.782  17.491  0.00  0.00    +0.000 A 
ATOM      4  C   UNL     1       5.272   3.762  16.658  0.00  0.00    +0.000 A 
ATOM      5  C   UNL     1       5.745   4.028  15.378  0.00  0.00    +0.000 A 
ATOM      6  C   UNL     1       5.677   5.319  14.889  0.00  0.00    +0.000 A 
ATOM      7  C   UNL     1       5.151   6.335  15.691  0.00  0.00    +0.000 A 
ATOM      8  C   UNL     1       4.714   6.112  17.019  0.00  0.00    +0.000 A 
BRANCH   3   9
ATOM      9  C   UNL     1       4.336   4.325  18.877  0.00  0.00    +0.000 C 
BRANCH   9  15
ATOM     10  O   UNL     1       4.142   1.362  19.165  0.00  0.00    +0.000 OA
ATOM     11  C   UNL     1       3.177   2.086  19.006  0.00  0.00    +0.000 C 
ATOM     12  N   UNL     1       1.860   1.645  18.892  0.00  0.00    +0.000 N 
ATOM     13  C   UNL     1       1.030   2.719  18.417  0.00  0.00    +0.000 C 
ATOM     14  C   UNL     1       1.798   3.951  18.859  0.00  0.00    +0.000 C 
ATOM     15  N   UNL     1       3.164   3.465  18.831  0.00  0.00    +0.000 N 
ATOM     16  H   UNL     1       1.691   0.660  18.736  0.00  0.00    +0.000 HD
ENDBRANCH   9  15
ENDBRANCH   3   9
ENDBRANCH   1   8
BRANCH   1  17
ATOM     17  C   UNL     1       2.750   7.561  17.642  0.00  0.00    +0.000 C 
BRANCH  17  18
ATOM     18  C   UNL     1       2.141   7.905  18.970  0.00  0.00    +0.000 A 
ATOM     19  N   UNL     1       2.225   7.109  20.047  0.00  0.00    +0.000 NA
ATOM     20  O   UNL     1       1.540   7.842  21.026  0.00  0.00    +0.000 OA
ATOM     21  C   UNL     1       1.129   9.005  20.435  0.00  0.00    +0.000 A 
ATOM     22  N   UNL     1       1.478   9.085  19.170  0.00  0.00    +0.000 NA
BRANCH  21  23
ATOM     23  C   UNL     1       0.398   9.973  21.235  0.00  0.00    +0.000 A 
ATOM     24  C   UNL     1      -0.299   9.531  22.377  0.00  0.00    +0.000 A 
ATOM     25  C   UNL     1      -1.025  10.429  23.163  0.00  0.00    +0.000 A 
ATOM     26  C   UNL     1      -1.056  11.774  22.811  0.00  0.00    +0.000 A 
ATOM     27  F   UNL     1      -1.755  12.634  23.561  0.00  0.00    +0.000 F 
ATOM     28  C   UNL     1      -0.376  12.237  21.696  0.00  0.00    +0.000 A 
ATOM     29  C   UNL     1       0.346  11.337  20.915  0.00  0.00    +0.000 A 
ATOM     30  F   UNL     1       0.992  11.814  19.844  0.00  0.00    +0.000 F 
ENDBRANCH  21  23
ENDBRANCH  17  18
ENDBRANCH   1  17
TORSDOF 6
ENDMDL
MODEL 6
REMARK VINA RESULT:      -8.0      2.308      3.736
REMARK  Name = 
REMARK  6 active torsions:
REMARK  status: ('A' for Active; 'I' for Inactive)
REMARK    1  A    between atoms: N_6  and  C_7
REMARK    2  A    between atoms: C_7  and  C_8
REMARK    3  A    between atoms: C_13  and  N_14
REMARK    4  A    between atoms: N_14  and  C_15
REMARK    5  A    between atoms: C_15  and  C_16
REMARK    6  A    between atoms: C_19  and  C_20
REMARK                            x       y       z     vdW  Elec       q    Type
REMARK                         _______ _______ _______ _____ _____    ______ ____
ROOT
ATOM      1  N   UNL     1       2.512   5.741  17.943  0.00  0.00    +0.000 N 
ATOM      2  H   UNL     1       2.695   5.383  17.006  0.00  0.00    +0.000 HD
ENDROOT
BRANCH   1   8
ATOM      3  C   UNL     1       3.648   3.770  19.018  0.00  0.00    +0.000 A 
ATOM      4  C   UNL     1       3.636   2.866  20.112  0.00  0.00    +0.000 A 
ATOM      5  C   UNL     1       2.655   2.916  21.096  0.00  0.00    +0.000 A 
ATOM      6  C   UNL     1       1.677   3.890  21.024  0.00  0.00    +0.000 A 
ATOM      7  C   UNL     1       1.679   4.795  19.961  0.00  0.00    +0.000 A 
ATOM      8  C   UNL     1       2.628   4.739  18.911  0.00  0.00    +0.000 A 
BRANCH   3   9
ATOM      9  C   UNL     1       4.752   3.531  18.007  0.00  0.00    +0.000 C 
BRANCH   9  15
ATOM     10  O   UNL     1       5.858   5.163  15.768  0.00  0.00    +0.000 OA
ATOM     11  C   UNL     1       6.175   5.318  16.933  0.00  0.00    +0.000 C 
ATOM     12  N   UNL     1       7.121   6.236  17.386  0.00  0.00    +0.000 N 
ATOM     13  C   UNL     1       7.462   5.944  18.752  0.00  0.00    +0.000 C 
ATOM     14  C   UNL     1       6.227   5.220  19.254  0.00  0.00    +0.000 C 
ATOM     15  N   UNL     1       5.744   4.593  18.038  0.00  0.00    +0.000 N 
ATOM     16  H   UNL     1       7.731   6.676  16.710  0.00  0.00    +0.000 HD
ENDBRANCH   9  15
ENDBRANCH   3   9
ENDBRANCH   1   8
BRANCH   1  17
ATOM     17  C   UNL     1       3.157   7.055  18.075  0.00  0.00    +0.000 C 
BRANCH  17  18
ATOM     18  C   UNL     1       2.249   8.183  18.472  0.00  0.00    +0.000 A 
ATOM     19  N   UNL     1       1.826   9.124  17.615  0.00  0.00    +0.000 NA
ATOM     20  O   UNL     1       1.007   9.928  18.420  0.00  0.00    +0.000 OA
ATOM     21  C   UNL     1       1.017   9.376  19.671  0.00  0.00    +0.000 A 
ATOM     22  N   UNL     1       1.768   8.299  19.748  0.00  0.00    +0.000 NA
BRANCH  21  23
ATOM     23  C   UNL     1       0.228  10.005  20.717  0.00  0.00    +0.000 A 
ATOM     24  C   UNL     1       0.189   9.415  21.995  0.00  0.00    +0.000 A 
ATOM     25  C   UNL     1      -0.570   9.982  23.022  0.00  0.00    +0.000 A 
ATOM     26  C   UNL     1      -1.294  11.142  22.774  0.00  0.00    +0.000 A 
ATOM     27  F   UNL     1      -2.025  11.683  23.756  0.00  0.00    +0.000 F 
ATOM     28  C   UNL     1      -1.271  11.747  21.527  0.00  0.00    +0.000 A 
ATOM     29  C   UNL     1      -0.513  11.176  20.507  0.00  0.00    +0.000 A 
ATOM     30  F   UNL     1      -0.512  11.783  19.313  0.00  0.00    +0.000 F 
ENDBRANCH  21  23
ENDBRANCH  17  18
ENDBRANCH   1  17
TORSDOF 6
ENDMDL
MODEL 7
REMARK VINA RESULT:      -7.9      3.060      4.563
REMARK  Name = 
REMARK  6 active torsions:
REMARK  status: ('A' for Active; 'I' for Inactive)
REMARK    1  A    between atoms: N_6  and  C_7
REMARK    2  A    between atoms: C_7  and  C_8
REMARK    3  A    between atoms: C_13  and  N_14
REMARK    4  A    between atoms: N_14  and  C_15
REMARK    5  A    between atoms: C_15  and  C_16
REMARK    6  A    between atoms: C_19  and  C_20
REMARK                            x       y       z     vdW  Elec       q    Type
REMARK                         _______ _______ _______ _____ _____    ______ ____
ROOT
ATOM      1  N   UNL     1       3.029   5.621  20.430  0.00  0.00    +0.000 N 
ATOM      2  H   UNL     1       3.390   5.469  21.371  0.00  0.00    +0.000 HD
ENDROOT
BRANCH   1   8
ATOM      3  C   UNL     1       4.223   3.893  19.043  0.00  0.00    +0.000 A 
ATOM      4  C   UNL     1       4.101   2.660  18.352  0.00  0.00    +0.000 A 
ATOM      5  C   UNL     1       2.894   1.974  18.278  0.00  0.00    +0.000 A 
ATOM      6  C   UNL     1       1.784   2.493  18.918  0.00  0.00    +0.000 A 
ATOM      7  C   UNL     1       1.887   3.700  19.613  0.00  0.00    +0.000 A 
ATOM      8  C   UNL     1       3.085   4.454  19.661  0.00  0.00    +0.000 A 
BRANCH   3   9
ATOM      9  C   UNL     1       5.595   4.532  18.967  0.00  0.00    +0.000 C 
BRANCH   9  15
ATOM     10  O   UNL     1       8.249   4.129  17.667  0.00  0.00    +0.000 OA
ATOM     11  C   UNL     1       7.264   4.523  17.072  0.00  0.00    +0.000 C 
ATOM     12  N   UNL     1       7.235   4.884  15.727  0.00  0.00    +0.000 N 
ATOM     13  C   UNL     1       6.009   5.579  15.438  0.00  0.00    +0.000 C 
ATOM     14  C   UNL     1       5.072   5.055  16.511  0.00  0.00    +0.000 C 
ATOM     15  N   UNL     1       5.998   4.773  17.591  0.00  0.00    +0.000 N 
ATOM     16  H   UNL     1       8.113   5.017  15.242  0.00  0.00    +0.000 HD
ENDBRANCH   9  15
ENDBRANCH   3   9
ENDBRANCH   1   8
BRANCH   1  17
ATOM     17  C   UNL     1       1.824   6.457  20.522  0.00  0.00    +0.000 C 
BRANCH  17  18
ATOM     18  C   UNL     1       1.828   7.691  19.666  0.00  0.00    +0.000 A 
ATOM     19  N   UNL     1       2.496   7.780  18.506  0.00  0.00    +0.000 NA
ATOM     20  O   UNL     1       2.192   9.080  18.075  0.00  0.00    +0.000 OA
ATOM     21  C   UNL     1       1.365   9.626  19.017  0.00  0.00    +0.000 A 
ATOM     22  N   UNL     1       1.114   8.805  20.013  0.00  0.00    +0.000 NA
BRANCH  21  23
ATOM     23  C   UNL     1       0.875  10.979  18.813  0.00  0.00    +0.000 A 
ATOM     24  C   UNL     1       1.802  12.033  18.699  0.00  0.00    +0.000 A 
ATOM     25  C   UNL     1       1.370  13.349  18.517  0.00  0.00    +0.000 A 
ATOM     26  C   UNL     1       0.007  13.616  18.449  0.00  0.00    +0.000 A 
ATOM     27  F   UNL     1      -0.408  14.877  18.280  0.00  0.00    +0.000 F 
ATOM     28  C   UNL     1      -0.927  12.598  18.554  0.00  0.00    +0.000 A 
ATOM     29  C   UNL     1      -0.490  11.287  18.736  0.00  0.00    +0.000 A 
ATOM     30  F   UNL     1      -1.416  10.326  18.835  0.00  0.00    +0.000 F 
ENDBRANCH  21  23
ENDBRANCH  17  18
ENDBRANCH   1  17
TORSDOF 6
ENDMDL
MODEL 8
REMARK VINA RESULT:      -7.9      3.009      4.425
REMARK  Name = 
REMARK  6 active torsions:
REMARK  status: ('A' for Active; 'I' for Inactive)
REMARK    1  A    between atoms: N_6  and  C_7
REMARK    2  A    between atoms: C_7  and  C_8
REMARK    3  A    between atoms: C_13  and  N_14
REMARK    4  A    between atoms: N_14  and  C_15
REMARK    5  A    between atoms: C_15  and  C_16
REMARK    6  A    between atoms: C_19  and  C_20
REMARK                            x       y       z     vdW  Elec       q    Type
REMARK                         _______ _______ _______ _____ _____    ______ ____
ROOT
ATOM      1  N   UNL     1       3.020   5.790  20.129  0.00  0.00    +0.000 N 
ATOM      2  H   UNL     1       3.512   5.611  21.004  0.00  0.00    +0.000 HD
ENDROOT
BRANCH   1   8
ATOM      3  C   UNL     1       3.407   4.397  18.068  0.00  0.00    +0.000 A 
ATOM      4  C   UNL     1       3.233   3.124  17.468  0.00  0.00    +0.000 A 
ATOM      5  C   UNL     1       2.583   2.084  18.123  0.00  0.00    +0.000 A 
ATOM      6  C   UNL     1       2.115   2.286  19.408  0.00  0.00    +0.000 A 
ATOM      7  C   UNL     1       2.287   3.529  20.020  0.00  0.00    +0.000 A 
ATOM      8  C   UNL     1       2.893   4.628  19.362  0.00  0.00    +0.000 A 
BRANCH   3   9
ATOM      9  C   UNL     1       4.081   5.430  17.186  0.00  0.00    +0.000 C 
BRANCH   9  15
ATOM     10  O   UNL     1       5.935   5.635  14.859  0.00  0.00    +0.000 OA
ATOM     11  C   UNL     1       6.303   5.376  15.990  0.00  0.00    +0.000 C 
ATOM     12  N   UNL     1       7.618   5.095  16.356  0.00  0.00    +0.000 N 
ATOM     13  C   UNL     1       7.643   4.544  17.684  0.00  0.00    +0.000 C 
ATOM     14  C   UNL     1       6.370   5.099  18.296  0.00  0.00    +0.000 C 
ATOM     15  N   UNL     1       5.520   5.227  17.128  0.00  0.00    +0.000 N 
ATOM     16  H   UNL     1       8.292   4.900  15.628  0.00  0.00    +0.000 HD
ENDBRANCH   9  15
ENDBRANCH   3   9
ENDBRANCH   1   8
BRANCH   1  17
ATOM     17  C   UNL     1       1.893   6.692  20.402  0.00  0.00    +0.000 C 
BRANCH  17  18
ATOM     18  C   UNL     1       1.841   7.933  19.558  0.00  0.00    +0.000 A 
ATOM     19  N   UNL     1       2.424   8.029  18.354  0.00  0.00    +0.000 NA
ATOM     20  O   UNL     1       2.094   9.333  17.956  0.00  0.00    +0.000 OA
ATOM     21  C   UNL     1       1.339   9.874  18.959  0.00  0.00    +0.000 A 
ATOM     22  N   UNL     1       1.157   9.046  19.964  0.00  0.00    +0.000 NA
BRANCH  21  23
ATOM     23  C   UNL     1       0.840  11.230  18.801  0.00  0.00    +0.000 A 
ATOM     24  C   UNL     1       1.760  12.295  18.746  0.00  0.00    +0.000 A 
ATOM     25  C   UNL     1       1.319  13.615  18.611  0.00  0.00    +0.000 A 
ATOM     26  C   UNL     1      -0.045  13.873  18.529  0.00  0.00    +0.000 A 
ATOM     27  F   UNL     1      -0.468  15.136  18.404  0.00  0.00    +0.000 F 
ATOM     28  C   UNL     1      -0.971  12.843  18.577  0.00  0.00    +0.000 A 
ATOM     29  C   UNL     1      -0.526  11.531  18.712  0.00  0.00    +0.000 A 
ATOM     30  F   UNL     1      -1.445  10.558  18.756  0.00  0.00    +0.000 F 
ENDBRANCH  21  23
ENDBRANCH  17  18
ENDBRANCH   1  17
TORSDOF 6
ENDMDL
MODEL 9
REMARK VINA RESULT:      -7.9      6.434      7.766
REMARK  Name = 
REMARK  6 active torsions:
REMARK  status: ('A' for Active; 'I' for Inactive)
REMARK    1  A    between atoms: N_6  and  C_7
REMARK    2  A    between atoms: C_7  and  C_8
REMARK    3  A    between atoms: C_13  and  N_14
REMARK    4  A    between atoms: N_14  and  C_15
REMARK    5  A    between atoms: C_15  and  C_16
REMARK    6  A    between atoms: C_19  and  C_20
REMARK                            x       y       z     vdW  Elec       q    Type
REMARK                         _______ _______ _______ _____ _____    ______ ____
ROOT
ATOM      1  N   UNL     1       7.317   6.203  16.738  0.00  0.00    +0.000 N 
ATOM      2  H   UNL     1       7.528   5.695  17.597  0.00  0.00    +0.000 HD
ENDROOT
BRANCH   1   8
ATOM      3  C   UNL     1       5.338   4.954  15.811  0.00  0.00    +0.000 A 
ATOM      4  C   UNL     1       4.848   4.176  14.730  0.00  0.00    +0.000 A 
ATOM      5  C   UNL     1       5.649   3.837  13.645  0.00  0.00    +0.000 A 
ATOM      6  C   UNL     1       6.953   4.293  13.602  0.00  0.00    +0.000 A 
ATOM      7  C   UNL     1       7.450   5.069  14.651  0.00  0.00    +0.000 A 
ATOM      8  C   UNL     1       6.682   5.386  15.798  0.00  0.00    +0.000 A 
BRANCH   3   9
ATOM      9  C   UNL     1       4.348   5.174  16.938  0.00  0.00    +0.000 C 
BRANCH   9  15
ATOM     10  O   UNL     1       6.135   4.628  19.263  0.00  0.00    +0.000 OA
ATOM     11  C   UNL     1       5.207   3.908  18.946  0.00  0.00    +0.000 C 
ATOM     12  N   UNL     1       4.870   2.715  19.583  0.00  0.00    +0.000 N 
ATOM     13  C   UNL     1       3.931   1.985  18.775  0.00  0.00    +0.000 C 
ATOM     14  C   UNL     1       3.272   3.082  17.961  0.00  0.00    +0.000 C 
ATOM     15  N   UNL     1       4.341   4.057  17.869  0.00  0.00    +0.000 N 
ATOM     16  H   UNL     1       5.535   2.305  20.225  0.00  0.00    +0.000 HD
ENDBRANCH   9  15
ENDBRANCH   3   9
ENDBRANCH   1   8
BRANCH   1  17
ATOM     17  C   UNL     1       6.822   7.540  17.096  0.00  0.00    +0.000 C 
BRANCH  17  18
ATOM     18  C   UNL     1       7.796   8.411  17.836  0.00  0.00    +0.000 A 
ATOM     19  N   UNL     1       8.554   7.970  18.851  0.00  0.00    +0.000 NA
ATOM     20  O   UNL     1       9.295   9.109  19.199  0.00  0.00    +0.000 OA
ATOM     21  C   UNL     1       8.911  10.106  18.346  0.00  0.00    +0.000 A 
ATOM     22  N   UNL     1       7.991   9.720  17.491  0.00  0.00    +0.000 NA
BRANCH  21  23
ATOM     23  C   UNL     1       9.540  11.410  18.472  0.00  0.00    +0.000 A 
ATOM     24  C   UNL     1      10.669  11.549  19.302  0.00  0.00    +0.000 A 
ATOM     25  C   UNL     1      11.293  12.789  19.460  0.00  0.00    +0.000 A 
ATOM     26  C   UNL     1      10.788  13.897  18.788  0.00  0.00    +0.000 A 
ATOM     27  F   UNL     1      11.381  15.086  18.944  0.00  0.00    +0.000 F 
ATOM     28  C   UNL     1       9.680  13.789  17.963  0.00  0.00    +0.000 A 
ATOM     29  C   UNL     1       9.063  12.550  17.809  0.00  0.00    +0.000 A 
ATOM     30  F   UNL     1       7.994  12.477  17.006  0.00  0.00    +0.000 F 
ENDBRANCH  21  23
ENDBRANCH  17  18
ENDBRANCH   1  17
TORSDOF 6
ENDMDL
