MODEL 1
REMARK VINA RESULT:      -9.2      0.000      0.000
REMARK  Name = 
REMARK  6 active torsions:
REMARK  status: ('A' for Active; 'I' for Inactive)
REMARK    1  A    between atoms: C_1  and  C_2
REMARK    2  A    between atoms: C_5  and  N_6
REMARK    3  A    between atoms: C_8  and  C_9
REMARK    4  A    between atoms: N_11  and  C_12
REMARK    5  A    between atoms: C_16  and  N_17
REMARK    6  A    between atoms: C_24  and  C_25
REMARK                            x       y       z     vdW  Elec       q    Type
REMARK                         _______ _______ _______ _____ _____    ______ ____
ROOT
ATOM      1  C   UNL     1       0.670   9.345  20.037  0.00  0.00    +0.000 C 
ATOM      2  O   UNL     1       0.391   9.726  18.905  0.00  0.00    +0.000 OA
ATOM      3  N   UNL     1       1.510   8.290  20.342  0.00  0.00    +0.000 N 
ATOM      4  H   UNL     1       1.395   7.897  21.268  0.00  0.00    +0.000 HD
ENDROOT
BRANCH   3   5
ATOM      5  C   UNL     1       2.213   7.551  19.372  0.00  0.00    +0.000 A 
ATOM      6  C   UNL     1       2.811   8.219  18.296  0.00  0.00    +0.000 A 
ATOM      7  C   UNL     1       3.595   7.522  17.384  0.00  0.00    +0.000 A 
ATOM      8  C   UNL     1       3.752   6.147  17.520  0.00  0.00    +0.000 A 
ATOM      9  C   UNL     1       3.107   5.449  18.554  0.00  0.00    +0.000 A 
ATOM     10  C   UNL     1       2.357   6.155  19.523  0.00  0.00    +0.000 A 
ATOM     11  C   UNL     1       1.709   5.476  20.704  0.00  0.00    +0.000 C 
BRANCH   9  12
ATOM     12  N   UNL     1       3.211   4.038  18.584  0.00  0.00    +0.000 N 
ATOM     13  C   UNL     1       2.288   3.213  17.987  0.00  0.00    +0.000 C 
ATOM     14  O   UNL     1       1.304   3.518  17.324  0.00  0.00    +0.000 OA
ATOM     15  C   UNL     1       2.687   1.791  18.235  0.00  0.00    +0.000 C 
ATOM     16  C   UNL     1       4.030   1.885  18.926  0.00  0.00    +0.000 C 
ATOM     17  C   UNL     1       4.299   3.355  19.042  0.00  0.00    +0.000 C 
ATOM     18  O   UNL     1       5.337   3.808  19.511  0.00  0.00    +0.000 OA
ENDBRANCH   9  12
ENDBRANCH   3   5
BRANCH   1  21
ATOM     19  N   UNL     1      -0.980  11.305  22.566  0.00  0.00    +0.000 N 
ATOM     20  C   UNL     1      -0.809  11.012  21.237  0.00  0.00    +0.000 A 
ATOM     21  C   UNL     1       0.071   9.954  21.213  0.00  0.00    +0.000 A 
ATOM     22  N   UNL     1       0.335   9.566  22.501  0.00  0.00    +0.000 NA
ATOM     23  N   UNL     1      -0.303  10.395  23.316  0.00  0.00    +0.000 NA
BRANCH  19  28
ATOM     24  C   UNL     1      -3.851  15.767  24.731  0.00  0.00    +0.000 C 
ATOM     25  C   UNL     1      -3.097  14.581  24.205  0.00  0.00    +0.000 A 
ATOM     26  C   UNL     1      -3.710  13.327  24.099  0.00  0.00    +0.000 A 
ATOM     27  C   UNL     1      -3.013  12.235  23.573  0.00  0.00    +0.000 A 
ATOM     28  C   UNL     1      -1.688  12.387  23.148  0.00  0.00    +0.000 A 
ATOM     29  C   UNL     1      -1.064  13.637  23.269  0.00  0.00    +0.000 A 
ATOM     30  C   UNL     1      -1.769  14.725  23.790  0.00  0.00    +0.000 A 
ENDBRANCH  19  28
ENDBRANCH   1  21
TORSDOF 4
ENDMDL
MODEL 2
REMARK VINA RESULT:      -9.1      0.180      1.415
REMARK  Name = 
REMARK  6 active torsions:
REMARK  status: ('A' for Active; 'I' for Inactive)
REMARK    1  A    between atoms: C_1  and  C_2
REMARK    2  A    between atoms: C_5  and  N_6
REMARK    3  A    between atoms: C_8  and  C_9
REMARK    4  A    between atoms: N_11  and  C_12
REMARK    5  A    between atoms: C_16  and  N_17
REMARK    6  A    between atoms: C_24  and  C_25
REMARK                            x       y       z     vdW  Elec       q    Type
REMARK                         _______ _______ _______ _____ _____    ______ ____
ROOT
ATOM      1  C   UNL     1       0.826   9.311  19.987  0.00  0.00    +0.000 C 
ATOM      2  O   UNL     1       0.570   9.717  18.858  0.00  0.00    +0.000 OA
ATOM      3  N   UNL     1       1.625   8.223  20.284  0.00  0.00    +0.000 N 
ATOM      4  H   UNL     1       1.488   7.822  21.204  0.00  0.00    +0.000 HD
ENDROOT
BRANCH   3   5
ATOM      5  C   UNL     1       2.309   7.472  19.310  0.00  0.00    +0.000 A 
ATOM      6  C   UNL     1       2.942   8.133  18.250  0.00  0.00    +0.000 A 
ATOM      7  C   UNL     1       3.708   7.422  17.334  0.00  0.00    +0.000 A 
ATOM      8  C   UNL     1       3.812   6.039  17.451  0.00  0.00    +0.000 A 
ATOM      9  C   UNL     1       3.132   5.351  18.467  0.00  0.00    +0.000 A 
ATOM     10  C   UNL     1       2.399   6.070  19.440  0.00  0.00    +0.000 A 
ATOM     11  C   UNL     1       1.715   5.398  20.605  0.00  0.00    +0.000 C 
BRANCH   9  12
ATOM     12  N   UNL     1       3.182   3.937  18.477  0.00  0.00    +0.000 N 
ATOM     13  C   UNL     1       4.218   3.235  19.047  0.00  0.00    +0.000 C 
ATOM     14  O   UNL     1       5.193   3.665  19.651  0.00  0.00    +0.000 OA
ATOM     15  C   UNL     1       3.966   1.771  18.854  0.00  0.00    +0.000 C 
ATOM     16  C   UNL     1       2.590   1.699  18.230  0.00  0.00    +0.000 C 
ATOM     17  C   UNL     1       2.155   3.126  18.092  0.00  0.00    +0.000 C 
ATOM     18  O   UNL     1       1.053   3.450  17.666  0.00  0.00    +0.000 OA
ENDBRANCH   9  12
ENDBRANCH   3   5
BRANCH   1  21
ATOM     19  N   UNL     1      -0.840  11.257  22.518  0.00  0.00    +0.000 N 
ATOM     20  C   UNL     1      -0.707  10.925  21.194  0.00  0.00    +0.000 A 
ATOM     21  C   UNL     1       0.239   9.925  21.168  0.00  0.00    +0.000 A 
ATOM     22  N   UNL     1       0.583   9.605  22.455  0.00  0.00    +0.000 NA
ATOM     23  N   UNL     1      -0.073  10.421  23.268  0.00  0.00    +0.000 NA
BRANCH  19  28
ATOM     24  C   UNL     1      -3.895  15.609  24.653  0.00  0.00    +0.000 C 
ATOM     25  C   UNL     1      -3.092  14.452  24.135  0.00  0.00    +0.000 A 
ATOM     26  C   UNL     1      -3.649  13.172  24.047  0.00  0.00    +0.000 A 
ATOM     27  C   UNL     1      -2.907  12.105  23.528  0.00  0.00    +0.000 A 
ATOM     28  C   UNL     1      -1.592  12.312  23.093  0.00  0.00    +0.000 A 
ATOM     29  C   UNL     1      -1.024  13.590  23.196  0.00  0.00    +0.000 A 
ATOM     30  C   UNL     1      -1.774  14.651  23.710  0.00  0.00    +0.000 A 
ENDBRANCH  19  28
ENDBRANCH   1  21
TORSDOF 4
ENDMDL
MODEL 3
REMARK VINA RESULT:      -8.6      1.144      1.324
REMARK  Name = 
REMARK  6 active torsions:
REMARK  status: ('A' for Active; 'I' for Inactive)
REMARK    1  A    between atoms: C_1  and  C_2
REMARK    2  A    between atoms: C_5  and  N_6
REMARK    3  A    between atoms: C_8  and  C_9
REMARK    4  A    between atoms: N_11  and  C_12
REMARK    5  A    between atoms: C_16  and  N_17
REMARK    6  A    between atoms: C_24  and  C_25
REMARK                            x       y       z     vdW  Elec       q    Type
REMARK                         _______ _______ _______ _____ _____    ______ ____
ROOT
ATOM      1  C   UNL     1       0.987   9.479  19.219  0.00  0.00    +0.000 C 
ATOM      2  O   UNL     1       0.776   9.705  18.032  0.00  0.00    +0.000 OA
ATOM      3  N   UNL     1       1.766   8.448  19.710  0.00  0.00    +0.000 N 
ATOM      4  H   UNL     1       1.593   8.195  20.675  0.00  0.00    +0.000 HD
ENDROOT
BRANCH   3   5
ATOM      5  C   UNL     1       2.480   7.554  18.890  0.00  0.00    +0.000 A 
ATOM      6  C   UNL     1       3.179   8.045  17.780  0.00  0.00    +0.000 A 
ATOM      7  C   UNL     1       3.972   7.197  17.017  0.00  0.00    +0.000 A 
ATOM      8  C   UNL     1       4.039   5.845  17.336  0.00  0.00    +0.000 A 
ATOM      9  C   UNL     1       3.295   5.321  18.404  0.00  0.00    +0.000 A 
ATOM     10  C   UNL     1       2.532   6.184  19.224  0.00  0.00    +0.000 A 
ATOM     11  C   UNL     1       1.777   5.698  20.437  0.00  0.00    +0.000 C 
BRANCH   9  12
ATOM     12  N   UNL     1       3.313   3.922  18.619  0.00  0.00    +0.000 N 
ATOM     13  C   UNL     1       2.321   3.088  18.160  0.00  0.00    +0.000 C 
ATOM     14  O   UNL     1       1.336   3.367  17.488  0.00  0.00    +0.000 OA
ATOM     15  C   UNL     1       2.641   1.688  18.585  0.00  0.00    +0.000 C 
ATOM     16  C   UNL     1       4.009   1.784  19.223  0.00  0.00    +0.000 C 
ATOM     17  C   UNL     1       4.373   3.236  19.136  0.00  0.00    +0.000 C 
ATOM     18  O   UNL     1       5.451   3.677  19.514  0.00  0.00    +0.000 OA
ENDBRANCH   9  12
ENDBRANCH   3   5
BRANCH   1  21
ATOM     19  N   UNL     1      -1.033  11.486  21.422  0.00  0.00    +0.000 N 
ATOM     20  C   UNL     1      -0.958  10.652  20.335  0.00  0.00    +0.000 A 
ATOM     21  C   UNL     1       0.363  10.269  20.267  0.00  0.00    +0.000 A 
ATOM     22  N   UNL     1       1.031  10.783  21.347  0.00  0.00    +0.000 NA
ATOM     23  N   UNL     1       0.178  11.525  22.041  0.00  0.00    +0.000 NA
BRANCH  19  28
ATOM     24  C   UNL     1      -5.616  14.455  23.159  0.00  0.00    +0.000 C 
ATOM     25  C   UNL     1      -4.390  13.709  22.719  0.00  0.00    +0.000 A 
ATOM     26  C   UNL     1      -3.548  13.095  23.653  0.00  0.00    +0.000 A 
ATOM     27  C   UNL     1      -2.427  12.371  23.235  0.00  0.00    +0.000 A 
ATOM     28  C   UNL     1      -2.135  12.256  21.870  0.00  0.00    +0.000 A 
ATOM     29  C   UNL     1      -2.966  12.885  20.932  0.00  0.00    +0.000 A 
ATOM     30  C   UNL     1      -4.088  13.602  21.358  0.00  0.00    +0.000 A 
ENDBRANCH  19  28
ENDBRANCH   1  21
TORSDOF 4
ENDMDL
MODEL 4
REMARK VINA RESULT:      -8.5      1.083      1.812
REMARK  Name = 
REMARK  6 active torsions:
REMARK  status: ('A' for Active; 'I' for Inactive)
REMARK    1  A    between atoms: C_1  and  C_2
REMARK    2  A    between atoms: C_5  and  N_6
REMARK    3  A    between atoms: C_8  and  C_9
REMARK    4  A    between atoms: N_11  and  C_12
REMARK    5  A    between atoms: C_16  and  N_17
REMARK    6  A    between atoms: C_24  and  C_25
REMARK                            x       y       z     vdW  Elec       q    Type
REMARK                         _______ _______ _______ _____ _____    ______ ____
ROOT
ATOM      1  C   UNL     1       0.996   9.365  19.313  0.00  0.00    +0.000 C 
ATOM      2  O   UNL     1       0.759   9.617  18.136  0.00  0.00    +0.000 OA
ATOM      3  N   UNL     1       1.798   8.332  19.764  0.00  0.00    +0.000 N 
ATOM      4  H   UNL     1       1.646   8.053  20.726  0.00  0.00    +0.000 HD
ENDROOT
BRANCH   3   5
ATOM      5  C   UNL     1       2.506   7.467  18.909  0.00  0.00    +0.000 A 
ATOM      6  C   UNL     1       3.218   8.000  17.826  0.00  0.00    +0.000 A 
ATOM      7  C   UNL     1       4.006   7.177  17.030  0.00  0.00    +0.000 A 
ATOM      8  C   UNL     1       4.054   5.811  17.288  0.00  0.00    +0.000 A 
ATOM      9  C   UNL     1       3.297   5.249  18.327  0.00  0.00    +0.000 A 
ATOM     10  C   UNL     1       2.539   6.084  19.181  0.00  0.00    +0.000 A 
ATOM     11  C   UNL     1       1.770   5.552  20.365  0.00  0.00    +0.000 C 
BRANCH   9  12
ATOM     12  N   UNL     1       3.296   3.842  18.478  0.00  0.00    +0.000 N 
ATOM     13  C   UNL     1       4.301   3.165  19.129  0.00  0.00    +0.000 C 
ATOM     14  O   UNL     1       5.285   3.619  19.699  0.00  0.00    +0.000 OA
ATOM     15  C   UNL     1       3.998   1.699  19.080  0.00  0.00    +0.000 C 
ATOM     16  C   UNL     1       2.626   1.612  18.448  0.00  0.00    +0.000 C 
ATOM     17  C   UNL     1       2.244   3.033  18.163  0.00  0.00    +0.000 C 
ATOM     18  O   UNL     1       1.158   3.350  17.692  0.00  0.00    +0.000 OA
ENDBRANCH   9  12
ENDBRANCH   3   5
BRANCH   1  21
ATOM     19  N   UNL     1      -0.967  11.362  21.576  0.00  0.00    +0.000 N 
ATOM     20  C   UNL     1      -0.902  10.614  20.428  0.00  0.00    +0.000 A 
ATOM     21  C   UNL     1       0.383  10.121  20.393  0.00  0.00    +0.000 A 
ATOM     22  N   UNL     1       1.031  10.487  21.543  0.00  0.00    +0.000 NA
ATOM     23  N   UNL     1       0.206  11.244  22.254  0.00  0.00    +0.000 NA
BRANCH  19  28
ATOM     24  C   UNL     1      -5.365  14.611  23.289  0.00  0.00    +0.000 C 
ATOM     25  C   UNL     1      -4.187  13.782  22.869  0.00  0.00    +0.000 A 
ATOM     26  C   UNL     1      -3.660  12.799  23.714  0.00  0.00    +0.000 A 
ATOM     27  C   UNL     1      -2.586  12.004  23.302  0.00  0.00    +0.000 A 
ATOM     28  C   UNL     1      -2.023  12.189  22.033  0.00  0.00    +0.000 A 
ATOM     29  C   UNL     1      -2.536  13.185  21.189  0.00  0.00    +0.000 A 
ATOM     30  C   UNL     1      -3.614  13.970  21.607  0.00  0.00    +0.000 A 
ENDBRANCH  19  28
ENDBRANCH   1  21
TORSDOF 4
ENDMDL
MODEL 5
REMARK VINA RESULT:      -8.4      3.189      4.396
REMARK  Name = 
REMARK  6 active torsions:
REMARK  status: ('A' for Active; 'I' for Inactive)
REMARK    1  A    between atoms: C_1  and  C_2
REMARK    2  A    between atoms: C_5  and  N_6
REMARK    3  A    between atoms: C_8  and  C_9
REMARK    4  A    between atoms: N_11  and  C_12
REMARK    5  A    between atoms: C_16  and  N_17
REMARK    6  A    between atoms: C_24  and  C_25
REMARK                            x       y       z     vdW  Elec       q    Type
REMARK                         _______ _______ _______ _____ _____    ______ ____
ROOT
ATOM      1  C   UNL     1       1.277   8.777  20.303  0.00  0.00    +0.000 C 
ATOM      2  O   UNL     1       1.797   8.787  21.414  0.00  0.00    +0.000 OA
ATOM      3  N   UNL     1       1.477   7.811  19.335  0.00  0.00    +0.000 N 
ATOM      4  H   UNL     1       1.251   8.091  18.388  0.00  0.00    +0.000 HD
ENDROOT
BRANCH   3   5
ATOM      5  C   UNL     1       2.265   6.662  19.535  0.00  0.00    +0.000 A 
ATOM      6  C   UNL     1       1.896   5.736  20.519  0.00  0.00    +0.000 A 
ATOM      7  C   UNL     1       2.600   4.546  20.664  0.00  0.00    +0.000 A 
ATOM      8  C   UNL     1       3.702   4.295  19.852  0.00  0.00    +0.000 A 
ATOM      9  C   UNL     1       4.126   5.239  18.905  0.00  0.00    +0.000 A 
ATOM     10  C   UNL     1       3.382   6.426  18.706  0.00  0.00    +0.000 A 
ATOM     11  C   UNL     1       3.737   7.440  17.648  0.00  0.00    +0.000 C 
BRANCH   9  12
ATOM     12  N   UNL     1       5.315   4.982  18.180  0.00  0.00    +0.000 N 
ATOM     13  C   UNL     1       6.566   5.136  18.729  0.00  0.00    +0.000 C 
ATOM     14  O   UNL     1       6.866   5.452  19.874  0.00  0.00    +0.000 OA
ATOM     15  C   UNL     1       7.588   4.809  17.685  0.00  0.00    +0.000 C 
ATOM     16  C   UNL     1       6.784   4.309  16.505  0.00  0.00    +0.000 C 
ATOM     17  C   UNL     1       5.356   4.399  16.947  0.00  0.00    +0.000 C 
ATOM     18  O   UNL     1       4.417   4.023  16.256  0.00  0.00    +0.000 OA
ENDBRANCH   9  12
ENDBRANCH   3   5
BRANCH   1  21
ATOM     19  N   UNL     1      -1.295  11.019  19.153  0.00  0.00    +0.000 N 
ATOM     20  C   UNL     1      -0.956   9.820  19.727  0.00  0.00    +0.000 A 
ATOM     21  C   UNL     1       0.414   9.859  19.857  0.00  0.00    +0.000 A 
ATOM     22  N   UNL     1       0.863  11.091  19.461  0.00  0.00    +0.000 NA
ATOM     23  N   UNL     1      -0.180  11.788  19.031  0.00  0.00    +0.000 NA
BRANCH  19  28
ATOM     24  C   UNL     1      -6.485  12.556  17.272  0.00  0.00    +0.000 C 
ATOM     25  C   UNL     1      -5.113  12.196  17.764  0.00  0.00    +0.000 A 
ATOM     26  C   UNL     1      -4.718  12.492  19.073  0.00  0.00    +0.000 A 
ATOM     27  C   UNL     1      -3.452  12.121  19.537  0.00  0.00    +0.000 A 
ATOM     28  C   UNL     1      -2.563  11.448  18.689  0.00  0.00    +0.000 A 
ATOM     29  C   UNL     1      -2.949  11.166  17.370  0.00  0.00    +0.000 A 
ATOM     30  C   UNL     1      -4.218  11.535  16.917  0.00  0.00    +0.000 A 
ENDBRANCH  19  28
ENDBRANCH   1  21
TORSDOF 4
ENDMDL
MODEL 6
REMARK VINA RESULT:      -8.3      2.803     10.325
REMARK  Name = 
REMARK  6 active torsions:
REMARK  status: ('A' for Active; 'I' for Inactive)
REMARK    1  A    between atoms: C_1  and  C_2
REMARK    2  A    between atoms: C_5  and  N_6
REMARK    3  A    between atoms: C_8  and  C_9
REMARK    4  A    between atoms: N_11  and  C_12
REMARK    5  A    between atoms: C_16  and  N_17
REMARK    6  A    between atoms: C_24  and  C_25
REMARK                            x       y       z     vdW  Elec       q    Type
REMARK                         _______ _______ _______ _____ _____    ______ ____
ROOT
ATOM      1  C   UNL     1       0.467  10.041  19.203  0.00  0.00    +0.000 C 
ATOM      2  O   UNL     1      -0.495  10.097  18.444  0.00  0.00    +0.000 OA
ATOM      3  N   UNL     1       0.826  11.016  20.114  0.00  0.00    +0.000 N 
ATOM      4  H   UNL     1       1.788  10.984  20.428  0.00  0.00    +0.000 HD
ENDROOT
BRANCH   3   5
ATOM      5  C   UNL     1       0.078  12.189  20.332  0.00  0.00    +0.000 A 
ATOM      6  C   UNL     1       0.130  13.224  19.390  0.00  0.00    +0.000 A 
ATOM      7  C   UNL     1      -0.677  14.347  19.534  0.00  0.00    +0.000 A 
ATOM      8  C   UNL     1      -1.511  14.458  20.642  0.00  0.00    +0.000 A 
ATOM      9  C   UNL     1      -1.528  13.461  21.630  0.00  0.00    +0.000 A 
ATOM     10  C   UNL     1      -0.757  12.287  21.465  0.00  0.00    +0.000 A 
ATOM     11  C   UNL     1      -0.795  11.144  22.448  0.00  0.00    +0.000 C 
BRANCH   9  12
ATOM     12  N   UNL     1      -2.312  13.673  22.790  0.00  0.00    +0.000 N 
ATOM     13  C   UNL     1      -3.560  13.122  22.953  0.00  0.00    +0.000 C 
ATOM     14  O   UNL     1      -4.166  12.363  22.207  0.00  0.00    +0.000 OA
ATOM     15  C   UNL     1      -4.112  13.571  24.271  0.00  0.00    +0.000 C 
ATOM     16  C   UNL     1      -2.978  14.333  24.921  0.00  0.00    +0.000 C 
ATOM     17  C   UNL     1      -1.861  14.284  23.924  0.00  0.00    +0.000 C 
ATOM     18  O   UNL     1      -0.753  14.761  24.139  0.00  0.00    +0.000 OA
ENDBRANCH   9  12
ENDBRANCH   3   5
BRANCH   1  21
ATOM     19  N   UNL     1       2.776   7.365  18.517  0.00  0.00    +0.000 N 
ATOM     20  C   UNL     1       2.186   8.535  18.113  0.00  0.00    +0.000 A 
ATOM     21  C   UNL     1       1.395   8.922  19.172  0.00  0.00    +0.000 A 
ATOM     22  N   UNL     1       1.591   8.054  20.214  0.00  0.00    +0.000 NA
ATOM     23  N   UNL     1       2.428   7.109  19.806  0.00  0.00    +0.000 NA
BRANCH  19  28
ATOM     24  C   UNL     1       5.903   3.759  15.346  0.00  0.00    +0.000 C 
ATOM     25  C   UNL     1       5.119   4.708  16.204  0.00  0.00    +0.000 A 
ATOM     26  C   UNL     1       5.392   6.081  16.193  0.00  0.00    +0.000 A 
ATOM     27  C   UNL     1       4.634   6.965  16.967  0.00  0.00    +0.000 A 
ATOM     28  C   UNL     1       3.589   6.481  17.764  0.00  0.00    +0.000 A 
ATOM     29  C   UNL     1       3.323   5.104  17.791  0.00  0.00    +0.000 A 
ATOM     30  C   UNL     1       4.082   4.228  17.011  0.00  0.00    +0.000 A 
ENDBRANCH  19  28
ENDBRANCH   1  21
TORSDOF 4
ENDMDL
MODEL 7
REMARK VINA RESULT:      -8.2      2.803     10.430
REMARK  Name = 
REMARK  6 active torsions:
REMARK  status: ('A' for Active; 'I' for Inactive)
REMARK    1  A    between atoms: C_1  and  C_2
REMARK    2  A    between atoms: C_5  and  N_6
REMARK    3  A    between atoms: C_8  and  C_9
REMARK    4  A    between atoms: N_11  and  C_12
REMARK    5  A    between atoms: C_16  and  N_17
REMARK    6  A    between atoms: C_24  and  C_25
REMARK                            x       y       z     vdW  Elec       q    Type
REMARK                         _______ _______ _______ _____ _____    ______ ____
ROOT
ATOM      1  C   UNL     1       0.612   9.952  19.065  0.00  0.00    +0.000 C 
ATOM      2  O   UNL     1      -0.353  10.017  18.310  0.00  0.00    +0.000 OA
ATOM      3  N   UNL     1       0.975  10.918  19.984  0.00  0.00    +0.000 N 
ATOM      4  H   UNL     1       1.938  10.882  20.295  0.00  0.00    +0.000 HD
ENDROOT
BRANCH   3   5
ATOM      5  C   UNL     1       0.229  12.090  20.216  0.00  0.00    +0.000 A 
ATOM      6  C   UNL     1       0.334  13.162  19.320  0.00  0.00    +0.000 A 
ATOM      7  C   UNL     1      -0.468  14.287  19.473  0.00  0.00    +0.000 A 
ATOM      8  C   UNL     1      -1.351  14.362  20.546  0.00  0.00    +0.000 A 
ATOM      9  C   UNL     1      -1.423  13.327  21.490  0.00  0.00    +0.000 A 
ATOM     10  C   UNL     1      -0.656  12.152  21.312  0.00  0.00    +0.000 A 
ATOM     11  C   UNL     1      -0.751  10.970  22.245  0.00  0.00    +0.000 C 
BRANCH   9  12
ATOM     12  N   UNL     1      -2.257  13.501  22.621  0.00  0.00    +0.000 N 
ATOM     13  C   UNL     1      -1.841  14.155  23.756  0.00  0.00    +0.000 C 
ATOM     14  O   UNL     1      -0.772  14.712  23.970  0.00  0.00    +0.000 OA
ATOM     15  C   UNL     1      -2.956  14.132  24.756  0.00  0.00    +0.000 C 
ATOM     16  C   UNL     1      -4.121  13.510  24.016  0.00  0.00    +0.000 C 
ATOM     17  C   UNL     1      -3.589  13.205  22.649  0.00  0.00    +0.000 C 
ATOM     18  O   UNL     1      -4.281  12.736  21.753  0.00  0.00    +0.000 OA
ENDBRANCH   9  12
ENDBRANCH   3   5
BRANCH   1  21
ATOM     19  N   UNL     1       2.919   7.282  18.347  0.00  0.00    +0.000 N 
ATOM     20  C   UNL     1       2.330   8.459  17.958  0.00  0.00    +0.000 A 
ATOM     21  C   UNL     1       1.539   8.833  19.021  0.00  0.00    +0.000 A 
ATOM     22  N   UNL     1       1.733   7.951  20.051  0.00  0.00    +0.000 NA
ATOM     23  N   UNL     1       2.569   7.010  19.632  0.00  0.00    +0.000 NA
BRANCH  19  28
ATOM     24  C   UNL     1       6.042   3.706  15.139  0.00  0.00    +0.000 C 
ATOM     25  C   UNL     1       5.259   4.649  16.005  0.00  0.00    +0.000 A 
ATOM     26  C   UNL     1       5.494   6.028  15.963  0.00  0.00    +0.000 A 
ATOM     27  C   UNL     1       4.736   6.905  16.745  0.00  0.00    +0.000 A 
ATOM     28  C   UNL     1       3.731   6.407  17.584  0.00  0.00    +0.000 A 
ATOM     29  C   UNL     1       3.504   5.025  17.642  0.00  0.00    +0.000 A 
ATOM     30  C   UNL     1       4.262   4.156  16.853  0.00  0.00    +0.000 A 
ENDBRANCH  19  28
ENDBRANCH   1  21
TORSDOF 4
ENDMDL
MODEL 8
REMARK VINA RESULT:      -8.2      2.205      3.233
REMARK  Name = 
REMARK  6 active torsions:
REMARK  status: ('A' for Active; 'I' for Inactive)
REMARK    1  A    between atoms: C_1  and  C_2
REMARK    2  A    between atoms: C_5  and  N_6
REMARK    3  A    between atoms: C_8  and  C_9
REMARK    4  A    between atoms: N_11  and  C_12
REMARK    5  A    between atoms: C_16  and  N_17
REMARK    6  A    between atoms: C_24  and  C_25
REMARK                            x       y       z     vdW  Elec       q    Type
REMARK                         _______ _______ _______ _____ _____    ______ ____
ROOT
ATOM      1  C   UNL     1       1.323   8.405  20.813  0.00  0.00    +0.000 C 
ATOM      2  O   UNL     1       1.845   8.252  21.913  0.00  0.00    +0.000 OA
ATOM      3  N   UNL     1       1.506   7.579  19.719  0.00  0.00    +0.000 N 
ATOM      4  H   UNL     1       1.284   7.992  18.822  0.00  0.00    +0.000 HD
ENDROOT
BRANCH   3   5
ATOM      5  C   UNL     1       2.278   6.402  19.754  0.00  0.00    +0.000 A 
ATOM      6  C   UNL     1       1.910   5.363  20.618  0.00  0.00    +0.000 A 
ATOM      7  C   UNL     1       2.596   4.154  20.596  0.00  0.00    +0.000 A 
ATOM      8  C   UNL     1       3.678   3.993  19.737  0.00  0.00    +0.000 A 
ATOM      9  C   UNL     1       4.102   5.044  18.910  0.00  0.00    +0.000 A 
ATOM     10  C   UNL     1       3.376   6.258  18.880  0.00  0.00    +0.000 A 
ATOM     11  C   UNL     1       3.729   7.395  17.954  0.00  0.00    +0.000 C 
BRANCH   9  12
ATOM     12  N   UNL     1       5.273   4.865  18.135  0.00  0.00    +0.000 N 
ATOM     13  C   UNL     1       6.535   5.065  18.641  0.00  0.00    +0.000 C 
ATOM     14  O   UNL     1       6.864   5.365  19.782  0.00  0.00    +0.000 OA
ATOM     15  C   UNL     1       7.532   4.816  17.551  0.00  0.00    +0.000 C 
ATOM     16  C   UNL     1       6.708   4.308  16.388  0.00  0.00    +0.000 C 
ATOM     17  C   UNL     1       5.294   4.318  16.886  0.00  0.00    +0.000 C 
ATOM     18  O   UNL     1       4.349   3.914  16.219  0.00  0.00    +0.000 OA
ENDBRANCH   9  12
ENDBRANCH   3   5
BRANCH   1  21
ATOM     19  N   UNL     1      -0.946  11.198  20.692  0.00  0.00    +0.000 N 
ATOM     20  C   UNL     1      -0.174  10.347  21.441  0.00  0.00    +0.000 A 
ATOM     21  C   UNL     1       0.475   9.550  20.525  0.00  0.00    +0.000 A 
ATOM     22  N   UNL     1       0.170   9.986  19.262  0.00  0.00    +0.000 NA
ATOM     23  N   UNL     1      -0.697  10.983  19.372  0.00  0.00    +0.000 NA
BRANCH  19  28
ATOM     24  C   UNL     1      -4.976  14.863  22.468  0.00  0.00    +0.000 C 
ATOM     25  C   UNL     1      -3.891  13.936  22.007  0.00  0.00    +0.000 A 
ATOM     26  C   UNL     1      -2.937  13.442  22.904  0.00  0.00    +0.000 A 
ATOM     27  C   UNL     1      -1.950  12.548  22.475  0.00  0.00    +0.000 A 
ATOM     28  C   UNL     1      -1.907  12.140  21.136  0.00  0.00    +0.000 A 
ATOM     29  C   UNL     1      -2.850  12.646  20.230  0.00  0.00    +0.000 A 
ATOM     30  C   UNL     1      -3.836  13.534  20.668  0.00  0.00    +0.000 A 
ENDBRANCH  19  28
ENDBRANCH   1  21
TORSDOF 4
ENDMDL
MODEL 9
REMARK VINA RESULT:      -8.2      1.052      1.337
REMARK  Name = 
REMARK  6 active torsions:
REMARK  status: ('A' for Active; 'I' for Inactive)
REMARK    1  A    between atoms: C_1  and  C_2
REMARK    2  A    between atoms: C_5  and  N_6
REMARK    3  A    between atoms: C_8  and  C_9
REMARK    4  A    between atoms: N_11  and  C_12
REMARK    5  A    between atoms: C_16  and  N_17
REMARK    6  A    between atoms: C_24  and  C_25
REMARK                            x       y       z     vdW  Elec       q    Type
REMARK                         _______ _______ _______ _____ _____    ______ ____
ROOT
ATOM      1  C   UNL     1       0.951   9.425  19.280  0.00  0.00    +0.000 C 
ATOM      2  O   UNL     1       0.717   9.641  18.095  0.00  0.00    +0.000 OA
ATOM      3  N   UNL     1       1.753   8.409  19.764  0.00  0.00    +0.000 N 
ATOM      4  H   UNL     1       1.600   8.160  20.734  0.00  0.00    +0.000 HD
ENDROOT
BRANCH   3   5
ATOM      5  C   UNL     1       2.465   7.519  18.938  0.00  0.00    +0.000 A 
ATOM      6  C   UNL     1       3.149   8.015  17.820  0.00  0.00    +0.000 A 
ATOM      7  C   UNL     1       3.941   7.171  17.050  0.00  0.00    +0.000 A 
ATOM      8  C   UNL     1       4.021   5.820  17.370  0.00  0.00    +0.000 A 
ATOM      9  C   UNL     1       3.293   5.293  18.447  0.00  0.00    +0.000 A 
ATOM     10  C   UNL     1       2.531   6.151  19.274  0.00  0.00    +0.000 A 
ATOM     11  C   UNL     1       1.793   5.660  20.495  0.00  0.00    +0.000 C 
BRANCH   9  12
ATOM     12  N   UNL     1       3.324   3.894  18.664  0.00  0.00    +0.000 N 
ATOM     13  C   UNL     1       2.346   3.049  18.196  0.00  0.00    +0.000 C 
ATOM     14  O   UNL     1       1.365   3.316  17.513  0.00  0.00    +0.000 OA
ATOM     15  C   UNL     1       2.677   1.652  18.625  0.00  0.00    +0.000 C 
ATOM     16  C   UNL     1       4.037   1.764  19.278  0.00  0.00    +0.000 C 
ATOM     17  C   UNL     1       4.385   3.219  19.192  0.00  0.00    +0.000 C 
ATOM     18  O   UNL     1       5.455   3.673  19.581  0.00  0.00    +0.000 OA
ENDBRANCH   9  12
ENDBRANCH   3   5
BRANCH   1  21
ATOM     19  N   UNL     1      -0.265  11.852  21.646  0.00  0.00    +0.000 N 
ATOM     20  C   UNL     1       0.302  11.588  20.425  0.00  0.00    +0.000 A 
ATOM     21  C   UNL     1       0.334  10.214  20.333  0.00  0.00    +0.000 A 
ATOM     22  N   UNL     1      -0.292   9.681  21.430  0.00  0.00    +0.000 NA
ATOM     23  N   UNL     1      -0.648  10.682  22.224  0.00  0.00    +0.000 NA
BRANCH  19  28
ATOM     24  C   UNL     1      -0.989  16.979  24.099  0.00  0.00    +0.000 C 
ATOM     25  C   UNL     1      -0.779  15.622  23.493  0.00  0.00    +0.000 A 
ATOM     26  C   UNL     1      -1.520  14.518  23.928  0.00  0.00    +0.000 A 
ATOM     27  C   UNL     1      -1.346  13.264  23.334  0.00  0.00    +0.000 A 
ATOM     28  C   UNL     1      -0.421  13.102  22.295  0.00  0.00    +0.000 A 
ATOM     29  C   UNL     1       0.337  14.202  21.868  0.00  0.00    +0.000 A 
ATOM     30  C   UNL     1       0.152  15.453  22.463  0.00  0.00    +0.000 A 
ENDBRANCH  19  28
ENDBRANCH   1  21
TORSDOF 4
ENDMDL
