MODEL 1
REMARK VINA RESULT:      -8.0      0.000      0.000
REMARK  Name = 
REMARK  2 active torsions:
REMARK  status: ('A' for Active; 'I' for Inactive)
REMARK    1  A    between atoms: C_2  and  C_3
REMARK    2  A    between atoms: C_6  and  N_7
REMARK                            x       y       z     vdW  Elec       q    Type
REMARK                         _______ _______ _______ _____ _____    ______ ____
ROOT
ATOM      1  O   UNL     1      -0.618   9.602  17.555  0.00  0.00    +0.000 OA
ATOM      2  C   UNL     1       0.137  10.058  18.405  0.00  0.00    +0.000 C 
ATOM      3  N   UNL     1      -0.102  11.175  19.272  0.00  0.00    +0.000 N 
ATOM      4  C   UNL     1       0.935  11.774  20.132  0.00  0.00    +0.000 C 
ATOM      5  C   UNL     1       0.566  11.967  21.583  0.00  0.00    +0.000 C 
ATOM      6  C   UNL     1      -0.763  12.640  21.759  0.00  0.00    +0.000 C 
ATOM      7  C   UNL     1      -1.757  12.340  20.666  0.00  0.00    +0.000 A 
ATOM      8  C   UNL     1      -3.084  12.726  20.945  0.00  0.00    +0.000 A 
ATOM      9  C   UNL     1      -4.067  12.571  19.987  0.00  0.00    +0.000 A 
ATOM     10  F   UNL     1      -5.328  12.926  20.271  0.00  0.00    +0.000 F 
ATOM     11  C   UNL     1      -3.748  12.088  18.732  0.00  0.00    +0.000 A 
ATOM     12  C   UNL     1      -2.435  11.687  18.465  0.00  0.00    +0.000 A 
ATOM     13  F   UNL     1      -2.173  11.367  17.187  0.00  0.00    +0.000 F 
ATOM     14  C   UNL     1      -1.425  11.739  19.435  0.00  0.00    +0.000 A 
ENDROOT
BRANCH   2  15
ATOM     15  C   UNL     1       1.284   9.178  18.761  0.00  0.00    +0.000 A 
ATOM     16  C   UNL     1       1.354   8.453  19.947  0.00  0.00    +0.000 A 
ATOM     17  C   UNL     1       1.985   7.199  19.925  0.00  0.00    +0.000 A 
ATOM     18  C   UNL     1       2.700   6.760  18.798  0.00  0.00    +0.000 A 
ATOM     19  C   UNL     1       2.859   7.662  17.735  0.00  0.00    +0.000 A 
ATOM     20  C   UNL     1       2.138   8.855  17.704  0.00  0.00    +0.000 A 
BRANCH  18  21
ATOM     21  N   UNL     1       3.200   5.429  18.712  0.00  0.00    +0.000 N 
ATOM     22  C   UNL     1       2.524   4.392  18.104  0.00  0.00    +0.000 C 
ATOM     23  O   UNL     1       1.447   4.416  17.521  0.00  0.00    +0.000 OA
ATOM     24  C   UNL     1       3.372   3.155  18.152  0.00  0.00    +0.000 C 
ATOM     25  C   UNL     1       4.615   3.572  18.896  0.00  0.00    +0.000 C 
ATOM     26  C   UNL     1       4.458   5.043  19.107  0.00  0.00    +0.000 C 
ATOM     27  O   UNL     1       5.349   5.718  19.611  0.00  0.00    +0.000 OA
ENDBRANCH  18  21
ENDBRANCH   2  15
TORSDOF 2
ENDMDL
MODEL 2
REMARK VINA RESULT:      -8.0      0.107      1.463
REMARK  Name = 
REMARK  2 active torsions:
REMARK  status: ('A' for Active; 'I' for Inactive)
REMARK    1  A    between atoms: C_2  and  C_3
REMARK    2  A    between atoms: C_6  and  N_7
REMARK                            x       y       z     vdW  Elec       q    Type
REMARK                         _______ _______ _______ _____ _____    ______ ____
ROOT
ATOM      1  O   UNL     1      -0.621   9.606  17.589  0.00  0.00    +0.000 OA
ATOM      2  C   UNL     1       0.156  10.074  18.411  0.00  0.00    +0.000 C 
ATOM      3  N   UNL     1      -0.062  11.198  19.275  0.00  0.00    +0.000 N 
ATOM      4  C   UNL     1       0.998  11.809  20.098  0.00  0.00    +0.000 C 
ATOM      5  C   UNL     1       0.672  12.014  21.557  0.00  0.00    +0.000 C 
ATOM      6  C   UNL     1      -0.654  12.682  21.768  0.00  0.00    +0.000 C 
ATOM      7  C   UNL     1      -1.680  12.368  20.708  0.00  0.00    +0.000 A 
ATOM      8  C   UNL     1      -2.999  12.749  21.023  0.00  0.00    +0.000 A 
ATOM      9  C   UNL     1      -4.010  12.581  20.097  0.00  0.00    +0.000 A 
ATOM     10  F   UNL     1      -5.264  12.932  20.416  0.00  0.00    +0.000 F 
ATOM     11  C   UNL     1      -3.727  12.088  18.837  0.00  0.00    +0.000 A 
ATOM     12  C   UNL     1      -2.420  11.691  18.535  0.00  0.00    +0.000 A 
ATOM     13  F   UNL     1      -2.196  11.360  17.252  0.00  0.00    +0.000 F 
ATOM     14  C   UNL     1      -1.382  11.757  19.473  0.00  0.00    +0.000 A 
ENDROOT
BRANCH   2  15
ATOM     15  C   UNL     1       1.318   9.203  18.741  0.00  0.00    +0.000 A 
ATOM     16  C   UNL     1       1.400   8.440  19.902  0.00  0.00    +0.000 A 
ATOM     17  C   UNL     1       2.053   7.200  19.840  0.00  0.00    +0.000 A 
ATOM     18  C   UNL     1       2.776   6.810  18.701  0.00  0.00    +0.000 A 
ATOM     19  C   UNL     1       2.920   7.748  17.668  0.00  0.00    +0.000 A 
ATOM     20  C   UNL     1       2.178   8.929  17.675  0.00  0.00    +0.000 A 
BRANCH  18  21
ATOM     21  N   UNL     1       3.299   5.490  18.573  0.00  0.00    +0.000 N 
ATOM     22  C   UNL     1       4.532   5.103  19.051  0.00  0.00    +0.000 C 
ATOM     23  O   UNL     1       5.356   5.764  19.673  0.00  0.00    +0.000 OA
ATOM     24  C   UNL     1       4.725   3.638  18.791  0.00  0.00    +0.000 C 
ATOM     25  C   UNL     1       3.473   3.210  18.067  0.00  0.00    +0.000 C 
ATOM     26  C   UNL     1       2.595   4.420  18.078  0.00  0.00    +0.000 C 
ATOM     27  O   UNL     1       1.449   4.384  17.642  0.00  0.00    +0.000 OA
ENDBRANCH  18  21
ENDBRANCH   2  15
TORSDOF 2
ENDMDL
MODEL 3
REMARK VINA RESULT:      -7.8      0.994      1.866
REMARK  Name = 
REMARK  2 active torsions:
REMARK  status: ('A' for Active; 'I' for Inactive)
REMARK    1  A    between atoms: C_2  and  C_3
REMARK    2  A    between atoms: C_6  and  N_7
REMARK                            x       y       z     vdW  Elec       q    Type
REMARK                         _______ _______ _______ _____ _____    ______ ____
ROOT
ATOM      1  O   UNL     1      -0.993   9.641  18.676  0.00  0.00    +0.000 OA
ATOM      2  C   UNL     1       0.072  10.204  18.895  0.00  0.00    +0.000 C 
ATOM      3  N   UNL     1       0.270  11.556  19.328  0.00  0.00    +0.000 N 
ATOM      4  C   UNL     1       1.591  12.208  19.383  0.00  0.00    +0.000 C 
ATOM      5  C   UNL     1       1.939  12.897  20.680  0.00  0.00    +0.000 C 
ATOM      6  C   UNL     1       0.848  13.804  21.167  0.00  0.00    +0.000 C 
ATOM      7  C   UNL     1      -0.541  13.353  20.796  0.00  0.00    +0.000 A 
ATOM      8  C   UNL     1      -1.585  14.022  21.467  0.00  0.00    +0.000 A 
ATOM      9  C   UNL     1      -2.901  13.747  21.152  0.00  0.00    +0.000 A 
ATOM     10  F   UNL     1      -3.884  14.377  21.810  0.00  0.00    +0.000 F 
ATOM     11  C   UNL     1      -3.204  12.855  20.140  0.00  0.00    +0.000 A 
ATOM     12  C   UNL     1      -2.168  12.178  19.490  0.00  0.00    +0.000 A 
ATOM     13  F   UNL     1      -2.532  11.442  18.427  0.00  0.00    +0.000 F 
ATOM     14  C   UNL     1      -0.823  12.356  19.839  0.00  0.00    +0.000 A 
ENDROOT
BRANCH   2  15
ATOM     15  C   UNL     1       1.249   9.297  19.002  0.00  0.00    +0.000 A 
ATOM     16  C   UNL     1       1.499   8.493  20.110  0.00  0.00    +0.000 A 
ATOM     17  C   UNL     1       2.100   7.241  19.903  0.00  0.00    +0.000 A 
ATOM     18  C   UNL     1       2.616   6.877  18.648  0.00  0.00    +0.000 A 
ATOM     19  C   UNL     1       2.614   7.847  17.635  0.00  0.00    +0.000 A 
ATOM     20  C   UNL     1       1.915   9.042  17.801  0.00  0.00    +0.000 A 
BRANCH  18  21
ATOM     21  N   UNL     1       3.075   5.552  18.395  0.00  0.00    +0.000 N 
ATOM     22  C   UNL     1       4.299   5.071  18.809  0.00  0.00    +0.000 C 
ATOM     23  O   UNL     1       5.164   5.638  19.465  0.00  0.00    +0.000 OA
ATOM     24  C   UNL     1       4.419   3.626  18.419  0.00  0.00    +0.000 C 
ATOM     25  C   UNL     1       3.135   3.318  17.692  0.00  0.00    +0.000 C 
ATOM     26  C   UNL     1       2.313   4.560  17.827  0.00  0.00    +0.000 C 
ATOM     27  O   UNL     1       1.159   4.612  17.418  0.00  0.00    +0.000 OA
ENDBRANCH  18  21
ENDBRANCH   2  15
TORSDOF 2
ENDMDL
MODEL 4
REMARK VINA RESULT:      -7.7      3.580      8.601
REMARK  Name = 
REMARK  2 active torsions:
REMARK  status: ('A' for Active; 'I' for Inactive)
REMARK    1  A    between atoms: C_2  and  C_3
REMARK    2  A    between atoms: C_6  and  N_7
REMARK                            x       y       z     vdW  Elec       q    Type
REMARK                         _______ _______ _______ _____ _____    ______ ____
ROOT
ATOM      1  O   UNL     1       3.137   8.654  17.342  0.00  0.00    +0.000 OA
ATOM      2  C   UNL     1       2.503   7.874  18.043  0.00  0.00    +0.000 C 
ATOM      3  N   UNL     1       2.796   6.493  18.292  0.00  0.00    +0.000 N 
ATOM      4  C   UNL     1       1.876   5.580  18.994  0.00  0.00    +0.000 C 
ATOM      5  C   UNL     1       2.469   4.780  20.128  0.00  0.00    +0.000 C 
ATOM      6  C   UNL     1       3.751   4.099  19.750  0.00  0.00    +0.000 C 
ATOM      7  C   UNL     1       4.566   4.842  18.722  0.00  0.00    +0.000 A 
ATOM      8  C   UNL     1       5.886   4.377  18.557  0.00  0.00    +0.000 A 
ATOM      9  C   UNL     1       6.701   4.931  17.590  0.00  0.00    +0.000 A 
ATOM     10  F   UNL     1       7.960   4.491  17.454  0.00  0.00    +0.000 F 
ATOM     11  C   UNL     1       6.213   5.909  16.743  0.00  0.00    +0.000 A 
ATOM     12  C   UNL     1       4.910   6.383  16.923  0.00  0.00    +0.000 A 
ATOM     13  F   UNL     1       4.462   7.223  15.975  0.00  0.00    +0.000 F 
ATOM     14  C   UNL     1       4.078   5.916  17.949  0.00  0.00    +0.000 A 
ENDROOT
BRANCH   2  15
ATOM     15  C   UNL     1       1.507   8.512  18.947  0.00  0.00    +0.000 A 
ATOM     16  C   UNL     1       1.578   8.445  20.335  0.00  0.00    +0.000 A 
ATOM     17  C   UNL     1       1.135   9.550  21.079  0.00  0.00    +0.000 A 
ATOM     18  C   UNL     1       0.458  10.618  20.469  0.00  0.00    +0.000 A 
ATOM     19  C   UNL     1       0.138  10.496  19.108  0.00  0.00    +0.000 A 
ATOM     20  C   UNL     1       0.678   9.462  18.345  0.00  0.00    +0.000 A 
BRANCH  18  21
ATOM     21  N   UNL     1       0.154  11.809  21.190  0.00  0.00    +0.000 N 
ATOM     22  C   UNL     1      -0.767  11.873  22.214  0.00  0.00    +0.000 C 
ATOM     23  O   UNL     1      -1.438  10.971  22.700  0.00  0.00    +0.000 OA
ATOM     24  C   UNL     1      -0.783  13.265  22.777  0.00  0.00    +0.000 C 
ATOM     25  C   UNL     1       0.212  14.028  21.940  0.00  0.00    +0.000 C 
ATOM     26  C   UNL     1       0.826  12.999  21.045  0.00  0.00    +0.000 C 
ATOM     27  O   UNL     1       1.751  13.276  20.289  0.00  0.00    +0.000 OA
ENDBRANCH  18  21
ENDBRANCH   2  15
TORSDOF 2
ENDMDL
MODEL 5
REMARK VINA RESULT:      -7.7      3.544      8.665
REMARK  Name = 
REMARK  2 active torsions:
REMARK  status: ('A' for Active; 'I' for Inactive)
REMARK    1  A    between atoms: C_2  and  C_3
REMARK    2  A    between atoms: C_6  and  N_7
REMARK                            x       y       z     vdW  Elec       q    Type
REMARK                         _______ _______ _______ _____ _____    ______ ____
ROOT
ATOM      1  O   UNL     1       2.874   8.733  18.046  0.00  0.00    +0.000 OA
ATOM      2  C   UNL     1       2.245   7.940  18.735  0.00  0.00    +0.000 C 
ATOM      3  N   UNL     1       2.519   6.546  18.930  0.00  0.00    +0.000 N 
ATOM      4  C   UNL     1       1.600   5.624  19.623  0.00  0.00    +0.000 C 
ATOM      5  C   UNL     1       2.206   4.777  20.715  0.00  0.00    +0.000 C 
ATOM      6  C   UNL     1       3.466   4.088  20.282  0.00  0.00    +0.000 C 
ATOM      7  C   UNL     1       4.269   4.852  19.261  0.00  0.00    +0.000 A 
ATOM      8  C   UNL     1       5.577   4.371  19.048  0.00  0.00    +0.000 A 
ATOM      9  C   UNL     1       6.379   4.945  18.081  0.00  0.00    +0.000 A 
ATOM     10  F   UNL     1       7.626   4.489  17.900  0.00  0.00    +0.000 F 
ATOM     11  C   UNL     1       5.887   5.959  17.279  0.00  0.00    +0.000 A 
ATOM     12  C   UNL     1       4.598   6.448  17.507  0.00  0.00    +0.000 A 
ATOM     13  F   UNL     1       4.142   7.328  16.600  0.00  0.00    +0.000 F 
ATOM     14  C   UNL     1       3.783   5.959  18.537  0.00  0.00    +0.000 A 
ENDROOT
BRANCH   2  15
ATOM     15  C   UNL     1       1.281   8.563  19.684  0.00  0.00    +0.000 A 
ATOM     16  C   UNL     1       1.480   8.606  21.061  0.00  0.00    +0.000 A 
ATOM     17  C   UNL     1       1.012   9.724  21.768  0.00  0.00    +0.000 A 
ATOM     18  C   UNL     1       0.194  10.687  21.153  0.00  0.00    +0.000 A 
ATOM     19  C   UNL     1      -0.233  10.438  19.840  0.00  0.00    +0.000 A 
ATOM     20  C   UNL     1       0.323   9.395  19.100  0.00  0.00    +0.000 A 
BRANCH  18  21
ATOM     21  N   UNL     1      -0.146  11.901  21.818  0.00  0.00    +0.000 N 
ATOM     22  C   UNL     1       0.385  13.130  21.491  0.00  0.00    +0.000 C 
ATOM     23  O   UNL     1       1.176  13.412  20.599  0.00  0.00    +0.000 OA
ATOM     24  C   UNL     1      -0.242  14.184  22.357  0.00  0.00    +0.000 C 
ATOM     25  C   UNL     1      -1.180  13.428  23.262  0.00  0.00    +0.000 C 
ATOM     26  C   UNL     1      -1.129  12.017  22.770  0.00  0.00    +0.000 C 
ATOM     27  O   UNL     1      -1.856  11.147  23.239  0.00  0.00    +0.000 OA
ENDBRANCH  18  21
ENDBRANCH   2  15
TORSDOF 2
ENDMDL
MODEL 6
REMARK VINA RESULT:      -7.7      1.119      1.350
REMARK  Name = 
REMARK  2 active torsions:
REMARK  status: ('A' for Active; 'I' for Inactive)
REMARK    1  A    between atoms: C_2  and  C_3
REMARK    2  A    between atoms: C_6  and  N_7
REMARK                            x       y       z     vdW  Elec       q    Type
REMARK                         _______ _______ _______ _____ _____    ______ ____
ROOT
ATOM      1  O   UNL     1      -1.040   9.642  19.002  0.00  0.00    +0.000 OA
ATOM      2  C   UNL     1       0.046  10.199  19.101  0.00  0.00    +0.000 C 
ATOM      3  N   UNL     1       0.294  11.574  19.426  0.00  0.00    +0.000 N 
ATOM      4  C   UNL     1       1.623  12.204  19.336  0.00  0.00    +0.000 C 
ATOM      5  C   UNL     1       2.080  12.970  20.554  0.00  0.00    +0.000 C 
ATOM      6  C   UNL     1       1.041  13.926  21.062  0.00  0.00    +0.000 C 
ATOM      7  C   UNL     1      -0.379  13.477  20.829  0.00  0.00    +0.000 A 
ATOM      8  C   UNL     1      -1.358  14.206  21.532  0.00  0.00    +0.000 A 
ATOM      9  C   UNL     1      -2.698  13.933  21.338  0.00  0.00    +0.000 A 
ATOM     10  F   UNL     1      -3.619  14.623  22.026  0.00  0.00    +0.000 F 
ATOM     11  C   UNL     1      -3.090  12.983  20.415  0.00  0.00    +0.000 A 
ATOM     12  C   UNL     1      -2.116  12.247  19.733  0.00  0.00    +0.000 A 
ATOM     13  F   UNL     1      -2.571  11.449  18.753  0.00  0.00    +0.000 F 
ATOM     14  C   UNL     1      -0.746  12.424  19.966  0.00  0.00    +0.000 A 
ENDROOT
BRANCH   2  15
ATOM     15  C   UNL     1       1.216   9.281  19.177  0.00  0.00    +0.000 A 
ATOM     16  C   UNL     1       1.501   8.492  20.288  0.00  0.00    +0.000 A 
ATOM     17  C   UNL     1       2.080   7.231  20.079  0.00  0.00    +0.000 A 
ATOM     18  C   UNL     1       2.543   6.840  18.811  0.00  0.00    +0.000 A 
ATOM     19  C   UNL     1       2.511   7.793  17.783  0.00  0.00    +0.000 A 
ATOM     20  C   UNL     1       1.833   8.999  17.955  0.00  0.00    +0.000 A 
BRANCH  18  21
ATOM     21  N   UNL     1       2.977   5.505  18.563  0.00  0.00    +0.000 N 
ATOM     22  C   UNL     1       2.223   4.563  17.897  0.00  0.00    +0.000 C 
ATOM     23  O   UNL     1       1.116   4.687  17.387  0.00  0.00    +0.000 OA
ATOM     24  C   UNL     1       3.017   3.296  17.769  0.00  0.00    +0.000 C 
ATOM     25  C   UNL     1       4.318   3.587  18.473  0.00  0.00    +0.000 C 
ATOM     26  C   UNL     1       4.238   5.034  18.839  0.00  0.00    +0.000 C 
ATOM     27  O   UNL     1       5.185   5.620  19.352  0.00  0.00    +0.000 OA
ENDBRANCH  18  21
ENDBRANCH   2  15
TORSDOF 2
ENDMDL
MODEL 7
REMARK VINA RESULT:      -7.6      1.508      1.769
REMARK  Name = 
REMARK  2 active torsions:
REMARK  status: ('A' for Active; 'I' for Inactive)
REMARK    1  A    between atoms: C_2  and  C_3
REMARK    2  A    between atoms: C_6  and  N_7
REMARK                            x       y       z     vdW  Elec       q    Type
REMARK                         _______ _______ _______ _____ _____    ______ ____
ROOT
ATOM      1  O   UNL     1       1.020   9.563  18.104  0.00  0.00    +0.000 OA
ATOM      2  C   UNL     1       1.335   9.381  19.273  0.00  0.00    +0.000 C 
ATOM      3  N   UNL     1       0.846  10.079  20.426  0.00  0.00    +0.000 N 
ATOM      4  C   UNL     1       1.420   9.924  21.775  0.00  0.00    +0.000 C 
ATOM      5  C   UNL     1       0.440   9.638  22.887  0.00  0.00    +0.000 C 
ATOM      6  C   UNL     1      -0.732  10.575  22.882  0.00  0.00    +0.000 C 
ATOM      7  C   UNL     1      -1.126  11.065  21.512  0.00  0.00    +0.000 A 
ATOM      8  C   UNL     1      -2.376  11.713  21.447  0.00  0.00    +0.000 A 
ATOM      9  C   UNL     1      -2.807  12.272  20.260  0.00  0.00    +0.000 A 
ATOM     10  F   UNL     1      -4.005  12.870  20.208  0.00  0.00    +0.000 F 
ATOM     11  C   UNL     1      -1.994  12.247  19.142  0.00  0.00    +0.000 A 
ATOM     12  C   UNL     1      -0.764  11.585  19.204  0.00  0.00    +0.000 A 
ATOM     13  F   UNL     1       0.027  11.728  18.127  0.00  0.00    +0.000 F 
ATOM     14  C   UNL     1      -0.327  10.925  20.360  0.00  0.00    +0.000 A 
ENDROOT
BRANCH   2  15
ATOM     15  C   UNL     1       2.075   8.114  19.531  0.00  0.00    +0.000 A 
ATOM     16  C   UNL     1       1.684   7.179  20.485  0.00  0.00    +0.000 A 
ATOM     17  C   UNL     1       1.910   5.820  20.217  0.00  0.00    +0.000 A 
ATOM     18  C   UNL     1       2.680   5.410  19.116  0.00  0.00    +0.000 A 
ATOM     19  C   UNL     1       3.311   6.405  18.355  0.00  0.00    +0.000 A 
ATOM     20  C   UNL     1       2.994   7.750  18.545  0.00  0.00    +0.000 A 
BRANCH  18  21
ATOM     21  N   UNL     1       2.774   4.036  18.751  0.00  0.00    +0.000 N 
ATOM     22  C   UNL     1       1.859   3.391  17.946  0.00  0.00    +0.000 C 
ATOM     23  O   UNL     1       0.867   3.850  17.391  0.00  0.00    +0.000 OA
ATOM     24  C   UNL     1       2.305   1.975  17.727  0.00  0.00    +0.000 C 
ATOM     25  C   UNL     1       3.575   1.846  18.530  0.00  0.00    +0.000 C 
ATOM     26  C   UNL     1       3.842   3.224  19.044  0.00  0.00    +0.000 C 
ATOM     27  O   UNL     1       4.863   3.489  19.669  0.00  0.00    +0.000 OA
ENDBRANCH  18  21
ENDBRANCH   2  15
TORSDOF 2
ENDMDL
MODEL 8
REMARK VINA RESULT:      -7.5      3.513      8.723
REMARK  Name = 
REMARK  2 active torsions:
REMARK  status: ('A' for Active; 'I' for Inactive)
REMARK    1  A    between atoms: C_2  and  C_3
REMARK    2  A    between atoms: C_6  and  N_7
REMARK                            x       y       z     vdW  Elec       q    Type
REMARK                         _______ _______ _______ _____ _____    ______ ____
ROOT
ATOM      1  O   UNL     1       3.263   8.622  17.164  0.00  0.00    +0.000 OA
ATOM      2  C   UNL     1       2.580   7.879  17.857  0.00  0.00    +0.000 C 
ATOM      3  N   UNL     1       2.840   6.506  18.180  0.00  0.00    +0.000 N 
ATOM      4  C   UNL     1       1.869   5.633  18.864  0.00  0.00    +0.000 C 
ATOM      5  C   UNL     1       2.384   4.875  20.063  0.00  0.00    +0.000 C 
ATOM      6  C   UNL     1       3.677   4.166  19.790  0.00  0.00    +0.000 C 
ATOM      7  C   UNL     1       4.561   4.858  18.783  0.00  0.00    +0.000 A 
ATOM      8  C   UNL     1       5.882   4.372  18.716  0.00  0.00    +0.000 A 
ATOM      9  C   UNL     1       6.760   4.877  17.777  0.00  0.00    +0.000 A 
ATOM     10  F   UNL     1       8.019   4.419  17.735  0.00  0.00    +0.000 F 
ATOM     11  C   UNL     1       6.335   5.823  16.863  0.00  0.00    +0.000 A 
ATOM     12  C   UNL     1       5.030   6.318  16.945  0.00  0.00    +0.000 A 
ATOM     13  F   UNL     1       4.649   7.122  15.938  0.00  0.00    +0.000 F 
ATOM     14  C   UNL     1       4.133   5.902  17.939  0.00  0.00    +0.000 A 
ENDROOT
BRANCH   2  15
ATOM     15  C   UNL     1       1.540   8.564  18.673  0.00  0.00    +0.000 A 
ATOM     16  C   UNL     1       1.543   8.577  20.065  0.00  0.00    +0.000 A 
ATOM     17  C   UNL     1       1.063   9.720  20.722  0.00  0.00    +0.000 A 
ATOM     18  C   UNL     1       0.416  10.750  20.018  0.00  0.00    +0.000 A 
ATOM     19  C   UNL     1       0.164  10.549  18.653  0.00  0.00    +0.000 A 
ATOM     20  C   UNL     1       0.741   9.475  17.977  0.00  0.00    +0.000 A 
BRANCH  18  21
ATOM     21  N   UNL     1       0.077  11.979  20.655  0.00  0.00    +0.000 N 
ATOM     22  C   UNL     1       1.005  12.899  21.094  0.00  0.00    +0.000 C 
ATOM     23  O   UNL     1       2.226  12.862  20.999  0.00  0.00    +0.000 OA
ATOM     24  C   UNL     1       0.290  14.092  21.658  0.00  0.00    +0.000 C 
ATOM     25  C   UNL     1      -1.174  13.753  21.535  0.00  0.00    +0.000 C 
ATOM     26  C   UNL     1      -1.204  12.456  20.793  0.00  0.00    +0.000 C 
ATOM     27  O   UNL     1      -2.261  11.941  20.444  0.00  0.00    +0.000 OA
ENDBRANCH  18  21
ENDBRANCH   2  15
TORSDOF 2
ENDMDL
MODEL 9
REMARK VINA RESULT:      -7.4      1.494      2.256
REMARK  Name = 
REMARK  2 active torsions:
REMARK  status: ('A' for Active; 'I' for Inactive)
REMARK    1  A    between atoms: C_2  and  C_3
REMARK    2  A    between atoms: C_6  and  N_7
REMARK                            x       y       z     vdW  Elec       q    Type
REMARK                         _______ _______ _______ _____ _____    ______ ____
ROOT
ATOM      1  O   UNL     1       1.026   9.517  17.966  0.00  0.00    +0.000 OA
ATOM      2  C   UNL     1       1.366   9.351  19.131  0.00  0.00    +0.000 C 
ATOM      3  N   UNL     1       0.903  10.067  20.284  0.00  0.00    +0.000 N 
ATOM      4  C   UNL     1       1.505   9.930  21.623  0.00  0.00    +0.000 C 
ATOM      5  C   UNL     1       0.549   9.663  22.759  0.00  0.00    +0.000 C 
ATOM      6  C   UNL     1      -0.621  10.603  22.766  0.00  0.00    +0.000 C 
ATOM      7  C   UNL     1      -1.043  11.075  21.398  0.00  0.00    +0.000 A 
ATOM      8  C   UNL     1      -2.292  11.725  21.350  0.00  0.00    +0.000 A 
ATOM      9  C   UNL     1      -2.747  12.267  20.164  0.00  0.00    +0.000 A 
ATOM     10  F   UNL     1      -3.944  12.868  20.128  0.00  0.00    +0.000 F 
ATOM     11  C   UNL     1      -1.958  12.224  19.029  0.00  0.00    +0.000 A 
ATOM     12  C   UNL     1      -0.729  11.559  19.075  0.00  0.00    +0.000 A 
ATOM     13  F   UNL     1       0.040  11.685  17.980  0.00  0.00    +0.000 F 
ATOM     14  C   UNL     1      -0.268  10.915  20.231  0.00  0.00    +0.000 A 
ENDROOT
BRANCH   2  15
ATOM     15  C   UNL     1       2.108   8.086  19.393  0.00  0.00    +0.000 A 
ATOM     16  C   UNL     1       1.700   7.137  20.325  0.00  0.00    +0.000 A 
ATOM     17  C   UNL     1       1.942   5.783  20.047  0.00  0.00    +0.000 A 
ATOM     18  C   UNL     1       2.742   5.391  18.960  0.00  0.00    +0.000 A 
ATOM     19  C   UNL     1       3.384   6.399  18.227  0.00  0.00    +0.000 A 
ATOM     20  C   UNL     1       3.053   7.739  18.425  0.00  0.00    +0.000 A 
BRANCH  18  21
ATOM     21  N   UNL     1       2.853   4.022  18.581  0.00  0.00    +0.000 N 
ATOM     22  C   UNL     1       3.904   3.207  18.944  0.00  0.00    +0.000 C 
ATOM     23  O   UNL     1       4.870   3.470  19.650  0.00  0.00    +0.000 OA
ATOM     24  C   UNL     1       3.661   1.823  18.418  0.00  0.00    +0.000 C 
ATOM     25  C   UNL     1       2.358   1.923  17.667  0.00  0.00    +0.000 C 
ATOM     26  C   UNL     1       1.877   3.316  17.922  0.00  0.00    +0.000 C 
ATOM     27  O   UNL     1       0.784   3.700  17.521  0.00  0.00    +0.000 OA
ENDBRANCH  18  21
ENDBRANCH   2  15
TORSDOF 2
ENDMDL
