MODEL 1
REMARK VINA RESULT:      -9.0      0.000      0.000
REMARK  Name = 
REMARK  2 active torsions:
REMARK  status: ('A' for Active; 'I' for Inactive)
REMARK    1  A    between atoms: C_2  and  C_15
REMARK    2  A    between atoms: C_8  and  C_9
REMARK                            x       y       z     vdW  Elec       q    Type
REMARK                         _______ _______ _______ _____ _____    ______ ____
ROOT
ATOM      1  O   UNL     1       5.391   3.662  17.823  0.00  0.00    +0.000 OA
ATOM      2  C   UNL     1       4.415   3.716  17.081  0.00  0.00    +0.000 C 
ATOM      3  N   UNL     1       4.437   4.182  15.782  0.00  0.00    +0.000 N 
ATOM      4  C   UNL     1       5.605   4.476  15.097  0.00  0.00    +0.000 A 
ATOM      5  N   UNL     1       5.646   4.203  13.790  0.00  0.00    +0.000 NA
ATOM      6  O   UNL     1       6.942   4.481  13.396  0.00  0.00    +0.000 OA
ATOM      7  N   UNL     1       7.676   5.008  14.440  0.00  0.00    +0.000 NA
ATOM      8  C   UNL     1       6.843   5.058  15.491  0.00  0.00    +0.000 A 
ATOM      9  H   UNL     1       3.677   3.959  15.150  0.00  0.00    +0.000 HD
ENDROOT
BRANCH   2  10
ATOM     10  C   UNL     1       3.138   3.021  17.457  0.00  0.00    +0.000 A 
ATOM     11  C   UNL     1       2.079   3.855  17.486  0.00  0.00    +0.000 A 
ATOM     12  C   UNL     1       1.778   4.226  18.876  0.00  0.00    +0.000 A 
ATOM     13  C   UNL     1       1.566   5.565  19.203  0.00  0.00    +0.000 A 
ATOM     14  C   UNL     1       1.749   5.985  20.521  0.00  0.00    +0.000 A 
ATOM     15  C   UNL     1       2.080   5.063  21.518  0.00  0.00    +0.000 A 
ATOM     16  C   UNL     1       2.209   3.708  21.211  0.00  0.00    +0.000 A 
ATOM     17  C   UNL     1       2.078   3.310  19.888  0.00  0.00    +0.000 A 
ATOM     18  O   UNL     1       2.446   1.999  19.558  0.00  0.00    +0.000 OA
ATOM     19  C   UNL     1       3.140   1.857  18.367  0.00  0.00    +0.000 A 
ATOM     20  O   UNL     1       3.792   0.850  18.109  0.00  0.00    +0.000 OA
ENDBRANCH   2  10
BRANCH   8  21
ATOM     21  C   UNL     1       7.245   5.752  16.714  0.00  0.00    +0.000 A 
ATOM     22  C   UNL     1       7.331   7.149  16.760  0.00  0.00    +0.000 A 
ATOM     23  C   UNL     1       7.782   7.804  17.912  0.00  0.00    +0.000 A 
ATOM     24  C   UNL     1       8.173   7.066  19.025  0.00  0.00    +0.000 A 
ATOM     25  C   UNL     1       8.107   5.676  18.992  0.00  0.00    +0.000 A 
ATOM     26  C   UNL     1       7.643   5.017  17.848  0.00  0.00    +0.000 A 
ENDBRANCH   8  21
TORSDOF 2
ENDMDL
MODEL 2
REMARK VINA RESULT:      -8.6      2.847      6.774
REMARK  Name = 
REMARK  2 active torsions:
REMARK  status: ('A' for Active; 'I' for Inactive)
REMARK    1  A    between atoms: C_2  and  C_15
REMARK    2  A    between atoms: C_8  and  C_9
REMARK                            x       y       z     vdW  Elec       q    Type
REMARK                         _______ _______ _______ _____ _____    ______ ____
ROOT
ATOM      1  O   UNL     1       4.577   4.985  19.744  0.00  0.00    +0.000 OA
ATOM      2  C   UNL     1       4.679   5.945  18.986  0.00  0.00    +0.000 C 
ATOM      3  N   UNL     1       3.709   6.909  18.799  0.00  0.00    +0.000 N 
ATOM      4  C   UNL     1       2.572   7.008  19.585  0.00  0.00    +0.000 A 
ATOM      5  N   UNL     1       2.114   8.231  19.865  0.00  0.00    +0.000 NA
ATOM      6  O   UNL     1       1.063   8.038  20.745  0.00  0.00    +0.000 OA
ATOM      7  N   UNL     1       0.819   6.694  20.939  0.00  0.00    +0.000 NA
ATOM      8  C   UNL     1       1.716   6.041  20.184  0.00  0.00    +0.000 A 
ATOM      9  H   UNL     1       3.949   7.796  18.374  0.00  0.00    +0.000 HD
ENDROOT
BRANCH   2  10
ATOM     10  C   UNL     1       6.007   6.293  18.377  0.00  0.00    +0.000 A 
ATOM     11  C   UNL     1       5.889   6.924  17.192  0.00  0.00    +0.000 A 
ATOM     12  C   UNL     1       6.124   5.973  16.097  0.00  0.00    +0.000 A 
ATOM     13  C   UNL     1       5.238   5.925  15.020  0.00  0.00    +0.000 A 
ATOM     14  C   UNL     1       5.164   4.768  14.246  0.00  0.00    +0.000 A 
ATOM     15  C   UNL     1       6.012   3.687  14.505  0.00  0.00    +0.000 A 
ATOM     16  C   UNL     1       6.958   3.763  15.527  0.00  0.00    +0.000 A 
ATOM     17  C   UNL     1       6.987   4.897  16.325  0.00  0.00    +0.000 A 
ATOM     18  O   UNL     1       7.768   4.863  17.487  0.00  0.00    +0.000 OA
ATOM     19  C   UNL     1       7.198   5.448  18.607  0.00  0.00    +0.000 A 
ATOM     20  O   UNL     1       7.606   5.219  19.741  0.00  0.00    +0.000 OA
ENDBRANCH   2  10
BRANCH   8  21
ATOM     21  C   UNL     1       1.609   4.594  20.004  0.00  0.00    +0.000 A 
ATOM     22  C   UNL     1       1.742   3.716  21.087  0.00  0.00    +0.000 A 
ATOM     23  C   UNL     1       1.707   2.330  20.898  0.00  0.00    +0.000 A 
ATOM     24  C   UNL     1       1.558   1.805  19.618  0.00  0.00    +0.000 A 
ATOM     25  C   UNL     1       1.438   2.662  18.528  0.00  0.00    +0.000 A 
ATOM     26  C   UNL     1       1.459   4.049  18.714  0.00  0.00    +0.000 A 
ENDBRANCH   8  21
TORSDOF 2
ENDMDL
MODEL 3
REMARK VINA RESULT:      -8.3      2.494      6.646
REMARK  Name = 
REMARK  2 active torsions:
REMARK  status: ('A' for Active; 'I' for Inactive)
REMARK    1  A    between atoms: C_2  and  C_15
REMARK    2  A    between atoms: C_8  and  C_9
REMARK                            x       y       z     vdW  Elec       q    Type
REMARK                         _______ _______ _______ _____ _____    ______ ____
ROOT
ATOM      1  O   UNL     1       4.552   4.377  19.387  0.00  0.00    +0.000 OA
ATOM      2  C   UNL     1       4.559   4.929  18.291  0.00  0.00    +0.000 C 
ATOM      3  N   UNL     1       3.695   5.935  17.909  0.00  0.00    +0.000 N 
ATOM      4  C   UNL     1       2.832   6.572  18.787  0.00  0.00    +0.000 A 
ATOM      5  N   UNL     1       2.614   7.878  18.608  0.00  0.00    +0.000 NA
ATOM      6  O   UNL     1       1.823   8.268  19.674  0.00  0.00    +0.000 OA
ATOM      7  N   UNL     1       1.483   7.187  20.462  0.00  0.00    +0.000 NA
ATOM      8  C   UNL     1       2.061   6.118  19.894  0.00  0.00    +0.000 A 
ATOM      9  H   UNL     1       3.916   6.518  17.111  0.00  0.00    +0.000 HD
ENDROOT
BRANCH   2  10
ATOM     10  C   UNL     1       5.705   4.719  17.344  0.00  0.00    +0.000 A 
ATOM     11  C   UNL     1       6.887   4.576  17.976  0.00  0.00    +0.000 A 
ATOM     12  C   UNL     1       7.636   5.839  17.920  0.00  0.00    +0.000 A 
ATOM     13  C   UNL     1       8.220   6.349  19.080  0.00  0.00    +0.000 A 
ATOM     14  C   UNL     1       8.508   7.711  19.159  0.00  0.00    +0.000 A 
ATOM     15  C   UNL     1       8.273   8.549  18.065  0.00  0.00    +0.000 A 
ATOM     16  C   UNL     1       7.769   8.028  16.873  0.00  0.00    +0.000 A 
ATOM     17  C   UNL     1       7.436   6.682  16.823  0.00  0.00    +0.000 A 
ATOM     18  O   UNL     1       6.712   6.226  15.714  0.00  0.00    +0.000 OA
ATOM     19  C   UNL     1       5.700   5.321  15.993  0.00  0.00    +0.000 A 
ATOM     20  O   UNL     1       4.799   5.085  15.196  0.00  0.00    +0.000 OA
ENDBRANCH   2  10
BRANCH   8  21
ATOM     21  C   UNL     1       1.738   4.772  20.366  0.00  0.00    +0.000 A 
ATOM     22  C   UNL     1       2.207   4.306  21.601  0.00  0.00    +0.000 A 
ATOM     23  C   UNL     1       1.953   2.994  22.018  0.00  0.00    +0.000 A 
ATOM     24  C   UNL     1       1.244   2.126  21.193  0.00  0.00    +0.000 A 
ATOM     25  C   UNL     1       0.782   2.569  19.956  0.00  0.00    +0.000 A 
ATOM     26  C   UNL     1       1.022   3.883  19.542  0.00  0.00    +0.000 A 
ENDBRANCH   8  21
TORSDOF 2
ENDMDL
MODEL 4
REMARK VINA RESULT:      -8.0      1.838      3.213
REMARK  Name = 
REMARK  2 active torsions:
REMARK  status: ('A' for Active; 'I' for Inactive)
REMARK    1  A    between atoms: C_2  and  C_15
REMARK    2  A    between atoms: C_8  and  C_9
REMARK                            x       y       z     vdW  Elec       q    Type
REMARK                         _______ _______ _______ _____ _____    ______ ____
ROOT
ATOM      1  O   UNL     1       4.072   4.237  15.770  0.00  0.00    +0.000 OA
ATOM      2  C   UNL     1       4.217   3.597  16.807  0.00  0.00    +0.000 C 
ATOM      3  N   UNL     1       5.329   3.658  17.622  0.00  0.00    +0.000 N 
ATOM      4  C   UNL     1       6.341   4.592  17.463  0.00  0.00    +0.000 A 
ATOM      5  N   UNL     1       6.919   5.078  18.564  0.00  0.00    +0.000 NA
ATOM      6  O   UNL     1       7.792   6.055  18.120  0.00  0.00    +0.000 OA
ATOM      7  N   UNL     1       7.816   6.111  16.741  0.00  0.00    +0.000 NA
ATOM      8  C   UNL     1       6.956   5.172  16.317  0.00  0.00    +0.000 A 
ATOM      9  H   UNL     1       5.280   3.319  18.576  0.00  0.00    +0.000 HD
ENDROOT
BRANCH   2  10
ATOM     10  C   UNL     1       3.055   2.868  17.418  0.00  0.00    +0.000 A 
ATOM     11  C   UNL     1       1.938   3.621  17.475  0.00  0.00    +0.000 A 
ATOM     12  C   UNL     1       1.765   4.149  18.836  0.00  0.00    +0.000 A 
ATOM     13  C   UNL     1       1.476   5.501  19.021  0.00  0.00    +0.000 A 
ATOM     14  C   UNL     1       1.769   6.102  20.245  0.00  0.00    +0.000 A 
ATOM     15  C   UNL     1       2.288   5.344  21.300  0.00  0.00    +0.000 A 
ATOM     16  C   UNL     1       2.498   3.974  21.146  0.00  0.00    +0.000 A 
ATOM     17  C   UNL     1       2.254   3.397  19.908  0.00  0.00    +0.000 A 
ATOM     18  O   UNL     1       2.694   2.084  19.697  0.00  0.00    +0.000 OA
ATOM     19  C   UNL     1       3.260   1.836  18.456  0.00  0.00    +0.000 A 
ATOM     20  O   UNL     1       3.962   0.853  18.245  0.00  0.00    +0.000 OA
ENDBRANCH   2  10
BRANCH   8  21
ATOM     21  C   UNL     1       6.886   4.829  14.898  0.00  0.00    +0.000 A 
ATOM     22  C   UNL     1       6.145   3.726  14.454  0.00  0.00    +0.000 A 
ATOM     23  C   UNL     1       6.137   3.362  13.102  0.00  0.00    +0.000 A 
ATOM     24  C   UNL     1       6.888   4.085  12.182  0.00  0.00    +0.000 A 
ATOM     25  C   UNL     1       7.641   5.176  12.607  0.00  0.00    +0.000 A 
ATOM     26  C   UNL     1       7.641   5.552  13.955  0.00  0.00    +0.000 A 
ENDBRANCH   8  21
TORSDOF 2
ENDMDL
MODEL 5
REMARK VINA RESULT:      -8.0     10.796     14.046
REMARK  Name = 
REMARK  2 active torsions:
REMARK  status: ('A' for Active; 'I' for Inactive)
REMARK    1  A    between atoms: C_2  and  C_15
REMARK    2  A    between atoms: C_8  and  C_9
REMARK                            x       y       z     vdW  Elec       q    Type
REMARK                         _______ _______ _______ _____ _____    ______ ____
ROOT
ATOM      1  O   UNL     1      -4.173  12.499  20.540  0.00  0.00    +0.000 OA
ATOM      2  C   UNL     1      -3.878  13.122  21.555  0.00  0.00    +0.000 C 
ATOM      3  N   UNL     1      -4.712  13.300  22.641  0.00  0.00    +0.000 N 
ATOM      4  C   UNL     1      -5.920  12.639  22.791  0.00  0.00    +0.000 A 
ATOM      5  N   UNL     1      -6.278  12.269  24.023  0.00  0.00    +0.000 NA
ATOM      6  O   UNL     1      -7.444  11.540  23.865  0.00  0.00    +0.000 OA
ATOM      7  N   UNL     1      -7.850  11.535  22.546  0.00  0.00    +0.000 NA
ATOM      8  C   UNL     1      -6.940  12.257  21.874  0.00  0.00    +0.000 A 
ATOM      9  H   UNL     1      -4.328  13.589  23.533  0.00  0.00    +0.000 HD
ENDROOT
BRANCH   2  10
ATOM     10  C   UNL     1      -2.456  13.535  21.805  0.00  0.00    +0.000 A 
ATOM     11  C   UNL     1      -1.669  13.382  20.722  0.00  0.00    +0.000 A 
ATOM     12  C   UNL     1      -0.879  12.151  20.854  0.00  0.00    +0.000 A 
ATOM     13  C   UNL     1      -0.808  11.257  19.785  0.00  0.00    +0.000 A 
ATOM     14  C   UNL     1      -0.484   9.923  20.028  0.00  0.00    +0.000 A 
ATOM     15  C   UNL     1      -0.171   9.495  21.322  0.00  0.00    +0.000 A 
ATOM     16  C   UNL     1      -0.157  10.403  22.381  0.00  0.00    +0.000 A 
ATOM     17  C   UNL     1      -0.533  11.716  22.137  0.00  0.00    +0.000 A 
ATOM     18  O   UNL     1      -0.748  12.554  23.239  0.00  0.00    +0.000 OA
ATOM     19  C   UNL     1      -1.845  13.396  23.144  0.00  0.00    +0.000 A 
ATOM     20  O   UNL     1      -2.337  13.938  24.128  0.00  0.00    +0.000 OA
ENDBRANCH   2  10
BRANCH   8  21
ATOM     21  C   UNL     1      -7.175  12.618  20.477  0.00  0.00    +0.000 A 
ATOM     22  C   UNL     1      -7.095  11.661  19.457  0.00  0.00    +0.000 A 
ATOM     23  C   UNL     1      -7.254  12.025  18.115  0.00  0.00    +0.000 A 
ATOM     24  C   UNL     1      -7.474  13.356  17.776  0.00  0.00    +0.000 A 
ATOM     25  C   UNL     1      -7.544  14.323  18.775  0.00  0.00    +0.000 A 
ATOM     26  C   UNL     1      -7.400  13.961  20.119  0.00  0.00    +0.000 A 
ENDBRANCH   8  21
TORSDOF 2
ENDMDL
MODEL 6
REMARK VINA RESULT:      -8.0      4.028      6.421
REMARK  Name = 
REMARK  2 active torsions:
REMARK  status: ('A' for Active; 'I' for Inactive)
REMARK    1  A    between atoms: C_2  and  C_15
REMARK    2  A    between atoms: C_8  and  C_9
REMARK                            x       y       z     vdW  Elec       q    Type
REMARK                         _______ _______ _______ _____ _____    ______ ____
ROOT
ATOM      1  O   UNL     1       2.556   7.266  19.937  0.00  0.00    +0.000 OA
ATOM      2  C   UNL     1       2.381   7.121  18.731  0.00  0.00    +0.000 C 
ATOM      3  N   UNL     1       1.993   8.124  17.865  0.00  0.00    +0.000 N 
ATOM      4  C   UNL     1       1.933   9.461  18.224  0.00  0.00    +0.000 A 
ATOM      5  N   UNL     1       2.278  10.368  17.307  0.00  0.00    +0.000 NA
ATOM      6  O   UNL     1       2.238  11.586  17.961  0.00  0.00    +0.000 OA
ATOM      7  N   UNL     1       1.786  11.440  19.257  0.00  0.00    +0.000 NA
ATOM      8  C   UNL     1       1.544  10.130  19.419  0.00  0.00    +0.000 A 
ATOM      9  H   UNL     1       2.120   8.009  16.866  0.00  0.00    +0.000 HD
ENDROOT
BRANCH   2  10
ATOM     10  C   UNL     1       2.834   5.865  18.045  0.00  0.00    +0.000 A 
ATOM     11  C   UNL     1       1.854   4.945  17.937  0.00  0.00    +0.000 A 
ATOM     12  C   UNL     1       2.020   3.921  18.977  0.00  0.00    +0.000 A 
ATOM     13  C   UNL     1       0.922   3.532  19.745  0.00  0.00    +0.000 A 
ATOM     14  C   UNL     1       1.133   2.949  20.995  0.00  0.00    +0.000 A 
ATOM     15  C   UNL     1       2.432   2.697  21.448  0.00  0.00    +0.000 A 
ATOM     16  C   UNL     1       3.531   3.007  20.647  0.00  0.00    +0.000 A 
ATOM     17  C   UNL     1       3.311   3.635  19.429  0.00  0.00    +0.000 A 
ATOM     18  O   UNL     1       4.420   4.155  18.749  0.00  0.00    +0.000 OA
ATOM     19  C   UNL     1       4.230   5.393  18.157  0.00  0.00    +0.000 A 
ATOM     20  O   UNL     1       5.170   6.103  17.814  0.00  0.00    +0.000 OA
ENDBRANCH   2  10
BRANCH   8  21
ATOM     21  C   UNL     1       0.863   9.653  20.622  0.00  0.00    +0.000 A 
ATOM     22  C   UNL     1      -0.349   8.955  20.541  0.00  0.00    +0.000 A 
ATOM     23  C   UNL     1      -1.030   8.561  21.698  0.00  0.00    +0.000 A 
ATOM     24  C   UNL     1      -0.516   8.880  22.952  0.00  0.00    +0.000 A 
ATOM     25  C   UNL     1       0.680   9.585  23.051  0.00  0.00    +0.000 A 
ATOM     26  C   UNL     1       1.371   9.969  21.897  0.00  0.00    +0.000 A 
ENDBRANCH   8  21
TORSDOF 2
ENDMDL
MODEL 7
REMARK VINA RESULT:      -7.8     10.623     13.708
REMARK  Name = 
REMARK  2 active torsions:
REMARK  status: ('A' for Active; 'I' for Inactive)
REMARK    1  A    between atoms: C_2  and  C_15
REMARK    2  A    between atoms: C_8  and  C_9
REMARK                            x       y       z     vdW  Elec       q    Type
REMARK                         _______ _______ _______ _____ _____    ______ ____
ROOT
ATOM      1  O   UNL     1      -3.779  12.608  19.997  0.00  0.00    +0.000 OA
ATOM      2  C   UNL     1      -3.621  13.088  21.116  0.00  0.00    +0.000 C 
ATOM      3  N   UNL     1      -4.606  13.189  22.077  0.00  0.00    +0.000 N 
ATOM      4  C   UNL     1      -5.851  12.592  21.958  0.00  0.00    +0.000 A 
ATOM      5  N   UNL     1      -6.416  12.102  23.065  0.00  0.00    +0.000 NA
ATOM      6  O   UNL     1      -7.572  11.473  22.641  0.00  0.00    +0.000 OA
ATOM      7  N   UNL     1      -7.765  11.649  21.285  0.00  0.00    +0.000 NA
ATOM      8  C   UNL     1      -6.729  12.386  20.856  0.00  0.00    +0.000 A 
ATOM      9  H   UNL     1      -4.356  13.345  23.046  0.00  0.00    +0.000 HD
ENDROOT
BRANCH   2  10
ATOM     10  C   UNL     1      -2.239  13.378  21.629  0.00  0.00    +0.000 A 
ATOM     11  C   UNL     1      -1.273  13.003  20.767  0.00  0.00    +0.000 A 
ATOM     12  C   UNL     1      -0.694  11.723  21.197  0.00  0.00    +0.000 A 
ATOM     13  C   UNL     1      -0.523  10.695  20.268  0.00  0.00    +0.000 A 
ATOM     14  C   UNL     1      -0.433   9.377  20.715  0.00  0.00    +0.000 A 
ATOM     15  C   UNL     1      -0.452   9.090  22.083  0.00  0.00    +0.000 A 
ATOM     16  C   UNL     1      -0.538  10.122  23.018  0.00  0.00    +0.000 A 
ATOM     17  C   UNL     1      -0.680  11.424  22.562  0.00  0.00    +0.000 A 
ATOM     18  O   UNL     1      -1.006  12.415  23.497  0.00  0.00    +0.000 OA
ATOM     19  C   UNL     1      -1.940  13.349  23.076  0.00  0.00    +0.000 A 
ATOM     20  O   UNL     1      -2.549  14.063  23.866  0.00  0.00    +0.000 OA
ENDBRANCH   2  10
BRANCH   8  21
ATOM     21  C   UNL     1      -6.725  12.924  19.496  0.00  0.00    +0.000 A 
ATOM     22  C   UNL     1      -6.763  14.305  19.263  0.00  0.00    +0.000 A 
ATOM     23  C   UNL     1      -6.828  14.812  17.960  0.00  0.00    +0.000 A 
ATOM     24  C   UNL     1      -6.877  13.941  16.875  0.00  0.00    +0.000 A 
ATOM     25  C   UNL     1      -6.854  12.566  17.089  0.00  0.00    +0.000 A 
ATOM     26  C   UNL     1      -6.775  12.055  18.390  0.00  0.00    +0.000 A 
ENDBRANCH   8  21
TORSDOF 2
ENDMDL
MODEL 8
REMARK VINA RESULT:      -7.8      9.391     11.647
REMARK  Name = 
REMARK  2 active torsions:
REMARK  status: ('A' for Active; 'I' for Inactive)
REMARK    1  A    between atoms: C_2  and  C_15
REMARK    2  A    between atoms: C_8  and  C_9
REMARK                            x       y       z     vdW  Elec       q    Type
REMARK                         _______ _______ _______ _____ _____    ______ ____
ROOT
ATOM      1  O   UNL     1       7.520  14.313  19.154  0.00  0.00    +0.000 OA
ATOM      2  C   UNL     1       7.857  15.400  19.611  0.00  0.00    +0.000 C 
ATOM      3  N   UNL     1       9.064  16.021  19.363  0.00  0.00    +0.000 N 
ATOM      4  C   UNL     1       9.971  15.572  18.416  0.00  0.00    +0.000 A 
ATOM      5  N   UNL     1      10.661  16.488  17.731  0.00  0.00    +0.000 NA
ATOM      6  O   UNL     1      11.388  15.776  16.794  0.00  0.00    +0.000 OA
ATOM      7  N   UNL     1      11.214  14.416  16.958  0.00  0.00    +0.000 NA
ATOM      8  C   UNL     1      10.375  14.273  17.997  0.00  0.00    +0.000 A 
ATOM      9  H   UNL     1       9.174  17.011  19.547  0.00  0.00    +0.000 HD
ENDROOT
BRANCH   2  10
ATOM     10  C   UNL     1       6.848  16.282  20.291  0.00  0.00    +0.000 A 
ATOM     11  C   UNL     1       5.850  15.585  20.870  0.00  0.00    +0.000 A 
ATOM     12  C   UNL     1       4.659  15.620  20.011  0.00  0.00    +0.000 A 
ATOM     13  C   UNL     1       3.971  14.437  19.735  0.00  0.00    +0.000 A 
ATOM     14  C   UNL     1       3.168  14.362  18.597  0.00  0.00    +0.000 A 
ATOM     15  C   UNL     1       3.001  15.480  17.773  0.00  0.00    +0.000 A 
ATOM     16  C   UNL     1       3.619  16.689  18.092  0.00  0.00    +0.000 A 
ATOM     17  C   UNL     1       4.458  16.737  19.196  0.00  0.00    +0.000 A 
ATOM     18  O   UNL     1       5.255  17.877  19.366  0.00  0.00    +0.000 OA
ATOM     19  C   UNL     1       6.555  17.639  19.784  0.00  0.00    +0.000 A 
ATOM     20  O   UNL     1       7.440  18.480  19.669  0.00  0.00    +0.000 OA
ENDBRANCH   2  10
BRANCH   8  21
ATOM     21  C   UNL     1      10.133  12.948  18.566  0.00  0.00    +0.000 A 
ATOM     22  C   UNL     1       9.500  11.944  17.822  0.00  0.00    +0.000 A 
ATOM     23  C   UNL     1       9.209  10.701  18.395  0.00  0.00    +0.000 A 
ATOM     24  C   UNL     1       9.529  10.455  19.726  0.00  0.00    +0.000 A 
ATOM     25  C   UNL     1      10.146  11.446  20.485  0.00  0.00    +0.000 A 
ATOM     26  C   UNL     1      10.452  12.686  19.912  0.00  0.00    +0.000 A 
ENDBRANCH   8  21
TORSDOF 2
ENDMDL
MODEL 9
REMARK VINA RESULT:      -7.7      3.612      6.500
REMARK  Name = 
REMARK  2 active torsions:
REMARK  status: ('A' for Active; 'I' for Inactive)
REMARK    1  A    between atoms: C_2  and  C_15
REMARK    2  A    between atoms: C_8  and  C_9
REMARK                            x       y       z     vdW  Elec       q    Type
REMARK                         _______ _______ _______ _____ _____    ______ ____
ROOT
ATOM      1  O   UNL     1       2.661   6.656  20.460  0.00  0.00    +0.000 OA
ATOM      2  C   UNL     1       2.446   6.203  19.340  0.00  0.00    +0.000 C 
ATOM      3  N   UNL     1       2.028   6.946  18.255  0.00  0.00    +0.000 N 
ATOM      4  C   UNL     1       1.976   8.331  18.254  0.00  0.00    +0.000 A 
ATOM      5  N   UNL     1       2.287   8.965  17.121  0.00  0.00    +0.000 NA
ATOM      6  O   UNL     1       2.266  10.312  17.436  0.00  0.00    +0.000 OA
ATOM      7  N   UNL     1       1.857  10.511  18.739  0.00  0.00    +0.000 NA
ATOM      8  C   UNL     1       1.624   9.291  19.245  0.00  0.00    +0.000 A 
ATOM      9  H   UNL     1       2.122   6.574  17.317  0.00  0.00    +0.000 HD
ENDROOT
BRANCH   2  10
ATOM     10  C   UNL     1       2.880   4.808  18.990  0.00  0.00    +0.000 A 
ATOM     11  C   UNL     1       4.076   4.484  19.521  0.00  0.00    +0.000 A 
ATOM     12  C   UNL     1       5.122   4.601  18.496  0.00  0.00    +0.000 A 
ATOM     13  C   UNL     1       6.305   5.281  18.790  0.00  0.00    +0.000 A 
ATOM     14  C   UNL     1       7.072   5.802  17.748  0.00  0.00    +0.000 A 
ATOM     15  C   UNL     1       6.695   5.593  16.418  0.00  0.00    +0.000 A 
ATOM     16  C   UNL     1       5.558   4.841  16.117  0.00  0.00    +0.000 A 
ATOM     17  C   UNL     1       4.774   4.373  17.162  0.00  0.00    +0.000 A 
ATOM     18  O   UNL     1       3.519   3.834  16.850  0.00  0.00    +0.000 OA
ATOM     19  C   UNL     1       2.489   4.184  17.708  0.00  0.00    +0.000 A 
ATOM     20  O   UNL     1       1.310   4.060  17.396  0.00  0.00    +0.000 OA
ENDBRANCH   2  10
BRANCH   8  21
ATOM     21  C   UNL     1       0.984   9.148  20.552  0.00  0.00    +0.000 A 
ATOM     22  C   UNL     1      -0.315   8.638  20.672  0.00  0.00    +0.000 A 
ATOM     23  C   UNL     1      -0.947   8.568  21.919  0.00  0.00    +0.000 A 
ATOM     24  C   UNL     1      -0.294   9.028  23.058  0.00  0.00    +0.000 A 
ATOM     25  C   UNL     1       0.992   9.551  22.956  0.00  0.00    +0.000 A 
ATOM     26  C   UNL     1       1.633   9.610  21.714  0.00  0.00    +0.000 A 
ENDBRANCH   8  21
TORSDOF 2
ENDMDL
