MODEL 1
REMARK VINA RESULT:      -8.2      0.000      0.000
REMARK  Name = 
REMARK  8 active torsions:
REMARK  status: ('A' for Active; 'I' for Inactive)
REMARK    1  A    between atoms: C_1  and  C_2
REMARK    2  A    between atoms: C_4  and  C_5
REMARK    3  A    between atoms: N_8  and  C_9
REMARK    4  A    between atoms: C_9  and  C_10
REMARK    5  A    between atoms: N_12  and  C_13
REMARK    6  A    between atoms: C_13  and  C_14
REMARK    7  A    between atoms: C_18  and  O_19
REMARK    8  A    between atoms: O_19  and  C_20
REMARK                            x       y       z     vdW  Elec       q    Type
REMARK                         _______ _______ _______ _____ _____    ______ ____
ROOT
ATOM      1  C   UNL     1       1.598   9.213  18.527  0.00  0.00    +0.000 C 
ATOM      2  O   UNL     1       2.024   9.814  17.543  0.00  0.00    +0.000 OA
ATOM      3  N   UNL     1       0.516   9.665  19.246  0.00  0.00    +0.000 N 
ATOM      4  H   UNL     1       0.243   9.190  20.098  0.00  0.00    +0.000 HD
ENDROOT
BRANCH   1   5
ATOM      5  C   UNL     1       2.194   7.871  18.988  0.00  0.00    +0.000 C 
BRANCH   5   9
ATOM      6  C   UNL     1       4.817   6.057  18.113  0.00  0.00    +0.000 C 
ATOM      7  C   UNL     1       3.799   5.178  18.830  0.00  0.00    +0.000 C 
ATOM      8  C   UNL     1       2.478   5.544  18.178  0.00  0.00    +0.000 C 
ATOM      9  N   UNL     1       2.555   6.982  17.864  0.00  0.00    +0.000 NA
ATOM     10  C   UNL     1       3.974   7.179  17.479  0.00  0.00    +0.000 C 
BRANCH   6  14
ATOM     11  C   UNL     1       6.293   3.896  13.889  0.00  0.00    +0.000 C 
ATOM     12  C   UNL     1       6.199   4.466  15.252  0.00  0.00    +0.000 A 
ATOM     13  N   UNL     1       5.136   4.905  15.883  0.00  0.00    +0.000 NA
ATOM     14  C   UNL     1       5.636   5.357  17.085  0.00  0.00    +0.000 A 
ATOM     15  N   UNL     1       6.960   5.202  17.221  0.00  0.00    +0.000 NA
ATOM     16  N   UNL     1       7.294   4.639  16.049  0.00  0.00    +0.000 N 
ATOM     17  H   UNL     1       8.266   4.426  15.860  0.00  0.00    +0.000 HD
ENDBRANCH   6  14
ENDBRANCH   5   9
ENDBRANCH   1   5
BRANCH   3  18
ATOM     18  C   UNL     1      -0.123  10.925  18.932  0.00  0.00    +0.000 C 
BRANCH  18  19
ATOM     19  C   UNL     1      -1.420  10.817  18.164  0.00  0.00    +0.000 A 
ATOM     20  C   UNL     1      -1.484   9.878  17.119  0.00  0.00    +0.000 A 
ATOM     21  C   UNL     1      -2.631   9.741  16.340  0.00  0.00    +0.000 A 
ATOM     22  C   UNL     1      -3.745  10.536  16.601  0.00  0.00    +0.000 A 
ATOM     23  C   UNL     1      -3.736  11.413  17.691  0.00  0.00    +0.000 A 
ATOM     24  C   UNL     1      -2.566  11.577  18.443  0.00  0.00    +0.000 A 
BRANCH  23  25
ATOM     25  O   UNL     1      -4.809  12.191  18.064  0.00  0.00    +0.000 OA
BRANCH  25  26
ATOM     26  C   UNL     1      -5.699  11.736  19.013  0.00  0.00    +0.000 A 
ATOM     27  C   UNL     1      -6.434  10.550  18.907  0.00  0.00    +0.000 A 
ATOM     28  C   UNL     1      -7.351  10.201  19.902  0.00  0.00    +0.000 A 
ATOM     29  C   UNL     1      -7.487  10.998  21.035  0.00  0.00    +0.000 A 
ATOM     30  C   UNL     1      -6.700  12.142  21.180  0.00  0.00    +0.000 A 
ATOM     31  C   UNL     1      -5.808  12.508  20.171  0.00  0.00    +0.000 A 
ENDBRANCH  25  26
ENDBRANCH  23  25
ENDBRANCH  18  19
ENDBRANCH   3  18
TORSDOF 7
ENDMDL
MODEL 2
REMARK VINA RESULT:      -8.1      3.110      3.963
REMARK  Name = 
REMARK  8 active torsions:
REMARK  status: ('A' for Active; 'I' for Inactive)
REMARK    1  A    between atoms: C_1  and  C_2
REMARK    2  A    between atoms: C_4  and  C_5
REMARK    3  A    between atoms: N_8  and  C_9
REMARK    4  A    between atoms: C_9  and  C_10
REMARK    5  A    between atoms: N_12  and  C_13
REMARK    6  A    between atoms: C_13  and  C_14
REMARK    7  A    between atoms: C_18  and  O_19
REMARK    8  A    between atoms: O_19  and  C_20
REMARK                            x       y       z     vdW  Elec       q    Type
REMARK                         _______ _______ _______ _____ _____    ______ ____
ROOT
ATOM      1  C   UNL     1       2.253   5.787  20.314  0.00  0.00    +0.000 C 
ATOM      2  O   UNL     1       1.255   5.125  20.588  0.00  0.00    +0.000 OA
ATOM      3  N   UNL     1       2.330   7.136  20.573  0.00  0.00    +0.000 N 
ATOM      4  H   UNL     1       3.134   7.665  20.259  0.00  0.00    +0.000 HD
ENDROOT
BRANCH   1   5
ATOM      5  C   UNL     1       3.524   5.147  19.726  0.00  0.00    +0.000 C 
BRANCH   5   9
ATOM      6  C   UNL     1       5.663   4.273  17.360  0.00  0.00    +0.000 C 
ATOM      7  C   UNL     1       4.460   3.338  17.337  0.00  0.00    +0.000 C 
ATOM      8  C   UNL     1       3.268   4.276  17.417  0.00  0.00    +0.000 C 
ATOM      9  N   UNL     1       3.682   5.399  18.279  0.00  0.00    +0.000 NA
ATOM     10  C   UNL     1       5.113   5.591  17.937  0.00  0.00    +0.000 C 
BRANCH   6  14
ATOM     11  C   UNL     1       6.750   4.064  12.516  0.00  0.00    +0.000 C 
ATOM     12  C   UNL     1       6.703   4.369  13.963  0.00  0.00    +0.000 A 
ATOM     13  N   UNL     1       5.999   3.781  14.901  0.00  0.00    +0.000 NA
ATOM     14  C   UNL     1       6.309   4.496  16.037  0.00  0.00    +0.000 A 
ATOM     15  N   UNL     1       7.184   5.491  15.837  0.00  0.00    +0.000 NA
ATOM     16  N   UNL     1       7.417   5.393  14.519  0.00  0.00    +0.000 N 
ATOM     17  H   UNL     1       8.043   6.054  14.074  0.00  0.00    +0.000 HD
ENDBRANCH   6  14
ENDBRANCH   5   9
ENDBRANCH   1   5
BRANCH   3  18
ATOM     18  C   UNL     1       1.197   7.865  21.103  0.00  0.00    +0.000 C 
BRANCH  18  19
ATOM     19  C   UNL     1       0.739   9.040  20.271  0.00  0.00    +0.000 A 
ATOM     20  C   UNL     1       1.398   9.272  19.051  0.00  0.00    +0.000 A 
ATOM     21  C   UNL     1       1.060  10.355  18.242  0.00  0.00    +0.000 A 
ATOM     22  C   UNL     1       0.043  11.223  18.635  0.00  0.00    +0.000 A 
ATOM     23  C   UNL     1      -0.685  10.961  19.800  0.00  0.00    +0.000 A 
ATOM     24  C   UNL     1      -0.312   9.896  20.630  0.00  0.00    +0.000 A 
BRANCH  23  25
ATOM     25  O   UNL     1      -1.746  11.724  20.235  0.00  0.00    +0.000 OA
BRANCH  25  26
ATOM     26  C   UNL     1      -1.615  12.522  21.351  0.00  0.00    +0.000 A 
ATOM     27  C   UNL     1      -0.607  13.477  21.530  0.00  0.00    +0.000 A 
ATOM     28  C   UNL     1      -0.530  14.201  22.722  0.00  0.00    +0.000 A 
ATOM     29  C   UNL     1      -1.496  14.025  23.709  0.00  0.00    +0.000 A 
ATOM     30  C   UNL     1      -2.546  13.129  23.503  0.00  0.00    +0.000 A 
ATOM     31  C   UNL     1      -2.605  12.381  22.326  0.00  0.00    +0.000 A 
ENDBRANCH  25  26
ENDBRANCH  23  25
ENDBRANCH  18  19
ENDBRANCH   3  18
TORSDOF 7
ENDMDL
MODEL 3
REMARK VINA RESULT:      -8.1      3.874     10.065
REMARK  Name = 
REMARK  8 active torsions:
REMARK  status: ('A' for Active; 'I' for Inactive)
REMARK    1  A    between atoms: C_1  and  C_2
REMARK    2  A    between atoms: C_4  and  C_5
REMARK    3  A    between atoms: N_8  and  C_9
REMARK    4  A    between atoms: C_9  and  C_10
REMARK    5  A    between atoms: N_12  and  C_13
REMARK    6  A    between atoms: C_13  and  C_14
REMARK    7  A    between atoms: C_18  and  O_19
REMARK    8  A    between atoms: O_19  and  C_20
REMARK                            x       y       z     vdW  Elec       q    Type
REMARK                         _______ _______ _______ _____ _____    ______ ____
ROOT
ATOM      1  C   UNL     1       0.372   9.702  21.501  0.00  0.00    +0.000 C 
ATOM      2  O   UNL     1      -0.490   9.427  22.332  0.00  0.00    +0.000 OA
ATOM      3  N   UNL     1       1.188   8.742  20.949  0.00  0.00    +0.000 N 
ATOM      4  H   UNL     1       1.941   9.015  20.329  0.00  0.00    +0.000 HD
ENDROOT
BRANCH   1   5
ATOM      5  C   UNL     1       0.558  11.130  20.957  0.00  0.00    +0.000 C 
BRANCH   5   9
ATOM      6  C   UNL     1      -2.064  11.500  18.975  0.00  0.00    +0.000 C 
ATOM      7  C   UNL     1      -1.417  12.856  19.232  0.00  0.00    +0.000 C 
ATOM      8  C   UNL     1       0.064  12.599  19.020  0.00  0.00    +0.000 C 
ATOM      9  N   UNL     1       0.320  11.229  19.501  0.00  0.00    +0.000 NA
ATOM     10  C   UNL     1      -0.910  10.491  19.123  0.00  0.00    +0.000 C 
BRANCH   6  14
ATOM     11  C   UNL     1      -3.115  10.137  14.314  0.00  0.00    +0.000 C 
ATOM     12  C   UNL     1      -3.119  10.727  15.671  0.00  0.00    +0.000 A 
ATOM     13  N   UNL     1      -2.168  10.709  16.574  0.00  0.00    +0.000 NA
ATOM     14  C   UNL     1      -2.728  11.363  17.650  0.00  0.00    +0.000 A 
ATOM     15  N   UNL     1      -3.980  11.792  17.439  0.00  0.00    +0.000 NA
ATOM     16  N   UNL     1      -4.206  11.376  16.183  0.00  0.00    +0.000 N 
ATOM     17  H   UNL     1      -5.110  11.548  15.758  0.00  0.00    +0.000 HD
ENDBRANCH   6  14
ENDBRANCH   5   9
ENDBRANCH   1   5
BRANCH   3  18
ATOM     18  C   UNL     1       1.131   7.364  21.389  0.00  0.00    +0.000 C 
BRANCH  18  19
ATOM     19  C   UNL     1       1.654   6.349  20.399  0.00  0.00    +0.000 A 
ATOM     20  C   UNL     1       1.270   5.007  20.576  0.00  0.00    +0.000 A 
ATOM     21  C   UNL     1       1.738   4.005  19.729  0.00  0.00    +0.000 A 
ATOM     22  C   UNL     1       2.592   4.329  18.677  0.00  0.00    +0.000 A 
ATOM     23  C   UNL     1       2.915   5.667  18.428  0.00  0.00    +0.000 A 
ATOM     24  C   UNL     1       2.478   6.664  19.308  0.00  0.00    +0.000 A 
BRANCH  23  25
ATOM     25  O   UNL     1       3.699   6.089  17.377  0.00  0.00    +0.000 OA
BRANCH  25  26
ATOM     26  C   UNL     1       4.982   5.608  17.231  0.00  0.00    +0.000 A 
ATOM     27  C   UNL     1       6.037   5.884  18.107  0.00  0.00    +0.000 A 
ATOM     28  C   UNL     1       7.316   5.389  17.844  0.00  0.00    +0.000 A 
ATOM     29  C   UNL     1       7.531   4.562  16.744  0.00  0.00    +0.000 A 
ATOM     30  C   UNL     1       6.465   4.222  15.911  0.00  0.00    +0.000 A 
ATOM     31  C   UNL     1       5.194   4.743  16.155  0.00  0.00    +0.000 A 
ENDBRANCH  25  26
ENDBRANCH  23  25
ENDBRANCH  18  19
ENDBRANCH   3  18
TORSDOF 7
ENDMDL
MODEL 4
REMARK VINA RESULT:      -8.0      3.509     10.484
REMARK  Name = 
REMARK  8 active torsions:
REMARK  status: ('A' for Active; 'I' for Inactive)
REMARK    1  A    between atoms: C_1  and  C_2
REMARK    2  A    between atoms: C_4  and  C_5
REMARK    3  A    between atoms: N_8  and  C_9
REMARK    4  A    between atoms: C_9  and  C_10
REMARK    5  A    between atoms: N_12  and  C_13
REMARK    6  A    between atoms: C_13  and  C_14
REMARK    7  A    between atoms: C_18  and  O_19
REMARK    8  A    between atoms: O_19  and  C_20
REMARK                            x       y       z     vdW  Elec       q    Type
REMARK                         _______ _______ _______ _____ _____    ______ ____
ROOT
ATOM      1  C   UNL     1       1.067   8.578  20.917  0.00  0.00    +0.000 C 
ATOM      2  O   UNL     1       0.156   8.298  21.694  0.00  0.00    +0.000 OA
ATOM      3  N   UNL     1       1.841   7.610  20.320  0.00  0.00    +0.000 N 
ATOM      4  H   UNL     1       2.634   7.878  19.751  0.00  0.00    +0.000 HD
ENDROOT
BRANCH   1   5
ATOM      5  C   UNL     1       1.366  10.027  20.494  0.00  0.00    +0.000 C 
BRANCH   5   9
ATOM      6  C   UNL     1      -1.554  11.165  19.437  0.00  0.00    +0.000 C 
ATOM      7  C   UNL     1      -0.580  12.325  19.608  0.00  0.00    +0.000 C 
ATOM      8  C   UNL     1       0.691  11.836  18.936  0.00  0.00    +0.000 C 
ATOM      9  N   UNL     1       0.763  10.385  19.193  0.00  0.00    +0.000 NA
ATOM     10  C   UNL     1      -0.655   9.951  19.139  0.00  0.00    +0.000 C 
BRANCH   6  14
ATOM     11  C   UNL     1      -5.773  12.227  17.038  0.00  0.00    +0.000 C 
ATOM     12  C   UNL     1      -4.395  11.839  17.412  0.00  0.00    +0.000 A 
ATOM     13  N   UNL     1      -3.895  11.651  18.610  0.00  0.00    +0.000 NA
ATOM     14  C   UNL     1      -2.572  11.352  18.367  0.00  0.00    +0.000 A 
ATOM     15  N   UNL     1      -2.244  11.337  17.068  0.00  0.00    +0.000 NA
ATOM     16  N   UNL     1      -3.411  11.650  16.484  0.00  0.00    +0.000 N 
ATOM     17  H   UNL     1      -3.455  11.735  15.475  0.00  0.00    +0.000 HD
ENDBRANCH   6  14
ENDBRANCH   5   9
ENDBRANCH   1   5
BRANCH   3  18
ATOM     18  C   UNL     1       1.678   6.209  20.648  0.00  0.00    +0.000 C 
BRANCH  18  19
ATOM     19  C   UNL     1       2.390   5.244  19.728  0.00  0.00    +0.000 A 
ATOM     20  C   UNL     1       1.599   4.430  18.897  0.00  0.00    +0.000 A 
ATOM     21  C   UNL     1       2.176   3.490  18.047  0.00  0.00    +0.000 A 
ATOM     22  C   UNL     1       3.562   3.354  18.002  0.00  0.00    +0.000 A 
ATOM     23  C   UNL     1       4.371   4.213  18.753  0.00  0.00    +0.000 A 
ATOM     24  C   UNL     1       3.785   5.126  19.638  0.00  0.00    +0.000 A 
BRANCH  23  25
ATOM     25  O   UNL     1       5.748   4.196  18.726  0.00  0.00    +0.000 OA
BRANCH  25  26
ATOM     26  C   UNL     1       6.450   5.346  18.437  0.00  0.00    +0.000 A 
ATOM     27  C   UNL     1       7.613   5.754  19.102  0.00  0.00    +0.000 A 
ATOM     28  C   UNL     1       8.224   6.965  18.768  0.00  0.00    +0.000 A 
ATOM     29  C   UNL     1       7.717   7.738  17.727  0.00  0.00    +0.000 A 
ATOM     30  C   UNL     1       6.604   7.298  17.011  0.00  0.00    +0.000 A 
ATOM     31  C   UNL     1       5.973   6.104  17.366  0.00  0.00    +0.000 A 
ENDBRANCH  25  26
ENDBRANCH  23  25
ENDBRANCH  18  19
ENDBRANCH   3  18
TORSDOF 7
ENDMDL
MODEL 5
REMARK VINA RESULT:      -8.0      2.376      4.094
REMARK  Name = 
REMARK  8 active torsions:
REMARK  status: ('A' for Active; 'I' for Inactive)
REMARK    1  A    between atoms: C_1  and  C_2
REMARK    2  A    between atoms: C_4  and  C_5
REMARK    3  A    between atoms: N_8  and  C_9
REMARK    4  A    between atoms: C_9  and  C_10
REMARK    5  A    between atoms: N_12  and  C_13
REMARK    6  A    between atoms: C_13  and  C_14
REMARK    7  A    between atoms: C_18  and  O_19
REMARK    8  A    between atoms: O_19  and  C_20
REMARK                            x       y       z     vdW  Elec       q    Type
REMARK                         _______ _______ _______ _____ _____    ______ ____
ROOT
ATOM      1  C   UNL     1       1.724   5.103  20.473  0.00  0.00    +0.000 C 
ATOM      2  O   UNL     1       2.331   4.736  21.476  0.00  0.00    +0.000 OA
ATOM      3  N   UNL     1       1.535   6.434  20.179  0.00  0.00    +0.000 N 
ATOM      4  H   UNL     1       0.960   6.700  19.389  0.00  0.00    +0.000 HD
ENDROOT
BRANCH   1   5
ATOM      5  C   UNL     1       1.192   4.107  19.427  0.00  0.00    +0.000 C 
BRANCH   5   9
ATOM      6  C   UNL     1       4.408   3.940  18.675  0.00  0.00    +0.000 C 
ATOM      7  C   UNL     1       3.795   2.546  18.625  0.00  0.00    +0.000 C 
ATOM      8  C   UNL     1       2.513   2.740  17.834  0.00  0.00    +0.000 C 
ATOM      9  N   UNL     1       2.003   4.076  18.192  0.00  0.00    +0.000 NA
ATOM     10  C   UNL     1       3.235   4.886  18.358  0.00  0.00    +0.000 C 
BRANCH   6  14
ATOM     11  C   UNL     1       7.063   4.871  14.579  0.00  0.00    +0.000 C 
ATOM     12  C   UNL     1       6.605   4.580  15.956  0.00  0.00    +0.000 A 
ATOM     13  N   UNL     1       5.395   4.290  16.372  0.00  0.00    +0.000 NA
ATOM     14  C   UNL     1       5.542   4.161  17.736  0.00  0.00    +0.000 A 
ATOM     15  N   UNL     1       6.795   4.348  18.172  0.00  0.00    +0.000 NA
ATOM     16  N   UNL     1       7.448   4.614  17.030  0.00  0.00    +0.000 N 
ATOM     17  H   UNL     1       8.439   4.825  17.062  0.00  0.00    +0.000 HD
ENDBRANCH   6  14
ENDBRANCH   5   9
ENDBRANCH   1   5
BRANCH   3  18
ATOM     18  C   UNL     1       1.967   7.473  21.090  0.00  0.00    +0.000 C 
BRANCH  18  19
ATOM     19  C   UNL     1       1.042   8.664  21.195  0.00  0.00    +0.000 A 
ATOM     20  C   UNL     1       0.529   8.982  22.465  0.00  0.00    +0.000 A 
ATOM     21  C   UNL     1      -0.357  10.043  22.641  0.00  0.00    +0.000 A 
ATOM     22  C   UNL     1      -0.738  10.816  21.547  0.00  0.00    +0.000 A 
ATOM     23  C   UNL     1      -0.172  10.574  20.291  0.00  0.00    +0.000 A 
ATOM     24  C   UNL     1       0.684   9.481  20.112  0.00  0.00    +0.000 A 
BRANCH  23  25
ATOM     25  O   UNL     1      -0.439  11.324  19.167  0.00  0.00    +0.000 OA
BRANCH  25  26
ATOM     26  C   UNL     1      -1.524  11.023  18.373  0.00  0.00    +0.000 A 
ATOM     27  C   UNL     1      -1.518  10.069  17.348  0.00  0.00    +0.000 A 
ATOM     28  C   UNL     1      -2.658   9.873  16.566  0.00  0.00    +0.000 A 
ATOM     29  C   UNL     1      -3.826  10.576  16.846  0.00  0.00    +0.000 A 
ATOM     30  C   UNL     1      -3.859  11.472  17.915  0.00  0.00    +0.000 A 
ATOM     31  C   UNL     1      -2.710  11.693  18.677  0.00  0.00    +0.000 A 
ENDBRANCH  25  26
ENDBRANCH  23  25
ENDBRANCH  18  19
ENDBRANCH   3  18
TORSDOF 7
ENDMDL
MODEL 6
REMARK VINA RESULT:      -8.0      4.148     10.264
REMARK  Name = 
REMARK  8 active torsions:
REMARK  status: ('A' for Active; 'I' for Inactive)
REMARK    1  A    between atoms: C_1  and  C_2
REMARK    2  A    between atoms: C_4  and  C_5
REMARK    3  A    between atoms: N_8  and  C_9
REMARK    4  A    between atoms: C_9  and  C_10
REMARK    5  A    between atoms: N_12  and  C_13
REMARK    6  A    between atoms: C_13  and  C_14
REMARK    7  A    between atoms: C_18  and  O_19
REMARK    8  A    between atoms: O_19  and  C_20
REMARK                            x       y       z     vdW  Elec       q    Type
REMARK                         _______ _______ _______ _____ _____    ______ ____
ROOT
ATOM      1  C   UNL     1       1.569   9.019  18.946  0.00  0.00    +0.000 C 
ATOM      2  O   UNL     1       1.531   9.986  18.188  0.00  0.00    +0.000 OA
ATOM      3  N   UNL     1       2.407   7.951  18.726  0.00  0.00    +0.000 N 
ATOM      4  H   UNL     1       2.354   7.136  19.325  0.00  0.00    +0.000 HD
ENDROOT
BRANCH   1   5
ATOM      5  C   UNL     1       0.737   8.960  20.240  0.00  0.00    +0.000 C 
BRANCH   5   9
ATOM      6  C   UNL     1      -1.182  10.776  22.229  0.00  0.00    +0.000 C 
ATOM      7  C   UNL     1      -0.407   9.755  23.053  0.00  0.00    +0.000 C 
ATOM      8  C   UNL     1       1.014   9.870  22.531  0.00  0.00    +0.000 C 
ATOM      9  N   UNL     1       0.904  10.158  21.089  0.00  0.00    +0.000 NA
ATOM     10  C   UNL     1      -0.292  11.032  20.999  0.00  0.00    +0.000 C 
BRANCH   6  14
ATOM     11  C   UNL     1      -0.846  15.358  24.119  0.00  0.00    +0.000 C 
ATOM     12  C   UNL     1      -1.286  14.009  23.699  0.00  0.00    +0.000 A 
ATOM     13  N   UNL     1      -0.574  13.049  23.159  0.00  0.00    +0.000 NA
ATOM     14  C   UNL     1      -1.495  12.048  22.937  0.00  0.00    +0.000 A 
ATOM     15  N   UNL     1      -2.739  12.351  23.330  0.00  0.00    +0.000 NA
ATOM     16  N   UNL     1      -2.583  13.596  23.805  0.00  0.00    +0.000 N 
ATOM     17  H   UNL     1      -3.389  14.099  24.159  0.00  0.00    +0.000 HD
ENDBRANCH   6  14
ENDBRANCH   5   9
ENDBRANCH   1   5
BRANCH   3  18
ATOM     18  C   UNL     1       3.227   7.871  17.535  0.00  0.00    +0.000 C 
BRANCH  18  19
ATOM     19  C   UNL     1       4.014   6.590  17.379  0.00  0.00    +0.000 A 
ATOM     20  C   UNL     1       5.337   6.690  16.912  0.00  0.00    +0.000 A 
ATOM     21  C   UNL     1       6.118   5.555  16.707  0.00  0.00    +0.000 A 
ATOM     22  C   UNL     1       5.592   4.294  16.977  0.00  0.00    +0.000 A 
ATOM     23  C   UNL     1       4.311   4.176  17.526  0.00  0.00    +0.000 A 
ATOM     24  C   UNL     1       3.515   5.316  17.689  0.00  0.00    +0.000 A 
BRANCH  23  25
ATOM     25  O   UNL     1       3.732   2.978  17.883  0.00  0.00    +0.000 OA
BRANCH  25  26
ATOM     26  C   UNL     1       2.884   2.914  18.968  0.00  0.00    +0.000 A 
ATOM     27  C   UNL     1       1.488   2.973  18.889  0.00  0.00    +0.000 A 
ATOM     28  C   UNL     1       0.718   2.951  20.054  0.00  0.00    +0.000 A 
ATOM     29  C   UNL     1       1.332   2.801  21.294  0.00  0.00    +0.000 A 
ATOM     30  C   UNL     1       2.719   2.665  21.371  0.00  0.00    +0.000 A 
ATOM     31  C   UNL     1       3.492   2.720  20.210  0.00  0.00    +0.000 A 
ENDBRANCH  25  26
ENDBRANCH  23  25
ENDBRANCH  18  19
ENDBRANCH   3  18
TORSDOF 7
ENDMDL
MODEL 7
REMARK VINA RESULT:      -8.0      3.894     10.265
REMARK  Name = 
REMARK  8 active torsions:
REMARK  status: ('A' for Active; 'I' for Inactive)
REMARK    1  A    between atoms: C_1  and  C_2
REMARK    2  A    between atoms: C_4  and  C_5
REMARK    3  A    between atoms: N_8  and  C_9
REMARK    4  A    between atoms: C_9  and  C_10
REMARK    5  A    between atoms: N_12  and  C_13
REMARK    6  A    between atoms: C_13  and  C_14
REMARK    7  A    between atoms: C_18  and  O_19
REMARK    8  A    between atoms: O_19  and  C_20
REMARK                            x       y       z     vdW  Elec       q    Type
REMARK                         _______ _______ _______ _____ _____    ______ ____
ROOT
ATOM      1  C   UNL     1       0.838   8.458  21.266  0.00  0.00    +0.000 C 
ATOM      2  O   UNL     1      -0.296   8.172  21.643  0.00  0.00    +0.000 OA
ATOM      3  N   UNL     1       1.722   7.503  20.819  0.00  0.00    +0.000 N 
ATOM      4  H   UNL     1       2.675   7.763  20.594  0.00  0.00    +0.000 HD
ENDROOT
BRANCH   1   5
ATOM      5  C   UNL     1       1.335   9.913  21.193  0.00  0.00    +0.000 C 
BRANCH   5   9
ATOM      6  C   UNL     1      -1.327  10.501  19.319  0.00  0.00    +0.000 C 
ATOM      7  C   UNL     1      -1.005  11.732  20.157  0.00  0.00    +0.000 C 
ATOM      8  C   UNL     1       0.494  11.909  19.984  0.00  0.00    +0.000 C 
ATOM      9  N   UNL     1       1.062  10.552  19.889  0.00  0.00    +0.000 NA
ATOM     10  C   UNL     1       0.029   9.793  19.142  0.00  0.00    +0.000 C 
BRANCH   6  14
ATOM     11  C   UNL     1      -2.974  10.053  14.653  0.00  0.00    +0.000 C 
ATOM     12  C   UNL     1      -2.644  10.517  16.019  0.00  0.00    +0.000 A 
ATOM     13  N   UNL     1      -1.862   9.952  16.908  0.00  0.00    +0.000 NA
ATOM     14  C   UNL     1      -1.958  10.785  18.001  0.00  0.00    +0.000 A 
ATOM     15  N   UNL     1      -2.757  11.845  17.815  0.00  0.00    +0.000 NA
ATOM     16  N   UNL     1      -3.181  11.652  16.556  0.00  0.00    +0.000 N 
ATOM     17  H   UNL     1      -3.835  12.309  16.146  0.00  0.00    +0.000 HD
ENDBRANCH   6  14
ENDBRANCH   5   9
ENDBRANCH   1   5
BRANCH   3  18
ATOM     18  C   UNL     1       1.389   6.094  20.856  0.00  0.00    +0.000 C 
BRANCH  18  19
ATOM     19  C   UNL     1       2.469   5.163  20.355  0.00  0.00    +0.000 A 
ATOM     20  C   UNL     1       2.269   3.781  20.527  0.00  0.00    +0.000 A 
ATOM     21  C   UNL     1       3.233   2.857  20.125  0.00  0.00    +0.000 A 
ATOM     22  C   UNL     1       4.412   3.300  19.531  0.00  0.00    +0.000 A 
ATOM     23  C   UNL     1       4.593   4.662  19.270  0.00  0.00    +0.000 A 
ATOM     24  C   UNL     1       3.642   5.589  19.714  0.00  0.00    +0.000 A 
BRANCH  23  25
ATOM     25  O   UNL     1       5.695   5.186  18.632  0.00  0.00    +0.000 OA
BRANCH  25  26
ATOM     26  C   UNL     1       5.916   4.921  17.297  0.00  0.00    +0.000 A 
ATOM     27  C   UNL     1       7.179   4.866  16.697  0.00  0.00    +0.000 A 
ATOM     28  C   UNL     1       7.294   4.640  15.324  0.00  0.00    +0.000 A 
ATOM     29  C   UNL     1       6.156   4.401  14.558  0.00  0.00    +0.000 A 
ATOM     30  C   UNL     1       4.901   4.379  15.167  0.00  0.00    +0.000 A 
ATOM     31  C   UNL     1       4.782   4.638  16.534  0.00  0.00    +0.000 A 
ENDBRANCH  25  26
ENDBRANCH  23  25
ENDBRANCH  18  19
ENDBRANCH   3  18
TORSDOF 7
ENDMDL
MODEL 8
REMARK VINA RESULT:      -8.0      3.893     10.111
REMARK  Name = 
REMARK  8 active torsions:
REMARK  status: ('A' for Active; 'I' for Inactive)
REMARK    1  A    between atoms: C_1  and  C_2
REMARK    2  A    between atoms: C_4  and  C_5
REMARK    3  A    between atoms: N_8  and  C_9
REMARK    4  A    between atoms: C_9  and  C_10
REMARK    5  A    between atoms: N_12  and  C_13
REMARK    6  A    between atoms: C_13  and  C_14
REMARK    7  A    between atoms: C_18  and  O_19
REMARK    8  A    between atoms: O_19  and  C_20
REMARK                            x       y       z     vdW  Elec       q    Type
REMARK                         _______ _______ _______ _____ _____    ______ ____
ROOT
ATOM      1  C   UNL     1       1.290   8.764  21.111  0.00  0.00    +0.000 C 
ATOM      2  O   UNL     1       1.126   8.444  22.286  0.00  0.00    +0.000 OA
ATOM      3  N   UNL     1       1.769   7.880  20.173  0.00  0.00    +0.000 N 
ATOM      4  H   UNL     1       1.969   8.199  19.233  0.00  0.00    +0.000 HD
ENDROOT
BRANCH   1   5
ATOM      5  C   UNL     1       0.905  10.156  20.581  0.00  0.00    +0.000 C 
BRANCH   5   9
ATOM      6  C   UNL     1      -1.628  11.270  18.769  0.00  0.00    +0.000 C 
ATOM      7  C   UNL     1      -0.485  12.277  18.729  0.00  0.00    +0.000 C 
ATOM      8  C   UNL     1       0.741  11.425  18.455  0.00  0.00    +0.000 C 
ATOM      9  N   UNL     1       0.521  10.145  19.153  0.00  0.00    +0.000 NA
ATOM     10  C   UNL     1      -0.937   9.915  19.007  0.00  0.00    +0.000 C 
BRANCH   6  14
ATOM     11  C   UNL     1      -3.419  10.134  14.276  0.00  0.00    +0.000 C 
ATOM     12  C   UNL     1      -3.185  10.687  15.628  0.00  0.00    +0.000 A 
ATOM     13  N   UNL     1      -2.128  10.554  16.394  0.00  0.00    +0.000 NA
ATOM     14  C   UNL     1      -2.473  11.232  17.544  0.00  0.00    +0.000 A 
ATOM     15  N   UNL     1      -3.693  11.784  17.509  0.00  0.00    +0.000 NA
ATOM     16  N   UNL     1      -4.125  11.425  16.290  0.00  0.00    +0.000 N 
ATOM     17  H   UNL     1      -5.056  11.693  15.993  0.00  0.00    +0.000 HD
ENDBRANCH   6  14
ENDBRANCH   5   9
ENDBRANCH   1   5
BRANCH   3  18
ATOM     18  C   UNL     1       2.190   6.545  20.544  0.00  0.00    +0.000 C 
BRANCH  18  19
ATOM     19  C   UNL     1       2.481   5.616  19.388  0.00  0.00    +0.000 A 
ATOM     20  C   UNL     1       1.438   4.786  18.939  0.00  0.00    +0.000 A 
ATOM     21  C   UNL     1       1.636   3.876  17.902  0.00  0.00    +0.000 A 
ATOM     22  C   UNL     1       2.882   3.787  17.285  0.00  0.00    +0.000 A 
ATOM     23  C   UNL     1       3.907   4.664  17.655  0.00  0.00    +0.000 A 
ATOM     24  C   UNL     1       3.716   5.546  18.726  0.00  0.00    +0.000 A 
BRANCH  23  25
ATOM     25  O   UNL     1       5.149   4.694  17.061  0.00  0.00    +0.000 OA
BRANCH  25  26
ATOM     26  C   UNL     1       6.102   5.591  17.491  0.00  0.00    +0.000 A 
ATOM     27  C   UNL     1       6.263   6.884  16.978  0.00  0.00    +0.000 A 
ATOM     28  C   UNL     1       7.295   7.700  17.447  0.00  0.00    +0.000 A 
ATOM     29  C   UNL     1       8.125   7.257  18.473  0.00  0.00    +0.000 A 
ATOM     30  C   UNL     1       7.919   5.998  19.039  0.00  0.00    +0.000 A 
ATOM     31  C   UNL     1       6.909   5.169  18.549  0.00  0.00    +0.000 A 
ENDBRANCH  25  26
ENDBRANCH  23  25
ENDBRANCH  18  19
ENDBRANCH   3  18
TORSDOF 7
ENDMDL
MODEL 9
REMARK VINA RESULT:      -8.0      3.315      4.051
REMARK  Name = 
REMARK  8 active torsions:
REMARK  status: ('A' for Active; 'I' for Inactive)
REMARK    1  A    between atoms: C_1  and  C_2
REMARK    2  A    between atoms: C_4  and  C_5
REMARK    3  A    between atoms: N_8  and  C_9
REMARK    4  A    between atoms: C_9  and  C_10
REMARK    5  A    between atoms: N_12  and  C_13
REMARK    6  A    between atoms: C_13  and  C_14
REMARK    7  A    between atoms: C_18  and  O_19
REMARK    8  A    between atoms: O_19  and  C_20
REMARK                            x       y       z     vdW  Elec       q    Type
REMARK                         _______ _______ _______ _____ _____    ______ ____
ROOT
ATOM      1  C   UNL     1       2.136   6.184  20.295  0.00  0.00    +0.000 C 
ATOM      2  O   UNL     1       1.323   5.272  20.427  0.00  0.00    +0.000 OA
ATOM      3  N   UNL     1       1.848   7.478  20.661  0.00  0.00    +0.000 N 
ATOM      4  H   UNL     1       2.509   8.219  20.462  0.00  0.00    +0.000 HD
ENDROOT
BRANCH   1   5
ATOM      5  C   UNL     1       3.565   5.939  19.779  0.00  0.00    +0.000 C 
BRANCH   5   9
ATOM      6  C   UNL     1       5.900   5.095  17.594  0.00  0.00    +0.000 C 
ATOM      7  C   UNL     1       5.361   3.845  18.280  0.00  0.00    +0.000 C 
ATOM      8  C   UNL     1       3.854   4.023  18.229  0.00  0.00    +0.000 C 
ATOM      9  N   UNL     1       3.602   5.468  18.379  0.00  0.00    +0.000 NA
ATOM     10  C   UNL     1       4.731   6.096  17.648  0.00  0.00    +0.000 C 
BRANCH   6  14
ATOM     11  C   UNL     1       6.165   3.660  12.844  0.00  0.00    +0.000 C 
ATOM     12  C   UNL     1       6.402   4.257  14.177  0.00  0.00    +0.000 A 
ATOM     13  N   UNL     1       5.749   4.048  15.295  0.00  0.00    +0.000 NA
ATOM     14  C   UNL     1       6.366   4.891  16.194  0.00  0.00    +0.000 A 
ATOM     15  N   UNL     1       7.378   5.600  15.676  0.00  0.00    +0.000 NA
ATOM     16  N   UNL     1       7.380   5.184  14.400  0.00  0.00    +0.000 N 
ATOM     17  H   UNL     1       8.047   5.583  13.749  0.00  0.00    +0.000 HD
ENDBRANCH   6  14
ENDBRANCH   5   9
ENDBRANCH   1   5
BRANCH   3  18
ATOM     18  C   UNL     1       0.532   7.849  21.139  0.00  0.00    +0.000 C 
BRANCH  18  19
ATOM     19  C   UNL     1       0.172   9.307  20.972  0.00  0.00    +0.000 A 
ATOM     20  C   UNL     1      -0.133   9.759  19.675  0.00  0.00    +0.000 A 
ATOM     21  C   UNL     1      -0.440  11.095  19.430  0.00  0.00    +0.000 A 
ATOM     22  C   UNL     1      -0.462  12.006  20.484  0.00  0.00    +0.000 A 
ATOM     23  C   UNL     1      -0.250  11.562  21.793  0.00  0.00    +0.000 A 
ATOM     24  C   UNL     1       0.101  10.227  22.028  0.00  0.00    +0.000 A 
BRANCH  23  25
ATOM     25  O   UNL     1      -0.313  12.375  22.904  0.00  0.00    +0.000 OA
BRANCH  25  26
ATOM     26  C   UNL     1      -1.514  12.931  23.289  0.00  0.00    +0.000 A 
ATOM     27  C   UNL     1      -1.694  14.278  23.622  0.00  0.00    +0.000 A 
ATOM     28  C   UNL     1      -2.942  14.735  24.050  0.00  0.00    +0.000 A 
ATOM     29  C   UNL     1      -4.030  13.865  24.082  0.00  0.00    +0.000 A 
ATOM     30  C   UNL     1      -3.872  12.540  23.678  0.00  0.00    +0.000 A 
ATOM     31  C   UNL     1      -2.617  12.074  23.281  0.00  0.00    +0.000 A 
ENDBRANCH  25  26
ENDBRANCH  23  25
ENDBRANCH  18  19
ENDBRANCH   3  18
TORSDOF 7
ENDMDL
