MODEL 1
REMARK VINA RESULT:      -8.5      0.000      0.000
REMARK  Name = 
REMARK  5 active torsions:
REMARK  status: ('A' for Active; 'I' for Inactive)
REMARK    1  A    between atoms: C_1  and  C_2
REMARK    2  A    between atoms: C_4  and  N_5
REMARK    3  A    between atoms: C_8  and  N_9
REMARK    4  A    between atoms: C_10  and  C_12
REMARK    5  A    between atoms: C_26  and  C_27
REMARK                            x       y       z     vdW  Elec       q    Type
REMARK                         _______ _______ _______ _____ _____    ______ ____
ROOT
ATOM      1  N   UNL     1       4.207   5.979  19.016  0.00  0.00    +0.000 N 
ATOM      2  C   UNL     1       3.122   5.852  19.860  0.00  0.00    +0.000 C 
ATOM      3  O   UNL     1       2.851   4.843  20.498  0.00  0.00    +0.000 OA
ATOM      4  H   UNL     1       4.162   6.712  18.318  0.00  0.00    +0.000 HD
ENDROOT
BRANCH   2   5
ATOM      5  C   UNL     1       2.194   7.001  19.872  0.00  0.00    +0.000 A 
ATOM      6  C   UNL     1       1.438   7.330  21.021  0.00  0.00    +0.000 A 
ATOM      7  C   UNL     1       0.760   8.550  21.089  0.00  0.00    +0.000 A 
ATOM      8  C   UNL     1       0.886   9.398  20.013  0.00  0.00    +0.000 A 
ATOM      9  C   UNL     1       1.559   9.036  18.863  0.00  0.00    +0.000 A 
ATOM     10  C   UNL     1       2.195   7.827  18.744  0.00  0.00    +0.000 A 
ATOM     11  O   UNL     1       1.603  10.044  17.949  0.00  0.00    +0.000 OA
ATOM     12  C   UNL     1       1.198  11.117  18.806  0.00  0.00    +0.000 C 
ATOM     13  F   UNL     1       2.317  11.761  19.230  0.00  0.00    +0.000 F 
ATOM     14  F   UNL     1       0.456  12.002  18.099  0.00  0.00    +0.000 F 
ATOM     15  O   UNL     1       0.457  10.689  19.960  0.00  0.00    +0.000 OA
ENDBRANCH   2   5
BRANCH   1  19
ATOM     16  N   UNL     1       5.781   4.791  15.982  0.00  0.00    +0.000 N 
ATOM     17  C   UNL     1       6.342   5.866  16.797  0.00  0.00    +0.000 C 
ATOM     18  C   UNL     1       6.460   5.313  18.214  0.00  0.00    +0.000 C 
ATOM     19  C   UNL     1       5.093   4.852  18.739  0.00  0.00    +0.000 C 
ATOM     20  C   UNL     1       4.433   3.866  17.758  0.00  0.00    +0.000 C 
ATOM     21  C   UNL     1       4.421   4.403  16.324  0.00  0.00    +0.000 C 
BRANCH  16  25
ATOM     22  C   UNL     1       5.795   2.481  11.684  0.00  0.00    +0.000 C 
ATOM     23  C   UNL     1       6.257   3.578  12.593  0.00  0.00    +0.000 A 
ATOM     24  C   UNL     1       5.671   3.757  13.829  0.00  0.00    +0.000 A 
ATOM     25  C   UNL     1       6.223   4.705  14.670  0.00  0.00    +0.000 A 
ATOM     26  N   UNL     1       7.274   5.436  14.283  0.00  0.00    +0.000 NA
ATOM     27  C   UNL     1       7.778   5.221  13.055  0.00  0.00    +0.000 A 
ATOM     28  C   UNL     1       8.997   5.990  12.662  0.00  0.00    +0.000 C 
ATOM     29  N   UNL     1       7.306   4.310  12.186  0.00  0.00    +0.000 NA
ENDBRANCH  16  25
ENDBRANCH   1  19
TORSDOF 3
ENDMDL
MODEL 2
REMARK VINA RESULT:      -8.2      5.274     10.300
REMARK  Name = 
REMARK  5 active torsions:
REMARK  status: ('A' for Active; 'I' for Inactive)
REMARK    1  A    between atoms: C_1  and  C_2
REMARK    2  A    between atoms: C_4  and  N_5
REMARK    3  A    between atoms: C_8  and  N_9
REMARK    4  A    between atoms: C_10  and  C_12
REMARK    5  A    between atoms: C_26  and  C_27
REMARK                            x       y       z     vdW  Elec       q    Type
REMARK                         _______ _______ _______ _____ _____    ______ ____
ROOT
ATOM      1  N   UNL     1       1.524   8.999  18.968  0.00  0.00    +0.000 N 
ATOM      2  C   UNL     1       2.346   8.117  18.296  0.00  0.00    +0.000 C 
ATOM      3  O   UNL     1       2.857   8.335  17.204  0.00  0.00    +0.000 OA
ATOM      4  H   UNL     1       0.920   8.610  19.682  0.00  0.00    +0.000 HD
ENDROOT
BRANCH   2   5
ATOM      5  C   UNL     1       2.497   6.790  18.926  0.00  0.00    +0.000 A 
ATOM      6  C   UNL     1       2.053   6.542  20.246  0.00  0.00    +0.000 A 
ATOM      7  C   UNL     1       1.984   5.233  20.728  0.00  0.00    +0.000 A 
ATOM      8  C   UNL     1       2.342   4.225  19.861  0.00  0.00    +0.000 A 
ATOM      9  C   UNL     1       2.850   4.481  18.603  0.00  0.00    +0.000 A 
ATOM     10  C   UNL     1       2.977   5.756  18.116  0.00  0.00    +0.000 A 
ATOM     11  O   UNL     1       3.089   3.340  17.900  0.00  0.00    +0.000 OA
ATOM     12  C   UNL     1       2.357   2.430  18.728  0.00  0.00    +0.000 C 
ATOM     13  F   UNL     1       1.131   2.246  18.169  0.00  0.00    +0.000 F 
ATOM     14  F   UNL     1       2.986   1.231  18.744  0.00  0.00    +0.000 F 
ATOM     15  O   UNL     1       2.176   2.892  20.076  0.00  0.00    +0.000 OA
ENDBRANCH   2   5
BRANCH   1  19
ATOM     16  N   UNL     1      -1.102  11.353  19.779  0.00  0.00    +0.000 N 
ATOM     17  C   UNL     1       0.195  11.351  20.451  0.00  0.00    +0.000 C 
ATOM     18  C   UNL     1       1.248  11.437  19.351  0.00  0.00    +0.000 C 
ATOM     19  C   UNL     1       1.112  10.265  18.368  0.00  0.00    +0.000 C 
ATOM     20  C   UNL     1      -0.325  10.170  17.824  0.00  0.00    +0.000 C 
ATOM     21  C   UNL     1      -1.368  10.190  18.945  0.00  0.00    +0.000 C 
BRANCH  16  25
ATOM     22  C   UNL     1      -3.320  12.631  23.933  0.00  0.00    +0.000 C 
ATOM     23  C   UNL     1      -3.239  12.598  22.438  0.00  0.00    +0.000 A 
ATOM     24  C   UNL     1      -2.109  12.117  21.808  0.00  0.00    +0.000 A 
ATOM     25  C   UNL     1      -2.143  11.997  20.432  0.00  0.00    +0.000 A 
ATOM     26  N   UNL     1      -3.228  12.359  19.739  0.00  0.00    +0.000 NA
ATOM     27  C   UNL     1      -4.282  12.841  20.419  0.00  0.00    +0.000 A 
ATOM     28  C   UNL     1      -5.515  13.173  19.642  0.00  0.00    +0.000 C 
ATOM     29  N   UNL     1      -4.331  12.974  21.756  0.00  0.00    +0.000 NA
ENDBRANCH  16  25
ENDBRANCH   1  19
TORSDOF 3
ENDMDL
MODEL 3
REMARK VINA RESULT:      -8.1      5.143     10.398
REMARK  Name = 
REMARK  5 active torsions:
REMARK  status: ('A' for Active; 'I' for Inactive)
REMARK    1  A    between atoms: C_1  and  C_2
REMARK    2  A    between atoms: C_4  and  N_5
REMARK    3  A    between atoms: C_8  and  N_9
REMARK    4  A    between atoms: C_10  and  C_12
REMARK    5  A    between atoms: C_26  and  C_27
REMARK                            x       y       z     vdW  Elec       q    Type
REMARK                         _______ _______ _______ _____ _____    ______ ____
ROOT
ATOM      1  N   UNL     1       1.386   8.980  19.110  0.00  0.00    +0.000 N 
ATOM      2  C   UNL     1       2.233   8.267  18.285  0.00  0.00    +0.000 C 
ATOM      3  O   UNL     1       2.608   8.642  17.182  0.00  0.00    +0.000 OA
ATOM      4  H   UNL     1       0.902   8.458  19.831  0.00  0.00    +0.000 HD
ENDROOT
BRANCH   2   5
ATOM      5  C   UNL     1       2.593   6.918  18.765  0.00  0.00    +0.000 A 
ATOM      6  C   UNL     1       2.217   6.463  20.050  0.00  0.00    +0.000 A 
ATOM      7  C   UNL     1       2.355   5.114  20.386  0.00  0.00    +0.000 A 
ATOM      8  C   UNL     1       2.842   4.272  19.412  0.00  0.00    +0.000 A 
ATOM      9  C   UNL     1       3.282   4.738  18.188  0.00  0.00    +0.000 A 
ATOM     10  C   UNL     1       3.206   6.062  17.844  0.00  0.00    +0.000 A 
ATOM     11  O   UNL     1       3.674   3.729  17.362  0.00  0.00    +0.000 OA
ATOM     12  C   UNL     1       3.104   2.634  18.087  0.00  0.00    +0.000 C 
ATOM     13  F   UNL     1       1.909   2.329  17.515  0.00  0.00    +0.000 F 
ATOM     14  F   UNL     1       3.906   1.549  17.968  0.00  0.00    +0.000 F 
ATOM     15  O   UNL     1       2.882   2.914  19.478  0.00  0.00    +0.000 OA
ENDBRANCH   2   5
BRANCH   1  19
ATOM     16  N   UNL     1      -0.300  11.631  20.906  0.00  0.00    +0.000 N 
ATOM     17  C   UNL     1       1.155  11.549  20.796  0.00  0.00    +0.000 C 
ATOM     18  C   UNL     1       1.467  11.453  19.306  0.00  0.00    +0.000 C 
ATOM     19  C   UNL     1       0.777  10.235  18.677  0.00  0.00    +0.000 C 
ATOM     20  C   UNL     1      -0.732  10.243  18.979  0.00  0.00    +0.000 C 
ATOM     21  C   UNL     1      -1.020  10.444  20.470  0.00  0.00    +0.000 C 
BRANCH  16  25
ATOM     22  C   UNL     1      -3.845  12.603  24.114  0.00  0.00    +0.000 C 
ATOM     23  C   UNL     1      -2.530  12.913  23.469  0.00  0.00    +0.000 A 
ATOM     24  C   UNL     1      -1.956  12.021  22.585  0.00  0.00    +0.000 A 
ATOM     25  C   UNL     1      -0.806  12.418  21.930  0.00  0.00    +0.000 A 
ATOM     26  N   UNL     1      -0.260  13.616  22.167  0.00  0.00    +0.000 NA
ATOM     27  C   UNL     1      -0.864  14.422  23.058  0.00  0.00    +0.000 A 
ATOM     28  C   UNL     1      -0.287  15.786  23.259  0.00  0.00    +0.000 C 
ATOM     29  N   UNL     1      -1.990  14.114  23.724  0.00  0.00    +0.000 NA
ENDBRANCH  16  25
ENDBRANCH   1  19
TORSDOF 3
ENDMDL
MODEL 4
REMARK VINA RESULT:      -8.1      4.482      7.581
REMARK  Name = 
REMARK  5 active torsions:
REMARK  status: ('A' for Active; 'I' for Inactive)
REMARK    1  A    between atoms: C_1  and  C_2
REMARK    2  A    between atoms: C_4  and  N_5
REMARK    3  A    between atoms: C_8  and  N_9
REMARK    4  A    between atoms: C_10  and  C_12
REMARK    5  A    between atoms: C_26  and  C_27
REMARK                            x       y       z     vdW  Elec       q    Type
REMARK                         _______ _______ _______ _____ _____    ______ ____
ROOT
ATOM      1  N   UNL     1      -0.626  10.775  19.136  0.00  0.00    +0.000 N 
ATOM      2  C   UNL     1      -1.139  11.873  18.475  0.00  0.00    +0.000 C 
ATOM      3  O   UNL     1      -0.496  12.873  18.183  0.00  0.00    +0.000 OA
ATOM      4  H   UNL     1      -1.291  10.164  19.595  0.00  0.00    +0.000 HD
ENDROOT
BRANCH   2   5
ATOM      5  C   UNL     1      -2.594  11.836  18.224  0.00  0.00    +0.000 A 
ATOM      6  C   UNL     1      -3.123  11.354  17.003  0.00  0.00    +0.000 A 
ATOM      7  C   UNL     1      -4.492  11.102  16.883  0.00  0.00    +0.000 A 
ATOM      8  C   UNL     1      -5.270  11.321  17.997  0.00  0.00    +0.000 A 
ATOM      9  C   UNL     1      -4.759  11.867  19.158  0.00  0.00    +0.000 A 
ATOM     10  C   UNL     1      -3.429  12.172  19.294  0.00  0.00    +0.000 A 
ATOM     11  O   UNL     1      -5.692  11.948  20.145  0.00  0.00    +0.000 OA
ATOM     12  C   UNL     1      -6.683  11.093  19.565  0.00  0.00    +0.000 C 
ATOM     13  F   UNL     1      -6.544   9.857  20.113  0.00  0.00    +0.000 F 
ATOM     14  F   UNL     1      -7.917  11.550  19.887  0.00  0.00    +0.000 F 
ATOM     15  O   UNL     1      -6.578  10.971  18.137  0.00  0.00    +0.000 OA
ENDBRANCH   2   5
BRANCH   1  19
ATOM     16  N   UNL     1       1.767   8.107  19.640  0.00  0.00    +0.000 N 
ATOM     17  C   UNL     1       1.562   8.754  18.346  0.00  0.00    +0.000 C 
ATOM     18  C   UNL     1       1.736  10.251  18.581  0.00  0.00    +0.000 C 
ATOM     19  C   UNL     1       0.745  10.760  19.638  0.00  0.00    +0.000 C 
ATOM     20  C   UNL     1       0.845   9.928  20.929  0.00  0.00    +0.000 C 
ATOM     21  C   UNL     1       0.771   8.424  20.652  0.00  0.00    +0.000 C 
BRANCH  16  25
ATOM     22  C   UNL     1       4.440   4.754  17.314  0.00  0.00    +0.000 C 
ATOM     23  C   UNL     1       3.651   5.222  18.498  0.00  0.00    +0.000 A 
ATOM     24  C   UNL     1       3.206   6.526  18.571  0.00  0.00    +0.000 A 
ATOM     25  C   UNL     1       2.379   6.863  19.626  0.00  0.00    +0.000 A 
ATOM     26  N   UNL     1       2.047   5.958  20.553  0.00  0.00    +0.000 NA
ATOM     27  C   UNL     1       2.538   4.713  20.427  0.00  0.00    +0.000 A 
ATOM     28  C   UNL     1       2.101   3.692  21.427  0.00  0.00    +0.000 C 
ATOM     29  N   UNL     1       3.335   4.305  19.424  0.00  0.00    +0.000 NA
ENDBRANCH  16  25
ENDBRANCH   1  19
TORSDOF 3
ENDMDL
MODEL 5
REMARK VINA RESULT:      -8.0      0.560      1.586
REMARK  Name = 
REMARK  5 active torsions:
REMARK  status: ('A' for Active; 'I' for Inactive)
REMARK    1  A    between atoms: C_1  and  C_2
REMARK    2  A    between atoms: C_4  and  N_5
REMARK    3  A    between atoms: C_8  and  N_9
REMARK    4  A    between atoms: C_10  and  C_12
REMARK    5  A    between atoms: C_26  and  C_27
REMARK                            x       y       z     vdW  Elec       q    Type
REMARK                         _______ _______ _______ _____ _____    ______ ____
ROOT
ATOM      1  N   UNL     1       4.115   5.826  19.068  0.00  0.00    +0.000 N 
ATOM      2  C   UNL     1       3.045   5.800  19.939  0.00  0.00    +0.000 C 
ATOM      3  O   UNL     1       2.754   4.851  20.656  0.00  0.00    +0.000 OA
ATOM      4  H   UNL     1       4.080   6.506  18.318  0.00  0.00    +0.000 HD
ENDROOT
BRANCH   2   5
ATOM      5  C   UNL     1       2.156   6.977  19.883  0.00  0.00    +0.000 A 
ATOM      6  C   UNL     1       1.362   7.360  20.989  0.00  0.00    +0.000 A 
ATOM      7  C   UNL     1       0.722   8.602  20.999  0.00  0.00    +0.000 A 
ATOM      8  C   UNL     1       0.923   9.418  19.909  0.00  0.00    +0.000 A 
ATOM      9  C   UNL     1       1.633   9.005  18.799  0.00  0.00    +0.000 A 
ATOM     10  C   UNL     1       2.233   7.774  18.736  0.00  0.00    +0.000 A 
ATOM     11  O   UNL     1       1.749   9.988  17.864  0.00  0.00    +0.000 OA
ATOM     12  C   UNL     1       1.343  11.095  18.676  0.00  0.00    +0.000 C 
ATOM     13  F   UNL     1       2.464  11.713  19.134  0.00  0.00    +0.000 F 
ATOM     14  F   UNL     1       0.663  11.985  17.916  0.00  0.00    +0.000 F 
ATOM     15  O   UNL     1       0.539  10.720  19.806  0.00  0.00    +0.000 OA
ENDBRANCH   2   5
BRANCH   1  19
ATOM     16  N   UNL     1       5.758   4.482  16.137  0.00  0.00    +0.000 N 
ATOM     17  C   UNL     1       6.335   5.551  16.948  0.00  0.00    +0.000 C 
ATOM     18  C   UNL     1       6.366   5.034  18.383  0.00  0.00    +0.000 C 
ATOM     19  C   UNL     1       4.958   4.652  18.859  0.00  0.00    +0.000 C 
ATOM     20  C   UNL     1       4.294   3.671  17.876  0.00  0.00    +0.000 C 
ATOM     21  C   UNL     1       4.368   4.167  16.429  0.00  0.00    +0.000 C 
BRANCH  16  25
ATOM     22  C   UNL     1       8.705   6.011  12.562  0.00  0.00    +0.000 C 
ATOM     23  C   UNL     1       7.656   5.089  13.102  0.00  0.00    +0.000 A 
ATOM     24  C   UNL     1       7.311   5.127  14.438  0.00  0.00    +0.000 A 
ATOM     25  C   UNL     1       6.252   4.339  14.849  0.00  0.00    +0.000 A 
ATOM     26  N   UNL     1       5.606   3.552  13.982  0.00  0.00    +0.000 NA
ATOM     27  C   UNL     1       6.014   3.551  12.701  0.00  0.00    +0.000 A 
ATOM     28  C   UNL     1       5.238   2.724  11.728  0.00  0.00    +0.000 C 
ATOM     29  N   UNL     1       7.024   4.297  12.222  0.00  0.00    +0.000 NA
ENDBRANCH  16  25
ENDBRANCH   1  19
TORSDOF 3
ENDMDL
MODEL 6
REMARK VINA RESULT:      -8.0      5.429      9.108
REMARK  Name = 
REMARK  5 active torsions:
REMARK  status: ('A' for Active; 'I' for Inactive)
REMARK    1  A    between atoms: C_1  and  C_2
REMARK    2  A    between atoms: C_4  and  N_5
REMARK    3  A    between atoms: C_8  and  N_9
REMARK    4  A    between atoms: C_10  and  C_12
REMARK    5  A    between atoms: C_26  and  C_27
REMARK                            x       y       z     vdW  Elec       q    Type
REMARK                         _______ _______ _______ _____ _____    ______ ____
ROOT
ATOM      1  N   UNL     1       1.650   8.359  20.110  0.00  0.00    +0.000 N 
ATOM      2  C   UNL     1       2.457   7.563  19.321  0.00  0.00    +0.000 C 
ATOM      3  O   UNL     1       3.104   7.963  18.361  0.00  0.00    +0.000 OA
ATOM      4  H   UNL     1       0.938   7.890  20.656  0.00  0.00    +0.000 HD
ENDROOT
BRANCH   2   5
ATOM      5  C   UNL     1       2.416   6.120  19.629  0.00  0.00    +0.000 A 
ATOM      6  C   UNL     1       1.361   5.553  20.382  0.00  0.00    +0.000 A 
ATOM      7  C   UNL     1       1.215   4.165  20.453  0.00  0.00    +0.000 A 
ATOM      8  C   UNL     1       2.120   3.404  19.748  0.00  0.00    +0.000 A 
ATOM      9  C   UNL     1       3.193   3.962  19.082  0.00  0.00    +0.000 A 
ATOM     10  C   UNL     1       3.393   5.317  19.033  0.00  0.00    +0.000 A 
ATOM     11  O   UNL     1       3.927   3.032  18.412  0.00  0.00    +0.000 OA
ATOM     12  C   UNL     1       2.992   1.949  18.470  0.00  0.00    +0.000 C 
ATOM     13  F   UNL     1       2.308   1.921  17.296  0.00  0.00    +0.000 F 
ATOM     14  F   UNL     1       3.664   0.779  18.584  0.00  0.00    +0.000 F 
ATOM     15  O   UNL     1       2.044   2.060  19.544  0.00  0.00    +0.000 OA
ENDBRANCH   2   5
BRANCH   1  19
ATOM     16  N   UNL     1      -1.028  10.084  18.392  0.00  0.00    +0.000 N 
ATOM     17  C   UNL     1      -1.096   9.723  19.806  0.00  0.00    +0.000 C 
ATOM     18  C   UNL     1       0.152  10.307  20.460  0.00  0.00    +0.000 C 
ATOM     19  C   UNL     1       1.425   9.767  19.793  0.00  0.00    +0.000 C 
ATOM     20  C   UNL     1       1.381   9.985  18.270  0.00  0.00    +0.000 C 
ATOM     21  C   UNL     1       0.072   9.482  17.654  0.00  0.00    +0.000 C 
BRANCH  16  25
ATOM     22  C   UNL     1      -3.703  10.207  14.315  0.00  0.00    +0.000 C 
ATOM     23  C   UNL     1      -3.526  10.442  15.783  0.00  0.00    +0.000 A 
ATOM     24  C   UNL     1      -2.392   9.998  16.431  0.00  0.00    +0.000 A 
ATOM     25  C   UNL     1      -2.231  10.354  17.757  0.00  0.00    +0.000 A 
ATOM     26  N   UNL     1      -3.157  11.084  18.389  0.00  0.00    +0.000 NA
ATOM     27  C   UNL     1      -4.246  11.460  17.698  0.00  0.00    +0.000 A 
ATOM     28  C   UNL     1      -5.238  12.337  18.392  0.00  0.00    +0.000 C 
ATOM     29  N   UNL     1      -4.469  11.166  16.405  0.00  0.00    +0.000 NA
ENDBRANCH  16  25
ENDBRANCH   1  19
TORSDOF 3
ENDMDL
MODEL 7
REMARK VINA RESULT:      -8.0      1.284      2.330
REMARK  Name = 
REMARK  5 active torsions:
REMARK  status: ('A' for Active; 'I' for Inactive)
REMARK    1  A    between atoms: C_1  and  C_2
REMARK    2  A    between atoms: C_4  and  N_5
REMARK    3  A    between atoms: C_8  and  N_9
REMARK    4  A    between atoms: C_10  and  C_12
REMARK    5  A    between atoms: C_26  and  C_27
REMARK                            x       y       z     vdW  Elec       q    Type
REMARK                         _______ _______ _______ _____ _____    ______ ____
ROOT
ATOM      1  N   UNL     1       4.341   5.899  18.817  0.00  0.00    +0.000 N 
ATOM      2  C   UNL     1       2.987   6.042  19.040  0.00  0.00    +0.000 C 
ATOM      3  O   UNL     1       2.192   5.114  19.120  0.00  0.00    +0.000 OA
ATOM      4  H   UNL     1       4.836   6.709  18.462  0.00  0.00    +0.000 HD
ENDROOT
BRANCH   2   5
ATOM      5  C   UNL     1       2.495   7.434  19.065  0.00  0.00    +0.000 A 
ATOM      6  C   UNL     1       2.681   8.306  17.967  0.00  0.00    +0.000 A 
ATOM      7  C   UNL     1       2.002   9.526  17.916  0.00  0.00    +0.000 A 
ATOM      8  C   UNL     1       1.147   9.811  18.956  0.00  0.00    +0.000 A 
ATOM      9  C   UNL     1       1.031   8.992  20.062  0.00  0.00    +0.000 A 
ATOM     10  C   UNL     1       1.720   7.812  20.167  0.00  0.00    +0.000 A 
ATOM     11  O   UNL     1       0.094   9.439  20.941  0.00  0.00    +0.000 OA
ATOM     12  C   UNL     1      -0.554  10.389  20.088  0.00  0.00    +0.000 C 
ATOM     13  F   UNL     1      -1.660   9.796  19.563  0.00  0.00    +0.000 F 
ATOM     14  F   UNL     1      -0.965  11.449  20.824  0.00  0.00    +0.000 F 
ATOM     15  O   UNL     1       0.269  10.851  19.005  0.00  0.00    +0.000 OA
ENDBRANCH   2   5
BRANCH   1  19
ATOM     16  N   UNL     1       5.839   4.432  15.868  0.00  0.00    +0.000 N 
ATOM     17  C   UNL     1       6.575   5.306  16.779  0.00  0.00    +0.000 C 
ATOM     18  C   UNL     1       6.419   4.703  18.171  0.00  0.00    +0.000 C 
ATOM     19  C   UNL     1       4.938   4.591  18.558  0.00  0.00    +0.000 C 
ATOM     20  C   UNL     1       4.144   3.833  17.479  0.00  0.00    +0.000 C 
ATOM     21  C   UNL     1       4.400   4.394  16.077  0.00  0.00    +0.000 C 
BRANCH  16  25
ATOM     22  C   UNL     1       8.652   6.075  12.236  0.00  0.00    +0.000 C 
ATOM     23  C   UNL     1       7.705   5.073  12.820  0.00  0.00    +0.000 A 
ATOM     24  C   UNL     1       7.336   5.148  14.147  0.00  0.00    +0.000 A 
ATOM     25  C   UNL     1       6.365   4.272  14.594  0.00  0.00    +0.000 A 
ATOM     26  N   UNL     1       5.824   3.370  13.769  0.00  0.00    +0.000 NA
ATOM     27  C   UNL     1       6.249   3.341  12.495  0.00  0.00    +0.000 A 
ATOM     28  C   UNL     1       5.585   2.379  11.564  0.00  0.00    +0.000 C 
ATOM     29  N   UNL     1       7.178   4.167  11.982  0.00  0.00    +0.000 NA
ENDBRANCH  16  25
ENDBRANCH   1  19
TORSDOF 3
ENDMDL
MODEL 8
REMARK VINA RESULT:      -8.0      5.221     10.478
REMARK  Name = 
REMARK  5 active torsions:
REMARK  status: ('A' for Active; 'I' for Inactive)
REMARK    1  A    between atoms: C_1  and  C_2
REMARK    2  A    between atoms: C_4  and  N_5
REMARK    3  A    between atoms: C_8  and  N_9
REMARK    4  A    between atoms: C_10  and  C_12
REMARK    5  A    between atoms: C_26  and  C_27
REMARK                            x       y       z     vdW  Elec       q    Type
REMARK                         _______ _______ _______ _____ _____    ______ ____
ROOT
ATOM      1  N   UNL     1       1.441   9.068  19.064  0.00  0.00    +0.000 N 
ATOM      2  C   UNL     1       2.218   8.240  18.280  0.00  0.00    +0.000 C 
ATOM      3  O   UNL     1       2.584   8.501  17.141  0.00  0.00    +0.000 OA
ATOM      4  H   UNL     1       0.946   8.638  19.836  0.00  0.00    +0.000 HD
ENDROOT
BRANCH   2   5
ATOM      5  C   UNL     1       2.507   6.912  18.858  0.00  0.00    +0.000 A 
ATOM      6  C   UNL     1       2.033   6.542  20.139  0.00  0.00    +0.000 A 
ATOM      7  C   UNL     1       2.109   5.212  20.558  0.00  0.00    +0.000 A 
ATOM      8  C   UNL     1       2.636   4.303  19.668  0.00  0.00    +0.000 A 
ATOM      9  C   UNL     1       3.169   4.686  18.453  0.00  0.00    +0.000 A 
ATOM     10  C   UNL     1       3.155   5.990  18.031  0.00  0.00    +0.000 A 
ATOM     11  O   UNL     1       3.587   3.622  17.714  0.00  0.00    +0.000 OA
ATOM     12  C   UNL     1       2.938   2.585  18.458  0.00  0.00    +0.000 C 
ATOM     13  F   UNL     1       1.776   2.277  17.824  0.00  0.00    +0.000 F 
ATOM     14  F   UNL     1       3.715   1.475  18.456  0.00  0.00    +0.000 F 
ATOM     15  O   UNL     1       2.632   2.950  19.814  0.00  0.00    +0.000 OA
ENDBRANCH   2   5
BRANCH   1  19
ATOM     16  N   UNL     1      -0.428  11.754  20.611  0.00  0.00    +0.000 N 
ATOM     17  C   UNL     1       1.029  11.661  20.679  0.00  0.00    +0.000 C 
ATOM     18  C   UNL     1       1.519  11.544  19.239  0.00  0.00    +0.000 C 
ATOM     19  C   UNL     1       0.899  10.322  18.546  0.00  0.00    +0.000 C 
ATOM     20  C   UNL     1      -0.635  10.344  18.663  0.00  0.00    +0.000 C 
ATOM     21  C   UNL     1      -1.100  10.567  20.105  0.00  0.00    +0.000 C 
BRANCH  16  25
ATOM     22  C   UNL     1      -0.359  15.700  23.480  0.00  0.00    +0.000 C 
ATOM     23  C   UNL     1      -1.011  14.453  22.969  0.00  0.00    +0.000 A 
ATOM     24  C   UNL     1      -0.470  13.766  21.901  0.00  0.00    +0.000 A 
ATOM     25  C   UNL     1      -1.047  12.558  21.557  0.00  0.00    +0.000 A 
ATOM     26  N   UNL     1      -2.107  12.089  22.225  0.00  0.00    +0.000 NA
ATOM     27  C   UNL     1      -2.592  12.824  23.240  0.00  0.00    +0.000 A 
ATOM     28  C   UNL     1      -3.729  12.255  24.026  0.00  0.00    +0.000 C 
ATOM     29  N   UNL     1      -2.079  14.000  23.643  0.00  0.00    +0.000 NA
ENDBRANCH  16  25
ENDBRANCH   1  19
TORSDOF 3
ENDMDL
MODEL 9
REMARK VINA RESULT:      -7.9      4.598      7.299
REMARK  Name = 
REMARK  5 active torsions:
REMARK  status: ('A' for Active; 'I' for Inactive)
REMARK    1  A    between atoms: C_1  and  C_2
REMARK    2  A    between atoms: C_4  and  N_5
REMARK    3  A    between atoms: C_8  and  N_9
REMARK    4  A    between atoms: C_10  and  C_12
REMARK    5  A    between atoms: C_26  and  C_27
REMARK                            x       y       z     vdW  Elec       q    Type
REMARK                         _______ _______ _______ _____ _____    ______ ____
ROOT
ATOM      1  N   UNL     1      -0.155  10.467  18.636  0.00  0.00    +0.000 N 
ATOM      2  C   UNL     1      -0.975  11.541  18.920  0.00  0.00    +0.000 C 
ATOM      3  O   UNL     1      -0.629  12.536  19.543  0.00  0.00    +0.000 OA
ATOM      4  H   UNL     1      -0.609   9.592  18.405  0.00  0.00    +0.000 HD
ENDROOT
BRANCH   2   5
ATOM      5  C   UNL     1      -2.387  11.380  18.518  0.00  0.00    +0.000 A 
ATOM      6  C   UNL     1      -2.805  10.311  17.691  0.00  0.00    +0.000 A 
ATOM      7  C   UNL     1      -4.166  10.041  17.526  0.00  0.00    +0.000 A 
ATOM      8  C   UNL     1      -5.051  10.840  18.215  0.00  0.00    +0.000 A 
ATOM      9  C   UNL     1      -4.638  11.930  18.956  0.00  0.00    +0.000 A 
ATOM     10  C   UNL     1      -3.313  12.252  19.098  0.00  0.00    +0.000 A 
ATOM     11  O   UNL     1      -5.673  12.545  19.591  0.00  0.00    +0.000 OA
ATOM     12  C   UNL     1      -6.656  11.517  19.428  0.00  0.00    +0.000 C 
ATOM     13  F   UNL     1      -6.689  10.783  20.572  0.00  0.00    +0.000 F 
ATOM     14  F   UNL     1      -7.876  12.082  19.266  0.00  0.00    +0.000 F 
ATOM     15  O   UNL     1      -6.391  10.631  18.329  0.00  0.00    +0.000 OA
ENDBRANCH   2   5
BRANCH   1  19
ATOM     16  N   UNL     1       2.007   7.678  19.440  0.00  0.00    +0.000 N 
ATOM     17  C   UNL     1       1.863   8.205  18.084  0.00  0.00    +0.000 C 
ATOM     18  C   UNL     1       2.159   9.698  18.170  0.00  0.00    +0.000 C 
ATOM     19  C   UNL     1       1.208  10.391  19.156  0.00  0.00    +0.000 C 
ATOM     20  C   UNL     1       1.232   9.690  20.526  0.00  0.00    +0.000 C 
ATOM     21  C   UNL     1       1.035   8.176  20.402  0.00  0.00    +0.000 C 
BRANCH  16  25
ATOM     22  C   UNL     1       1.918   3.298  21.588  0.00  0.00    +0.000 C 
ATOM     23  C   UNL     1       2.496   4.277  20.613  0.00  0.00    +0.000 A 
ATOM     24  C   UNL     1       1.867   5.483  20.375  0.00  0.00    +0.000 A 
ATOM     25  C   UNL     1       2.515   6.393  19.560  0.00  0.00    +0.000 A 
ATOM     26  N   UNL     1       3.697   6.101  19.008  0.00  0.00    +0.000 NA
ATOM     27  C   UNL     1       4.237   4.898  19.269  0.00  0.00    +0.000 A 
ATOM     28  C   UNL     1       5.592   4.610  18.707  0.00  0.00    +0.000 C 
ATOM     29  N   UNL     1       3.678   3.965  20.060  0.00  0.00    +0.000 NA
ENDBRANCH  16  25
ENDBRANCH   1  19
TORSDOF 3
ENDMDL
