MODEL 1
REMARK VINA RESULT:      -8.7      0.000      0.000
REMARK  Name = 
REMARK  7 active torsions:
REMARK  status: ('A' for Active; 'I' for Inactive)
REMARK    1  A    between atoms: C_1  and  C_2
REMARK    2  A    between atoms: C_2  and  N_3
REMARK    3  A    between atoms: C_2  and  C_10
REMARK    4  A    between atoms: N_8  and  C_9
REMARK    5  A    between atoms: C_14  and  N_15
REMARK    6  A    between atoms: C_20  and  N_21
REMARK    7  A    between atoms: C_26  and  C_27
REMARK                            x       y       z     vdW  Elec       q    Type
REMARK                         _______ _______ _______ _____ _____    ______ ____
ROOT
ATOM      1  N   UNL     1       0.757   8.357  21.117  0.00  0.00    +0.000 N 
ATOM      2  C   UNL     1      -0.523   8.622  20.417  0.00  0.00    +0.000 C 
ATOM      3  C   UNL     1      -0.465  10.102  20.207  0.00  0.00    +0.000 A 
ATOM      4  C   UNL     1       0.319  10.632  21.234  0.00  0.00    +0.000 A 
ATOM      5  C   UNL     1       0.707  11.960  21.285  0.00  0.00    +0.000 A 
ATOM      6  C   UNL     1       0.317  12.793  20.234  0.00  0.00    +0.000 A 
ATOM      7  C   UNL     1      -0.470  12.256  19.188  0.00  0.00    +0.000 A 
ATOM      8  C   UNL     1      -0.867  10.901  19.147  0.00  0.00    +0.000 A 
ATOM      9  C   UNL     1       0.982   9.502  21.921  0.00  0.00    +0.000 C 
ATOM     10  O   UNL     1       1.735   9.625  22.874  0.00  0.00    +0.000 OA
ENDROOT
BRANCH   1  15
ATOM     11  C   UNL     1       2.615   6.095  18.969  0.00  0.00    +0.000 A 
ATOM     12  C   UNL     1       2.487   6.806  17.767  0.00  0.00    +0.000 A 
ATOM     13  C   UNL     1       2.197   8.168  17.778  0.00  0.00    +0.000 A 
ATOM     14  C   UNL     1       1.913   8.805  18.982  0.00  0.00    +0.000 A 
ATOM     15  C   UNL     1       1.808   8.046  20.157  0.00  0.00    +0.000 A 
ATOM     16  C   UNL     1       2.337   6.753  20.177  0.00  0.00    +0.000 A 
BRANCH  11  18
ATOM     17  C   UNL     1       1.682   3.797  18.787  0.00  0.00    +0.000 C 
ATOM     18  C   UNL     1       2.962   4.616  18.943  0.00  0.00    +0.000 C 
BRANCH  18  19
ATOM     19  N   UNL     1       3.896   4.358  17.839  0.00  0.00    +0.000 N 
ATOM     20  C   UNL     1       5.224   4.488  18.089  0.00  0.00    +0.000 A 
ATOM     21  N   UNL     1       5.832   4.721  19.232  0.00  0.00    +0.000 NA
ATOM     22  N   UNL     1       7.185   4.827  18.995  0.00  0.00    +0.000 NA
ATOM     23  C   UNL     1       7.373   4.623  17.712  0.00  0.00    +0.000 A 
ATOM     24  N   UNL     1       6.175   4.390  17.110  0.00  0.00    +0.000 N 
ATOM     25  C   UNL     1       6.004   4.035  15.723  0.00  0.00    +0.000 C 
ATOM     26  H   UNL     1       3.575   4.746  16.958  0.00  0.00    +0.000 HD
ENDBRANCH  18  19
ENDBRANCH  11  18
ENDBRANCH   1  15
BRANCH   6  27
ATOM     27  N   UNL     1       0.716  14.138  20.193  0.00  0.00    +0.000 N 
ATOM     28  C   UNL     1       1.151  14.925  19.079  0.00  0.00    +0.000 C 
ATOM     29  C   UNL     1       1.468  16.028  20.093  0.00  0.00    +0.000 C 
ATOM     30  C   UNL     1       1.456  14.911  21.143  0.00  0.00    +0.000 C 
ENDBRANCH   6  27
BRANCH   8  31
ATOM     31  C   UNL     1      -1.586  10.394  17.928  0.00  0.00    +0.000 C 
ATOM     32  F   UNL     1      -1.982  11.370  17.062  0.00  0.00    +0.000 F 
ATOM     33  F   UNL     1      -0.824   9.542  17.189  0.00  0.00    +0.000 F 
ATOM     34  F   UNL     1      -2.721   9.706  18.238  0.00  0.00    +0.000 F 
ENDBRANCH   8  31
TORSDOF 5
ENDMDL
MODEL 2
REMARK VINA RESULT:      -8.7      2.999      3.885
REMARK  Name = 
REMARK  7 active torsions:
REMARK  status: ('A' for Active; 'I' for Inactive)
REMARK    1  A    between atoms: C_1  and  C_2
REMARK    2  A    between atoms: C_2  and  N_3
REMARK    3  A    between atoms: C_2  and  C_10
REMARK    4  A    between atoms: N_8  and  C_9
REMARK    5  A    between atoms: C_14  and  N_15
REMARK    6  A    between atoms: C_20  and  N_21
REMARK    7  A    between atoms: C_26  and  C_27
REMARK                            x       y       z     vdW  Elec       q    Type
REMARK                         _______ _______ _______ _____ _____    ______ ____
ROOT
ATOM      1  N   UNL     1       2.620   7.811  19.310  0.00  0.00    +0.000 N 
ATOM      2  C   UNL     1       2.257   8.633  20.490  0.00  0.00    +0.000 C 
ATOM      3  C   UNL     1       1.012   9.318  20.023  0.00  0.00    +0.000 A 
ATOM      4  C   UNL     1       1.099   9.427  18.634  0.00  0.00    +0.000 A 
ATOM      5  C   UNL     1       0.060   9.887  17.843  0.00  0.00    +0.000 A 
ATOM      6  C   UNL     1      -1.140  10.223  18.472  0.00  0.00    +0.000 A 
ATOM      7  C   UNL     1      -1.232  10.106  19.879  0.00  0.00    +0.000 A 
ATOM      8  C   UNL     1      -0.166   9.642  20.681  0.00  0.00    +0.000 A 
ATOM      9  C   UNL     1       2.230   8.584  18.188  0.00  0.00    +0.000 C 
ATOM     10  O   UNL     1       2.579   8.464  17.025  0.00  0.00    +0.000 OA
ENDROOT
BRANCH   1  15
ATOM     11  C   UNL     1       2.683   4.193  19.019  0.00  0.00    +0.000 A 
ATOM     12  C   UNL     1       2.254   3.877  20.317  0.00  0.00    +0.000 A 
ATOM     13  C   UNL     1       1.553   4.811  21.076  0.00  0.00    +0.000 A 
ATOM     14  C   UNL     1       1.382   6.106  20.596  0.00  0.00    +0.000 A 
ATOM     15  C   UNL     1       2.015   6.490  19.404  0.00  0.00    +0.000 A 
ATOM     16  C   UNL     1       2.493   5.499  18.543  0.00  0.00    +0.000 A 
BRANCH  11  18
ATOM     17  C   UNL     1       2.413   2.165  17.604  0.00  0.00    +0.000 C 
ATOM     18  C   UNL     1       3.419   3.154  18.189  0.00  0.00    +0.000 C 
BRANCH  18  19
ATOM     19  N   UNL     1       4.177   3.832  17.129  0.00  0.00    +0.000 N 
ATOM     20  C   UNL     1       5.427   4.271  17.425  0.00  0.00    +0.000 A 
ATOM     21  N   UNL     1       6.130   4.089  18.523  0.00  0.00    +0.000 NA
ATOM     22  N   UNL     1       7.326   4.762  18.394  0.00  0.00    +0.000 NA
ATOM     23  C   UNL     1       7.336   5.313  17.204  0.00  0.00    +0.000 A 
ATOM     24  N   UNL     1       6.177   5.017  16.556  0.00  0.00    +0.000 N 
ATOM     25  C   UNL     1       5.877   5.377  15.192  0.00  0.00    +0.000 C 
ATOM     26  H   UNL     1       3.605   4.472  16.588  0.00  0.00    +0.000 HD
ENDBRANCH  18  19
ENDBRANCH  11  18
ENDBRANCH   1  15
BRANCH   6  27
ATOM     27  N   UNL     1      -2.251  10.648  17.728  0.00  0.00    +0.000 N 
ATOM     28  C   UNL     1      -3.369  11.443  18.135  0.00  0.00    +0.000 C 
ATOM     29  C   UNL     1      -3.968  11.153  16.757  0.00  0.00    +0.000 C 
ATOM     30  C   UNL     1      -2.989   9.974  16.704  0.00  0.00    +0.000 C 
ENDBRANCH   6  27
BRANCH   8  31
ATOM     31  C   UNL     1      -0.405   9.424  22.149  0.00  0.00    +0.000 C 
ATOM     32  F   UNL     1       0.719   9.501  22.918  0.00  0.00    +0.000 F 
ATOM     33  F   UNL     1      -1.268  10.334  22.678  0.00  0.00    +0.000 F 
ATOM     34  F   UNL     1      -0.941   8.200  22.418  0.00  0.00    +0.000 F 
ENDBRANCH   8  31
TORSDOF 5
ENDMDL
MODEL 3
REMARK VINA RESULT:      -8.7      1.005      1.289
REMARK  Name = 
REMARK  7 active torsions:
REMARK  status: ('A' for Active; 'I' for Inactive)
REMARK    1  A    between atoms: C_1  and  C_2
REMARK    2  A    between atoms: C_2  and  N_3
REMARK    3  A    between atoms: C_2  and  C_10
REMARK    4  A    between atoms: N_8  and  C_9
REMARK    5  A    between atoms: C_14  and  N_15
REMARK    6  A    between atoms: C_20  and  N_21
REMARK    7  A    between atoms: C_26  and  C_27
REMARK                            x       y       z     vdW  Elec       q    Type
REMARK                         _______ _______ _______ _____ _____    ______ ____
ROOT
ATOM      1  N   UNL     1       0.146   9.005  20.921  0.00  0.00    +0.000 N 
ATOM      2  C   UNL     1      -1.054   9.003  20.049  0.00  0.00    +0.000 C 
ATOM      3  C   UNL     1      -1.143  10.438  19.636  0.00  0.00    +0.000 A 
ATOM      4  C   UNL     1      -0.568  11.197  20.658  0.00  0.00    +0.000 A 
ATOM      5  C   UNL     1      -0.349  12.560  20.559  0.00  0.00    +0.000 A 
ATOM      6  C   UNL     1      -0.693  13.191  19.362  0.00  0.00    +0.000 A 
ATOM      7  C   UNL     1      -1.268  12.423  18.322  0.00  0.00    +0.000 A 
ATOM      8  C   UNL     1      -1.493  11.033  18.432  0.00  0.00    +0.000 A 
ATOM      9  C   UNL     1       0.127  10.264  21.572  0.00  0.00    +0.000 C 
ATOM     10  O   UNL     1       0.728  10.609  22.576  0.00  0.00    +0.000 OA
ENDROOT
BRANCH   1  15
ATOM     11  C   UNL     1       2.592   6.759  19.455  0.00  0.00    +0.000 A 
ATOM     12  C   UNL     1       2.500   7.199  18.125  0.00  0.00    +0.000 A 
ATOM     13  C   UNL     1       1.996   8.463  17.832  0.00  0.00    +0.000 A 
ATOM     14  C   UNL     1       1.467   9.251  18.851  0.00  0.00    +0.000 A 
ATOM     15  C   UNL     1       1.342   8.718  20.142  0.00  0.00    +0.000 A 
ATOM     16  C   UNL     1       2.066   7.569  20.473  0.00  0.00    +0.000 A 
BRANCH  11  18
ATOM     17  C   UNL     1       2.046   4.440  20.170  0.00  0.00    +0.000 C 
ATOM     18  C   UNL     1       3.172   5.389  19.763  0.00  0.00    +0.000 C 
BRANCH  18  19
ATOM     19  N   UNL     1       3.886   4.890  18.579  0.00  0.00    +0.000 N 
ATOM     20  C   UNL     1       5.243   4.890  18.611  0.00  0.00    +0.000 A 
ATOM     21  N   UNL     1       6.048   5.185  19.609  0.00  0.00    +0.000 NA
ATOM     22  N   UNL     1       7.349   5.099  19.164  0.00  0.00    +0.000 NA
ATOM     23  C   UNL     1       7.306   4.721  17.908  0.00  0.00    +0.000 A 
ATOM     24  N   UNL     1       6.010   4.561  17.526  0.00  0.00    +0.000 N 
ATOM     25  C   UNL     1       5.583   4.064  16.242  0.00  0.00    +0.000 C 
ATOM     26  H   UNL     1       3.467   5.204  17.710  0.00  0.00    +0.000 HD
ENDBRANCH  18  19
ENDBRANCH  11  18
ENDBRANCH   1  15
BRANCH   6  27
ATOM     27  N   UNL     1      -0.453  14.560  19.172  0.00  0.00    +0.000 N 
ATOM     28  C   UNL     1       0.760  15.231  18.816  0.00  0.00    +0.000 C 
ATOM     29  C   UNL     1       0.004  16.541  19.050  0.00  0.00    +0.000 C 
ATOM     30  C   UNL     1      -0.982  15.695  19.865  0.00  0.00    +0.000 C 
ENDBRANCH   6  27
BRANCH   8  31
ATOM     31  C   UNL     1      -1.982  10.280  17.226  0.00  0.00    +0.000 C 
ATOM     32  F   UNL     1      -1.100   9.360  16.742  0.00  0.00    +0.000 F 
ATOM     33  F   UNL     1      -3.128   9.587  17.473  0.00  0.00    +0.000 F 
ATOM     34  F   UNL     1      -2.261  11.099  16.173  0.00  0.00    +0.000 F 
ENDBRANCH   8  31
TORSDOF 5
ENDMDL
MODEL 4
REMARK VINA RESULT:      -8.7      5.378      8.750
REMARK  Name = 
REMARK  7 active torsions:
REMARK  status: ('A' for Active; 'I' for Inactive)
REMARK    1  A    between atoms: C_1  and  C_2
REMARK    2  A    between atoms: C_2  and  N_3
REMARK    3  A    between atoms: C_2  and  C_10
REMARK    4  A    between atoms: N_8  and  C_9
REMARK    5  A    between atoms: C_14  and  N_15
REMARK    6  A    between atoms: C_20  and  N_21
REMARK    7  A    between atoms: C_26  and  C_27
REMARK                            x       y       z     vdW  Elec       q    Type
REMARK                         _______ _______ _______ _____ _____    ______ ____
ROOT
ATOM      1  N   UNL     1      -0.260  11.438  18.576  0.00  0.00    +0.000 N 
ATOM      2  C   UNL     1       0.513  10.704  19.607  0.00  0.00    +0.000 C 
ATOM      3  C   UNL     1      -0.020  11.290  20.875  0.00  0.00    +0.000 A 
ATOM      4  C   UNL     1      -0.443  12.589  20.582  0.00  0.00    +0.000 A 
ATOM      5  C   UNL     1      -1.121  13.388  21.486  0.00  0.00    +0.000 A 
ATOM      6  C   UNL     1      -1.421  12.847  22.738  0.00  0.00    +0.000 A 
ATOM      7  C   UNL     1      -1.001  11.529  23.034  0.00  0.00    +0.000 A 
ATOM      8  C   UNL     1      -0.304  10.721  22.109  0.00  0.00    +0.000 A 
ATOM      9  C   UNL     1      -0.447  12.737  19.110  0.00  0.00    +0.000 C 
ATOM     10  O   UNL     1      -0.763  13.760  18.525  0.00  0.00    +0.000 OA
ENDROOT
BRANCH   1  15
ATOM     11  C   UNL     1      -3.818  11.232  17.882  0.00  0.00    +0.000 A 
ATOM     12  C   UNL     1      -3.746  10.577  16.644  0.00  0.00    +0.000 A 
ATOM     13  C   UNL     1      -2.612   9.848  16.295  0.00  0.00    +0.000 A 
ATOM     14  C   UNL     1      -1.494   9.868  17.124  0.00  0.00    +0.000 A 
ATOM     15  C   UNL     1      -1.479  10.713  18.243  0.00  0.00    +0.000 A 
ATOM     16  C   UNL     1      -2.688  11.234  18.713  0.00  0.00    +0.000 A 
BRANCH  11  18
ATOM     17  C   UNL     1      -5.730  12.558  17.003  0.00  0.00    +0.000 C 
ATOM     18  C   UNL     1      -5.074  11.998  18.264  0.00  0.00    +0.000 C 
BRANCH  18  19
ATOM     19  N   UNL     1      -5.987  11.101  18.985  0.00  0.00    +0.000 N 
ATOM     20  C   UNL     1      -6.659  11.604  20.051  0.00  0.00    +0.000 A 
ATOM     21  N   UNL     1      -6.699  12.842  20.496  0.00  0.00    +0.000 NA
ATOM     22  N   UNL     1      -7.469  12.873  21.638  0.00  0.00    +0.000 NA
ATOM     23  C   UNL     1      -7.909  11.654  21.844  0.00  0.00    +0.000 A 
ATOM     24  N   UNL     1      -7.442  10.832  20.866  0.00  0.00    +0.000 N 
ATOM     25  C   UNL     1      -7.795   9.441  20.718  0.00  0.00    +0.000 C 
ATOM     26  H   UNL     1      -5.601  10.170  19.109  0.00  0.00    +0.000 HD
ENDBRANCH  18  19
ENDBRANCH  11  18
ENDBRANCH   1  15
BRANCH   6  27
ATOM     27  N   UNL     1      -2.150  13.581  23.686  0.00  0.00    +0.000 N 
ATOM     28  C   UNL     1      -3.548  13.539  23.991  0.00  0.00    +0.000 C 
ATOM     29  C   UNL     1      -3.294  14.731  24.918  0.00  0.00    +0.000 C 
ATOM     30  C   UNL     1      -2.008  14.940  24.110  0.00  0.00    +0.000 C 
ENDBRANCH   6  27
BRANCH   8  31
ATOM     31  C   UNL     1      -0.019   9.289  22.467  0.00  0.00    +0.000 C 
ATOM     32  F   UNL     1       1.244   8.875  22.163  0.00  0.00    +0.000 F 
ATOM     33  F   UNL     1      -0.170   9.044  23.797  0.00  0.00    +0.000 F 
ATOM     34  F   UNL     1      -0.847   8.414  21.830  0.00  0.00    +0.000 F 
ENDBRANCH   8  31
TORSDOF 5
ENDMDL
MODEL 5
REMARK VINA RESULT:      -8.5      3.476      9.188
REMARK  Name = 
REMARK  7 active torsions:
REMARK  status: ('A' for Active; 'I' for Inactive)
REMARK    1  A    between atoms: C_1  and  C_2
REMARK    2  A    between atoms: C_2  and  N_3
REMARK    3  A    between atoms: C_2  and  C_10
REMARK    4  A    between atoms: N_8  and  C_9
REMARK    5  A    between atoms: C_14  and  N_15
REMARK    6  A    between atoms: C_20  and  N_21
REMARK    7  A    between atoms: C_26  and  C_27
REMARK                            x       y       z     vdW  Elec       q    Type
REMARK                         _______ _______ _______ _____ _____    ______ ____
ROOT
ATOM      1  N   UNL     1       3.797   4.971  19.174  0.00  0.00    +0.000 N 
ATOM      2  C   UNL     1       5.174   5.498  19.335  0.00  0.00    +0.000 C 
ATOM      3  C   UNL     1       5.776   5.213  17.996  0.00  0.00    +0.000 A 
ATOM      4  C   UNL     1       5.114   4.099  17.476  0.00  0.00    +0.000 A 
ATOM      5  C   UNL     1       5.314   3.631  16.189  0.00  0.00    +0.000 A 
ATOM      6  C   UNL     1       6.197   4.335  15.368  0.00  0.00    +0.000 A 
ATOM      7  C   UNL     1       6.863   5.469  15.891  0.00  0.00    +0.000 A 
ATOM      8  C   UNL     1       6.659   5.938  17.207  0.00  0.00    +0.000 A 
ATOM      9  C   UNL     1       3.929   3.845  18.324  0.00  0.00    +0.000 C 
ATOM     10  O   UNL     1       3.139   2.933  18.143  0.00  0.00    +0.000 OA
ENDROOT
BRANCH   1  15
ATOM     11  C   UNL     1       1.816   7.983  19.607  0.00  0.00    +0.000 A 
ATOM     12  C   UNL     1       2.367   8.740  18.562  0.00  0.00    +0.000 A 
ATOM     13  C   UNL     1       3.024   8.114  17.506  0.00  0.00    +0.000 A 
ATOM     14  C   UNL     1       3.244   6.740  17.544  0.00  0.00    +0.000 A 
ATOM     15  C   UNL     1       2.904   6.018  18.697  0.00  0.00    +0.000 A 
ATOM     16  C   UNL     1       2.035   6.597  19.626  0.00  0.00    +0.000 A 
BRANCH  11  18
ATOM     17  C   UNL     1       1.838   8.475  22.045  0.00  0.00    +0.000 C 
ATOM     18  C   UNL     1       1.074   8.676  20.737  0.00  0.00    +0.000 C 
BRANCH  18  19
ATOM     19  N   UNL     1       0.932  10.103  20.418  0.00  0.00    +0.000 N 
ATOM     20  C   UNL     1       0.318  10.899  21.331  0.00  0.00    +0.000 A 
ATOM     21  N   UNL     1      -0.096  10.600  22.543  0.00  0.00    +0.000 NA
ATOM     22  N   UNL     1      -0.710  11.710  23.083  0.00  0.00    +0.000 NA
ATOM     23  C   UNL     1      -0.625  12.672  22.194  0.00  0.00    +0.000 A 
ATOM     24  N   UNL     1       0.026  12.214  21.090  0.00  0.00    +0.000 N 
ATOM     25  C   UNL     1       0.383  13.019  19.949  0.00  0.00    +0.000 C 
ATOM     26  H   UNL     1       0.671  10.262  19.451  0.00  0.00    +0.000 HD
ENDBRANCH  18  19
ENDBRANCH  11  18
ENDBRANCH   1  15
BRANCH   6  27
ATOM     27  N   UNL     1       6.409   3.948  14.036  0.00  0.00    +0.000 N 
ATOM     28  C   UNL     1       7.310   4.488  13.064  0.00  0.00    +0.000 C 
ATOM     29  C   UNL     1       6.644   3.551  12.052  0.00  0.00    +0.000 C 
ATOM     30  C   UNL     1       5.482   3.484  13.050  0.00  0.00    +0.000 C 
ENDBRANCH   6  27
BRANCH   8  31
ATOM     31  C   UNL     1       7.307   7.227  17.626  0.00  0.00    +0.000 C 
ATOM     32  F   UNL     1       6.433   8.251  17.844  0.00  0.00    +0.000 F 
ATOM     33  F   UNL     1       8.015   7.104  18.783  0.00  0.00    +0.000 F 
ATOM     34  F   UNL     1       8.188   7.698  16.699  0.00  0.00    +0.000 F 
ENDBRANCH   8  31
TORSDOF 5
ENDMDL
MODEL 6
REMARK VINA RESULT:      -8.5      3.501      9.118
REMARK  Name = 
REMARK  7 active torsions:
REMARK  status: ('A' for Active; 'I' for Inactive)
REMARK    1  A    between atoms: C_1  and  C_2
REMARK    2  A    between atoms: C_2  and  N_3
REMARK    3  A    between atoms: C_2  and  C_10
REMARK    4  A    between atoms: N_8  and  C_9
REMARK    5  A    between atoms: C_14  and  N_15
REMARK    6  A    between atoms: C_20  and  N_21
REMARK    7  A    between atoms: C_26  and  C_27
REMARK                            x       y       z     vdW  Elec       q    Type
REMARK                         _______ _______ _______ _____ _____    ______ ____
ROOT
ATOM      1  N   UNL     1       3.686   5.125  19.109  0.00  0.00    +0.000 N 
ATOM      2  C   UNL     1       5.079   5.599  19.301  0.00  0.00    +0.000 C 
ATOM      3  C   UNL     1       5.703   5.278  17.980  0.00  0.00    +0.000 A 
ATOM      4  C   UNL     1       5.011   4.186  17.453  0.00  0.00    +0.000 A 
ATOM      5  C   UNL     1       5.225   3.698  16.175  0.00  0.00    +0.000 A 
ATOM      6  C   UNL     1       6.156   4.359  15.371  0.00  0.00    +0.000 A 
ATOM      7  C   UNL     1       6.852   5.471  15.902  0.00  0.00    +0.000 A 
ATOM      8  C   UNL     1       6.633   5.960  17.208  0.00  0.00    +0.000 A 
ATOM      9  C   UNL     1       3.796   3.987  18.272  0.00  0.00    +0.000 C 
ATOM     10  O   UNL     1       2.975   3.105  18.078  0.00  0.00    +0.000 OA
ENDROOT
BRANCH   1  15
ATOM     11  C   UNL     1       1.747   8.171  19.483  0.00  0.00    +0.000 A 
ATOM     12  C   UNL     1       2.379   8.937  18.491  0.00  0.00    +0.000 A 
ATOM     13  C   UNL     1       3.088   8.318  17.465  0.00  0.00    +0.000 A 
ATOM     14  C   UNL     1       3.276   6.939  17.487  0.00  0.00    +0.000 A 
ATOM     15  C   UNL     1       2.848   6.202  18.600  0.00  0.00    +0.000 A 
ATOM     16  C   UNL     1       1.935   6.781  19.486  0.00  0.00    +0.000 A 
BRANCH  11  18
ATOM     17  C   UNL     1       1.570   8.531  21.937  0.00  0.00    +0.000 C 
ATOM     18  C   UNL     1       0.951   8.858  20.580  0.00  0.00    +0.000 C 
BRANCH  18  19
ATOM     19  N   UNL     1       0.941  10.307  20.335  0.00  0.00    +0.000 N 
ATOM     20  C   UNL     1      -0.114  10.828  19.660  0.00  0.00    +0.000 A 
ATOM     21  N   UNL     1      -1.219  10.234  19.264  0.00  0.00    +0.000 NA
ATOM     22  N   UNL     1      -1.983  11.146  18.568  0.00  0.00    +0.000 NA
ATOM     23  C   UNL     1      -1.337  12.288  18.586  0.00  0.00    +0.000 A 
ATOM     24  N   UNL     1      -0.172  12.140  19.273  0.00  0.00    +0.000 N 
ATOM     25  C   UNL     1       0.749  13.207  19.575  0.00  0.00    +0.000 C 
ATOM     26  H   UNL     1       1.853  10.663  20.066  0.00  0.00    +0.000 HD
ENDBRANCH  18  19
ENDBRANCH  11  18
ENDBRANCH   1  15
BRANCH   6  27
ATOM     27  N   UNL     1       6.387   3.952  14.049  0.00  0.00    +0.000 N 
ATOM     28  C   UNL     1       7.315   4.464  13.087  0.00  0.00    +0.000 C 
ATOM     29  C   UNL     1       6.652   3.525  12.075  0.00  0.00    +0.000 C 
ATOM     30  C   UNL     1       5.470   3.491  13.051  0.00  0.00    +0.000 C 
ENDBRANCH   6  27
BRANCH   8  31
ATOM     31  C   UNL     1       7.321   7.227  17.633  0.00  0.00    +0.000 C 
ATOM     32  F   UNL     1       8.226   7.705  16.731  0.00  0.00    +0.000 F 
ATOM     33  F   UNL     1       6.447   8.249  17.846  0.00  0.00    +0.000 F 
ATOM     34  F   UNL     1       8.016   7.082  18.797  0.00  0.00    +0.000 F 
ENDBRANCH   8  31
TORSDOF 5
ENDMDL
MODEL 7
REMARK VINA RESULT:      -8.2      3.740      8.863
REMARK  Name = 
REMARK  7 active torsions:
REMARK  status: ('A' for Active; 'I' for Inactive)
REMARK    1  A    between atoms: C_1  and  C_2
REMARK    2  A    between atoms: C_2  and  N_3
REMARK    3  A    between atoms: C_2  and  C_10
REMARK    4  A    between atoms: N_8  and  C_9
REMARK    5  A    between atoms: C_14  and  N_15
REMARK    6  A    between atoms: C_20  and  N_21
REMARK    7  A    between atoms: C_26  and  C_27
REMARK                            x       y       z     vdW  Elec       q    Type
REMARK                         _______ _______ _______ _____ _____    ______ ____
ROOT
ATOM      1  N   UNL     1       0.080  13.873  19.954  0.00  0.00    +0.000 N 
ATOM      2  C   UNL     1      -0.839  13.477  18.859  0.00  0.00    +0.000 C 
ATOM      3  C   UNL     1      -0.360  12.099  18.531  0.00  0.00    +0.000 A 
ATOM      4  C   UNL     1       0.997  12.047  18.856  0.00  0.00    +0.000 A 
ATOM      5  C   UNL     1       1.743  10.882  18.814  0.00  0.00    +0.000 A 
ATOM      6  C   UNL     1       1.088   9.700  18.462  0.00  0.00    +0.000 A 
ATOM      7  C   UNL     1      -0.289   9.749  18.141  0.00  0.00    +0.000 A 
ATOM      8  C   UNL     1      -1.043  10.943  18.180  0.00  0.00    +0.000 A 
ATOM      9  C   UNL     1       1.319  13.263  19.635  0.00  0.00    +0.000 C 
ATOM     10  O   UNL     1       2.429  13.527  20.067  0.00  0.00    +0.000 OA
ENDROOT
BRANCH   1  15
ATOM     11  C   UNL     1      -2.683  13.122  22.185  0.00  0.00    +0.000 A 
ATOM     12  C   UNL     1      -2.236  11.877  22.651  0.00  0.00    +0.000 A 
ATOM     13  C   UNL     1      -0.888  11.536  22.573  0.00  0.00    +0.000 A 
ATOM     14  C   UNL     1       0.003  12.382  21.920  0.00  0.00    +0.000 A 
ATOM     15  C   UNL     1      -0.484  13.512  21.248  0.00  0.00    +0.000 A 
ATOM     16  C   UNL     1      -1.771  13.971  21.539  0.00  0.00    +0.000 A 
BRANCH  11  18
ATOM     17  C   UNL     1      -4.274  14.915  22.851  0.00  0.00    +0.000 C 
ATOM     18  C   UNL     1      -4.152  13.494  22.304  0.00  0.00    +0.000 C 
BRANCH  18  19
ATOM     19  N   UNL     1      -4.789  13.376  20.986  0.00  0.00    +0.000 N 
ATOM     20  C   UNL     1      -5.804  12.486  20.850  0.00  0.00    +0.000 A 
ATOM     21  N   UNL     1      -6.396  11.757  21.772  0.00  0.00    +0.000 NA
ATOM     22  N   UNL     1      -7.338  10.958  21.163  0.00  0.00    +0.000 NA
ATOM     23  C   UNL     1      -7.321  11.244  19.882  0.00  0.00    +0.000 A 
ATOM     24  N   UNL     1      -6.389  12.206  19.645  0.00  0.00    +0.000 N 
ATOM     25  C   UNL     1      -6.157  12.832  18.367  0.00  0.00    +0.000 C 
ATOM     26  H   UNL     1      -4.117  13.394  20.225  0.00  0.00    +0.000 HD
ENDBRANCH  18  19
ENDBRANCH  11  18
ENDBRANCH   1  15
BRANCH   6  27
ATOM     27  N   UNL     1       1.769   8.473  18.449  0.00  0.00    +0.000 N 
ATOM     28  C   UNL     1       2.101   7.605  19.536  0.00  0.00    +0.000 C 
ATOM     29  C   UNL     1       2.896   6.778  18.521  0.00  0.00    +0.000 C 
ATOM     30  C   UNL     1       2.870   8.037  17.647  0.00  0.00    +0.000 C 
ENDBRANCH   6  27
BRANCH   8  31
ATOM     31  C   UNL     1      -2.527  10.871  17.954  0.00  0.00    +0.000 C 
ATOM     32  F   UNL     1      -2.967  11.582  16.876  0.00  0.00    +0.000 F 
ATOM     33  F   UNL     1      -2.963   9.598  17.750  0.00  0.00    +0.000 F 
ATOM     34  F   UNL     1      -3.243  11.345  19.013  0.00  0.00    +0.000 F 
ENDBRANCH   8  31
TORSDOF 5
ENDMDL
MODEL 8
REMARK VINA RESULT:      -8.2      1.158      1.513
REMARK  Name = 
REMARK  7 active torsions:
REMARK  status: ('A' for Active; 'I' for Inactive)
REMARK    1  A    between atoms: C_1  and  C_2
REMARK    2  A    between atoms: C_2  and  N_3
REMARK    3  A    between atoms: C_2  and  C_10
REMARK    4  A    between atoms: N_8  and  C_9
REMARK    5  A    between atoms: C_14  and  N_15
REMARK    6  A    between atoms: C_20  and  N_21
REMARK    7  A    between atoms: C_26  and  C_27
REMARK                            x       y       z     vdW  Elec       q    Type
REMARK                         _______ _______ _______ _____ _____    ______ ____
ROOT
ATOM      1  N   UNL     1      -0.045   9.111  21.048  0.00  0.00    +0.000 N 
ATOM      2  C   UNL     1      -1.157   9.575  20.183  0.00  0.00    +0.000 C 
ATOM      3  C   UNL     1      -1.011  11.062  20.256  0.00  0.00    +0.000 A 
ATOM      4  C   UNL     1      -0.423  11.357  21.488  0.00  0.00    +0.000 A 
ATOM      5  C   UNL     1      -0.010  12.629  21.845  0.00  0.00    +0.000 A 
ATOM      6  C   UNL     1      -0.163  13.652  20.908  0.00  0.00    +0.000 A 
ATOM      7  C   UNL     1      -0.751  13.353  19.656  0.00  0.00    +0.000 A 
ATOM      8  C   UNL     1      -1.176  12.054  19.300  0.00  0.00    +0.000 A 
ATOM      9  C   UNL     1       0.058  10.086  22.071  0.00  0.00    +0.000 C 
ATOM     10  O   UNL     1       0.616   9.995  23.153  0.00  0.00    +0.000 OA
ENDROOT
BRANCH   1  15
ATOM     11  C   UNL     1       2.490   7.019  19.505  0.00  0.00    +0.000 A 
ATOM     12  C   UNL     1       2.375   7.496  18.191  0.00  0.00    +0.000 A 
ATOM     13  C   UNL     1       1.817   8.747  17.939  0.00  0.00    +0.000 A 
ATOM     14  C   UNL     1       1.258   9.479  18.984  0.00  0.00    +0.000 A 
ATOM     15  C   UNL     1       1.160   8.900  20.257  0.00  0.00    +0.000 A 
ATOM     16  C   UNL     1       1.933   7.772  20.550  0.00  0.00    +0.000 A 
BRANCH  11  18
ATOM     17  C   UNL     1       2.060   4.683  20.243  0.00  0.00    +0.000 C 
ATOM     18  C   UNL     1       3.128   5.665  19.768  0.00  0.00    +0.000 C 
BRANCH  18  19
ATOM     19  N   UNL     1       3.777   5.191  18.538  0.00  0.00    +0.000 N 
ATOM     20  C   UNL     1       5.126   5.035  18.552  0.00  0.00    +0.000 A 
ATOM     21  N   UNL     1       5.962   5.152  19.562  0.00  0.00    +0.000 NA
ATOM     22  N   UNL     1       7.243   4.958  19.094  0.00  0.00    +0.000 NA
ATOM     23  C   UNL     1       7.154   4.695  17.812  0.00  0.00    +0.000 A 
ATOM     24  N   UNL     1       5.847   4.715  17.435  0.00  0.00    +0.000 N 
ATOM     25  C   UNL     1       5.363   4.380  16.118  0.00  0.00    +0.000 C 
ATOM     26  H   UNL     1       3.394   5.623  17.703  0.00  0.00    +0.000 HD
ENDBRANCH  18  19
ENDBRANCH  11  18
ENDBRANCH   1  15
BRANCH   6  27
ATOM     27  N   UNL     1       0.280  14.955  21.182  0.00  0.00    +0.000 N 
ATOM     28  C   UNL     1       0.601  15.562  22.438  0.00  0.00    +0.000 C 
ATOM     29  C   UNL     1       0.759  16.875  21.666  0.00  0.00    +0.000 C 
ATOM     30  C   UNL     1      -0.073  16.199  20.570  0.00  0.00    +0.000 C 
ENDBRANCH   6  27
BRANCH   8  31
ATOM     31  C   UNL     1      -1.663  11.809  17.900  0.00  0.00    +0.000 C 
ATOM     32  F   UNL     1      -1.304  10.599  17.383  0.00  0.00    +0.000 F 
ATOM     33  F   UNL     1      -3.021  11.854  17.804  0.00  0.00    +0.000 F 
ATOM     34  F   UNL     1      -1.196  12.732  17.012  0.00  0.00    +0.000 F 
ENDBRANCH   8  31
TORSDOF 5
ENDMDL
MODEL 9
REMARK VINA RESULT:      -8.1      3.607      9.206
REMARK  Name = 
REMARK  7 active torsions:
REMARK  status: ('A' for Active; 'I' for Inactive)
REMARK    1  A    between atoms: C_1  and  C_2
REMARK    2  A    between atoms: C_2  and  N_3
REMARK    3  A    between atoms: C_2  and  C_10
REMARK    4  A    between atoms: N_8  and  C_9
REMARK    5  A    between atoms: C_14  and  N_15
REMARK    6  A    between atoms: C_20  and  N_21
REMARK    7  A    between atoms: C_26  and  C_27
REMARK                            x       y       z     vdW  Elec       q    Type
REMARK                         _______ _______ _______ _____ _____    ______ ____
ROOT
ATOM      1  N   UNL     1       3.854   4.876  19.068  0.00  0.00    +0.000 N 
ATOM      2  C   UNL     1       5.221   5.413  19.274  0.00  0.00    +0.000 C 
ATOM      3  C   UNL     1       5.823   5.268  17.912  0.00  0.00    +0.000 A 
ATOM      4  C   UNL     1       5.181   4.194  17.292  0.00  0.00    +0.000 A 
ATOM      5  C   UNL     1       5.383   3.853  15.966  0.00  0.00    +0.000 A 
ATOM      6  C   UNL     1       6.249   4.649  15.212  0.00  0.00    +0.000 A 
ATOM      7  C   UNL     1       6.894   5.741  15.837  0.00  0.00    +0.000 A 
ATOM      8  C   UNL     1       6.687   6.080  17.192  0.00  0.00    +0.000 A 
ATOM      9  C   UNL     1       4.005   3.838  18.115  0.00  0.00    +0.000 C 
ATOM     10  O   UNL     1       3.232   2.931  17.851  0.00  0.00    +0.000 OA
ENDROOT
BRANCH   1  15
ATOM     11  C   UNL     1       1.838   7.810  19.780  0.00  0.00    +0.000 A 
ATOM     12  C   UNL     1       2.360   8.660  18.793  0.00  0.00    +0.000 A 
ATOM     13  C   UNL     1       3.008   8.134  17.678  0.00  0.00    +0.000 A 
ATOM     14  C   UNL     1       3.248   6.765  17.599  0.00  0.00    +0.000 A 
ATOM     15  C   UNL     1       2.938   5.945  18.693  0.00  0.00    +0.000 A 
ATOM     16  C   UNL     1       2.077   6.431  19.681  0.00  0.00    +0.000 A 
BRANCH  11  18
ATOM     17  C   UNL     1       2.115   8.750  22.066  0.00  0.00    +0.000 C 
ATOM     18  C   UNL     1       1.106   8.396  20.976  0.00  0.00    +0.000 C 
BRANCH  18  19
ATOM     19  N   UNL     1       0.349   9.580  20.546  0.00  0.00    +0.000 N 
ATOM     20  C   UNL     1      -0.243  10.336  21.505  0.00  0.00    +0.000 A 
ATOM     21  N   UNL     1      -0.160  10.227  22.814  0.00  0.00    +0.000 NA
ATOM     22  N   UNL     1      -0.974  11.180  23.386  0.00  0.00    +0.000 NA
ATOM     23  C   UNL     1      -1.511  11.870  22.408  0.00  0.00    +0.000 A 
ATOM     24  N   UNL     1      -1.068  11.389  21.216  0.00  0.00    +0.000 N 
ATOM     25  C   UNL     1      -1.376  11.961  19.928  0.00  0.00    +0.000 C 
ATOM     26  H   UNL     1      -0.210   9.406  19.717  0.00  0.00    +0.000 HD
ENDBRANCH  18  19
ENDBRANCH  11  18
ENDBRANCH   1  15
BRANCH   6  27
ATOM     27  N   UNL     1       6.463   4.393  13.850  0.00  0.00    +0.000 N 
ATOM     28  C   UNL     1       6.042   3.279  13.055  0.00  0.00    +0.000 C 
ATOM     29  C   UNL     1       6.882   3.878  11.924  0.00  0.00    +0.000 C 
ATOM     30  C   UNL     1       7.602   4.663  13.026  0.00  0.00    +0.000 C 
ENDBRANCH   6  27
BRANCH   8  31
ATOM     31  C   UNL     1       7.311   7.338  17.729  0.00  0.00    +0.000 C 
ATOM     32  F   UNL     1       8.203   7.929  16.882  0.00  0.00    +0.000 F 
ATOM     33  F   UNL     1       6.389   8.299  18.012  0.00  0.00    +0.000 F 
ATOM     34  F   UNL     1       8.000   7.129  18.887  0.00  0.00    +0.000 F 
ENDBRANCH   8  31
TORSDOF 5
ENDMDL
