MODEL 1
REMARK VINA RESULT:      -8.6      0.000      0.000
REMARK  Name = 
REMARK  7 active torsions:
REMARK  status: ('A' for Active; 'I' for Inactive)
REMARK    1  A    between atoms: C_1  and  C_2
REMARK    2  A    between atoms: C_2  and  C_3
REMARK    3  A    between atoms: C_9  and  O_10
REMARK    4  A    between atoms: O_10  and  C_11
REMARK    5  A    between atoms: C_11  and  C_12
REMARK    6  A    between atoms: N_14  and  C_15
REMARK    7  A    between atoms: C_19  and  N_20
REMARK                            x       y       z     vdW  Elec       q    Type
REMARK                         _______ _______ _______ _____ _____    ______ ____
ROOT
ATOM      1  C   UNL     1       8.006   7.913  18.077  0.00  0.00    +0.000 C 
ATOM      2  O   UNL     1       8.487   7.082  18.844  0.00  0.00    +0.000 OA
ATOM      3  N   UNL     1       7.062   7.666  17.083  0.00  0.00    +0.000 N 
ATOM      4  H   UNL     1       6.899   8.410  16.414  0.00  0.00    +0.000 HD
ENDROOT
BRANCH   3   5
ATOM      5  C   UNL     1       6.429   6.425  16.844  0.00  0.00    +0.000 A 
ATOM      6  C   UNL     1       6.796   5.608  15.776  0.00  0.00    +0.000 A 
ATOM      7  C   UNL     1       6.125   4.417  15.536  0.00  0.00    +0.000 A 
ATOM      8  C   UNL     1       5.098   4.016  16.383  0.00  0.00    +0.000 A 
ATOM      9  C   UNL     1       4.727   4.780  17.494  0.00  0.00    +0.000 A 
ATOM     10  C   UNL     1       5.408   5.996  17.712  0.00  0.00    +0.000 A 
BRANCH   9  11
ATOM     11  N   UNL     1       3.697   4.327  18.372  0.00  0.00    +0.000 N 
ATOM     12  C   UNL     1       2.313   4.705  18.222  0.00  0.00    +0.000 C 
ATOM     13  C   UNL     1       1.682   4.347  19.553  0.00  0.00    +0.000 C 
ATOM     14  C   UNL     1       2.493   3.159  20.024  0.00  0.00    +0.000 C 
ATOM     15  C   UNL     1       3.852   3.405  19.424  0.00  0.00    +0.000 C 
ATOM     16  O   UNL     1       4.847   2.818  19.810  0.00  0.00    +0.000 OA
ENDBRANCH   9  11
ENDBRANCH   3   5
BRANCH   1  17
ATOM     17  C   UNL     1       8.449   9.360  18.157  0.00  0.00    +0.000 C 
BRANCH  17  18
ATOM     18  O   UNL     1       8.908   9.604  19.480  0.00  0.00    +0.000 OA
BRANCH  18  27
ATOM     19  C   UNL     1       8.833  12.361  23.804  0.00  0.00    +0.000 C 
ATOM     20  C   UNL     1       8.389  12.842  22.418  0.00  0.00    +0.000 C 
ATOM     21  C   UNL     1       6.994  13.463  22.494  0.00  0.00    +0.000 C 
ATOM     22  C   UNL     1       9.416  13.806  21.788  0.00  0.00    +0.000 C 
ATOM     23  C   UNL     1       9.973  12.943  20.718  0.00  0.00    +0.000 A 
ATOM     24  C   UNL     1      11.013  13.211  19.845  0.00  0.00    +0.000 A 
ATOM     25  C   UNL     1      11.339  12.248  18.890  0.00  0.00    +0.000 A 
ATOM     26  C   UNL     1      10.614  11.047  18.815  0.00  0.00    +0.000 A 
ATOM     27  C   UNL     1       9.552  10.790  19.689  0.00  0.00    +0.000 A 
ATOM     28  C   UNL     1       9.261  11.755  20.641  0.00  0.00    +0.000 A 
ATOM     29  O   UNL     1       8.261  11.672  21.573  0.00  0.00    +0.000 OA
ENDBRANCH  18  27
ENDBRANCH  17  18
ENDBRANCH   1  17
TORSDOF 5
ENDMDL
MODEL 2
REMARK VINA RESULT:      -8.5      6.658      9.015
REMARK  Name = 
REMARK  7 active torsions:
REMARK  status: ('A' for Active; 'I' for Inactive)
REMARK    1  A    between atoms: C_1  and  C_2
REMARK    2  A    between atoms: C_2  and  C_3
REMARK    3  A    between atoms: C_9  and  O_10
REMARK    4  A    between atoms: O_10  and  C_11
REMARK    5  A    between atoms: C_11  and  C_12
REMARK    6  A    between atoms: N_14  and  C_15
REMARK    7  A    between atoms: C_19  and  N_20
REMARK                            x       y       z     vdW  Elec       q    Type
REMARK                         _______ _______ _______ _____ _____    ______ ____
ROOT
ATOM      1  C   UNL     1       0.816   9.364  22.350  0.00  0.00    +0.000 C 
ATOM      2  O   UNL     1       1.980   9.495  22.722  0.00  0.00    +0.000 OA
ATOM      3  N   UNL     1       0.397   8.886  21.111  0.00  0.00    +0.000 N 
ATOM      4  H   UNL     1      -0.583   9.008  20.883  0.00  0.00    +0.000 HD
ENDROOT
BRANCH   3   5
ATOM      5  C   UNL     1       1.244   8.387  20.096  0.00  0.00    +0.000 A 
ATOM      6  C   UNL     1       1.587   9.154  18.983  0.00  0.00    +0.000 A 
ATOM      7  C   UNL     1       2.381   8.621  17.978  0.00  0.00    +0.000 A 
ATOM      8  C   UNL     1       2.868   7.323  18.091  0.00  0.00    +0.000 A 
ATOM      9  C   UNL     1       2.588   6.533  19.211  0.00  0.00    +0.000 A 
ATOM     10  C   UNL     1       1.764   7.084  20.214  0.00  0.00    +0.000 A 
BRANCH   9  11
ATOM     11  N   UNL     1       3.131   5.218  19.322  0.00  0.00    +0.000 N 
ATOM     12  C   UNL     1       2.316   4.028  19.334  0.00  0.00    +0.000 C 
ATOM     13  C   UNL     1       3.240   2.948  19.863  0.00  0.00    +0.000 C 
ATOM     14  C   UNL     1       4.608   3.386  19.387  0.00  0.00    +0.000 C 
ATOM     15  C   UNL     1       4.499   4.887  19.345  0.00  0.00    +0.000 C 
ATOM     16  O   UNL     1       5.480   5.607  19.284  0.00  0.00    +0.000 OA
ENDBRANCH   9  11
ENDBRANCH   3   5
BRANCH   1  17
ATOM     17  C   UNL     1      -0.321   9.754  23.274  0.00  0.00    +0.000 C 
BRANCH  17  18
ATOM     18  O   UNL     1      -0.435  11.171  23.252  0.00  0.00    +0.000 OA
BRANCH  18  27
ATOM     19  C   UNL     1      -1.784  10.517  18.347  0.00  0.00    +0.000 C 
ATOM     20  C   UNL     1      -1.544  11.859  19.046  0.00  0.00    +0.000 C 
ATOM     21  C   UNL     1      -0.579  12.719  18.230  0.00  0.00    +0.000 C 
ATOM     22  C   UNL     1      -2.866  12.598  19.341  0.00  0.00    +0.000 C 
ATOM     23  C   UNL     1      -2.932  12.452  20.816  0.00  0.00    +0.000 A 
ATOM     24  C   UNL     1      -3.945  12.837  21.678  0.00  0.00    +0.000 A 
ATOM     25  C   UNL     1      -3.765  12.626  23.045  0.00  0.00    +0.000 A 
ATOM     26  C   UNL     1      -2.576  12.050  23.525  0.00  0.00    +0.000 A 
ATOM     27  C   UNL     1      -1.550  11.680  22.650  0.00  0.00    +0.000 A 
ATOM     28  C   UNL     1      -1.761  11.883  21.294  0.00  0.00    +0.000 A 
ATOM     29  O   UNL     1      -0.871  11.582  20.299  0.00  0.00    +0.000 OA
ENDBRANCH  18  27
ENDBRANCH  17  18
ENDBRANCH   1  17
TORSDOF 5
ENDMDL
MODEL 3
REMARK VINA RESULT:      -8.5      1.173      1.310
REMARK  Name = 
REMARK  7 active torsions:
REMARK  status: ('A' for Active; 'I' for Inactive)
REMARK    1  A    between atoms: C_1  and  C_2
REMARK    2  A    between atoms: C_2  and  C_3
REMARK    3  A    between atoms: C_9  and  O_10
REMARK    4  A    between atoms: O_10  and  C_11
REMARK    5  A    between atoms: C_11  and  C_12
REMARK    6  A    between atoms: N_14  and  C_15
REMARK    7  A    between atoms: C_19  and  N_20
REMARK                            x       y       z     vdW  Elec       q    Type
REMARK                         _______ _______ _______ _____ _____    ______ ____
ROOT
ATOM      1  C   UNL     1       7.850   8.093  17.899  0.00  0.00    +0.000 C 
ATOM      2  O   UNL     1       8.389   7.383  18.745  0.00  0.00    +0.000 OA
ATOM      3  N   UNL     1       6.882   7.690  16.982  0.00  0.00    +0.000 N 
ATOM      4  H   UNL     1       6.668   8.337  16.232  0.00  0.00    +0.000 HD
ENDROOT
BRANCH   3   5
ATOM      5  C   UNL     1       6.290   6.408  16.925  0.00  0.00    +0.000 A 
ATOM      6  C   UNL     1       6.790   5.405  16.096  0.00  0.00    +0.000 A 
ATOM      7  C   UNL     1       6.160   4.171  16.023  0.00  0.00    +0.000 A 
ATOM      8  C   UNL     1       5.039   3.916  16.806  0.00  0.00    +0.000 A 
ATOM      9  C   UNL     1       4.530   4.876  17.688  0.00  0.00    +0.000 A 
ATOM     10  C   UNL     1       5.172   6.131  17.734  0.00  0.00    +0.000 A 
BRANCH   9  11
ATOM     11  N   UNL     1       3.403   4.577  18.509  0.00  0.00    +0.000 N 
ATOM     12  C   UNL     1       3.264   5.059  19.862  0.00  0.00    +0.000 C 
ATOM     13  C   UNL     1       2.171   4.193  20.457  0.00  0.00    +0.000 C 
ATOM     14  C   UNL     1       1.291   3.865  19.270  0.00  0.00    +0.000 C 
ATOM     15  C   UNL     1       2.253   3.870  18.111  0.00  0.00    +0.000 C 
ATOM     16  O   UNL     1       1.973   3.371  17.035  0.00  0.00    +0.000 OA
ENDBRANCH   9  11
ENDBRANCH   3   5
BRANCH   1  17
ATOM     17  C   UNL     1       8.239   9.553  17.779  0.00  0.00    +0.000 C 
BRANCH  17  18
ATOM     18  O   UNL     1       8.995   9.900  18.932  0.00  0.00    +0.000 OA
BRANCH  18  27
ATOM     19  C   UNL     1       9.280  13.375  22.693  0.00  0.00    +0.000 C 
ATOM     20  C   UNL     1       8.739  13.617  21.279  0.00  0.00    +0.000 C 
ATOM     21  C   UNL     1       7.362  14.278  21.342  0.00  0.00    +0.000 C 
ATOM     22  C   UNL     1       9.729  14.428  20.416  0.00  0.00    +0.000 C 
ATOM     23  C   UNL     1      10.193  13.375  19.480  0.00  0.00    +0.000 A 
ATOM     24  C   UNL     1      11.168  13.458  18.501  0.00  0.00    +0.000 A 
ATOM     25  C   UNL     1      11.409  12.334  17.711  0.00  0.00    +0.000 A 
ATOM     26  C   UNL     1      10.665  11.157  17.902  0.00  0.00    +0.000 A 
ATOM     27  C   UNL     1       9.668  11.086  18.881  0.00  0.00    +0.000 A 
ATOM     28  C   UNL     1       9.461  12.212  19.666  0.00  0.00    +0.000 A 
ATOM     29  O   UNL     1       8.533  12.320  20.666  0.00  0.00    +0.000 OA
ENDBRANCH  18  27
ENDBRANCH  17  18
ENDBRANCH   1  17
TORSDOF 5
ENDMDL
MODEL 4
REMARK VINA RESULT:      -8.4      5.531      9.077
REMARK  Name = 
REMARK  7 active torsions:
REMARK  status: ('A' for Active; 'I' for Inactive)
REMARK    1  A    between atoms: C_1  and  C_2
REMARK    2  A    between atoms: C_2  and  C_3
REMARK    3  A    between atoms: C_9  and  O_10
REMARK    4  A    between atoms: O_10  and  C_11
REMARK    5  A    between atoms: C_11  and  C_12
REMARK    6  A    between atoms: N_14  and  C_15
REMARK    7  A    between atoms: C_19  and  N_20
REMARK                            x       y       z     vdW  Elec       q    Type
REMARK                         _______ _______ _______ _____ _____    ______ ____
ROOT
ATOM      1  C   UNL     1       1.576   4.928  20.789  0.00  0.00    +0.000 C 
ATOM      2  O   UNL     1       0.479   4.754  20.265  0.00  0.00    +0.000 OA
ATOM      3  N   UNL     1       2.326   6.102  20.762  0.00  0.00    +0.000 N 
ATOM      4  H   UNL     1       3.286   6.037  21.078  0.00  0.00    +0.000 HD
ENDROOT
BRANCH   3   5
ATOM      5  C   UNL     1       1.908   7.327  20.195  0.00  0.00    +0.000 A 
ATOM      6  C   UNL     1       2.245   7.685  18.890  0.00  0.00    +0.000 A 
ATOM      7  C   UNL     1       1.863   8.915  18.375  0.00  0.00    +0.000 A 
ATOM      8  C   UNL     1       1.111   9.790  19.152  0.00  0.00    +0.000 A 
ATOM      9  C   UNL     1       0.710   9.454  20.449  0.00  0.00    +0.000 A 
ATOM     10  C   UNL     1       1.123   8.207  20.963  0.00  0.00    +0.000 A 
BRANCH   9  11
ATOM     11  N   UNL     1      -0.096  10.352  21.212  0.00  0.00    +0.000 N 
ATOM     12  C   UNL     1      -1.009  11.294  20.613  0.00  0.00    +0.000 C 
ATOM     13  C   UNL     1      -1.320  12.274  21.727  0.00  0.00    +0.000 C 
ATOM     14  C   UNL     1      -1.213  11.433  22.981  0.00  0.00    +0.000 C 
ATOM     15  C   UNL     1      -0.187  10.392  22.616  0.00  0.00    +0.000 C 
ATOM     16  O   UNL     1       0.374   9.713  23.457  0.00  0.00    +0.000 OA
ENDBRANCH   9  11
ENDBRANCH   3   5
BRANCH   1  17
ATOM     17  C   UNL     1       2.242   3.793  21.542  0.00  0.00    +0.000 C 
BRANCH  17  18
ATOM     18  O   UNL     1       3.503   3.545  20.933  0.00  0.00    +0.000 OA
BRANCH  18  27
ATOM     19  C   UNL     1       7.192   4.719  17.570  0.00  0.00    +0.000 C 
ATOM     20  C   UNL     1       5.729   5.170  17.499  0.00  0.00    +0.000 C 
ATOM     21  C   UNL     1       5.649   6.684  17.303  0.00  0.00    +0.000 C 
ATOM     22  C   UNL     1       4.943   4.406  16.414  0.00  0.00    +0.000 C 
ATOM     23  C   UNL     1       4.078   3.549  17.262  0.00  0.00    +0.000 A 
ATOM     24  C   UNL     1       3.192   2.560  16.871  0.00  0.00    +0.000 A 
ATOM     25  C   UNL     1       2.454   1.906  17.858  0.00  0.00    +0.000 A 
ATOM     26  C   UNL     1       2.603   2.261  19.209  0.00  0.00    +0.000 A 
ATOM     27  C   UNL     1       3.487   3.274  19.595  0.00  0.00    +0.000 A 
ATOM     28  C   UNL     1       4.222   3.895  18.597  0.00  0.00    +0.000 A 
ATOM     29  O   UNL     1       5.130   4.902  18.791  0.00  0.00    +0.000 OA
ENDBRANCH  18  27
ENDBRANCH  17  18
ENDBRANCH   1  17
TORSDOF 5
ENDMDL
MODEL 5
REMARK VINA RESULT:      -8.4      6.189      9.874
REMARK  Name = 
REMARK  7 active torsions:
REMARK  status: ('A' for Active; 'I' for Inactive)
REMARK    1  A    between atoms: C_1  and  C_2
REMARK    2  A    between atoms: C_2  and  C_3
REMARK    3  A    between atoms: C_9  and  O_10
REMARK    4  A    between atoms: O_10  and  C_11
REMARK    5  A    between atoms: C_11  and  C_12
REMARK    6  A    between atoms: N_14  and  C_15
REMARK    7  A    between atoms: C_19  and  N_20
REMARK                            x       y       z     vdW  Elec       q    Type
REMARK                         _______ _______ _______ _____ _____    ______ ____
ROOT
ATOM      1  C   UNL     1       1.489   8.380  19.928  0.00  0.00    +0.000 C 
ATOM      2  O   UNL     1       0.889   8.595  20.979  0.00  0.00    +0.000 OA
ATOM      3  N   UNL     1       1.431   9.156  18.773  0.00  0.00    +0.000 N 
ATOM      4  H   UNL     1       1.833   8.755  17.933  0.00  0.00    +0.000 HD
ENDROOT
BRANCH   3   5
ATOM      5  C   UNL     1       0.733  10.377  18.641  0.00  0.00    +0.000 A 
ATOM      6  C   UNL     1       1.371  11.608  18.799  0.00  0.00    +0.000 A 
ATOM      7  C   UNL     1       0.651  12.791  18.712  0.00  0.00    +0.000 A 
ATOM      8  C   UNL     1      -0.711  12.757  18.434  0.00  0.00    +0.000 A 
ATOM      9  C   UNL     1      -1.383  11.549  18.222  0.00  0.00    +0.000 A 
ATOM     10  C   UNL     1      -0.640  10.355  18.332  0.00  0.00    +0.000 A 
BRANCH   9  11
ATOM     11  N   UNL     1      -2.773  11.541  17.899  0.00  0.00    +0.000 N 
ATOM     12  C   UNL     1      -3.802  11.907  18.841  0.00  0.00    +0.000 C 
ATOM     13  C   UNL     1      -5.081  11.376  18.223  0.00  0.00    +0.000 C 
ATOM     14  C   UNL     1      -4.818  11.460  16.735  0.00  0.00    +0.000 C 
ATOM     15  C   UNL     1      -3.327  11.275  16.633  0.00  0.00    +0.000 C 
ATOM     16  O   UNL     1      -2.780  10.999  15.580  0.00  0.00    +0.000 OA
ENDBRANCH   9  11
ENDBRANCH   3   5
BRANCH   1  17
ATOM     17  C   UNL     1       2.385   7.164  19.806  0.00  0.00    +0.000 C 
BRANCH  17  18
ATOM     18  O   UNL     1       2.567   6.893  18.422  0.00  0.00    +0.000 OA
BRANCH  18  27
ATOM     19  C   UNL     1       7.089   4.762  17.273  0.00  0.00    +0.000 C 
ATOM     20  C   UNL     1       5.853   4.802  16.367  0.00  0.00    +0.000 C 
ATOM     21  C   UNL     1       6.225   5.333  14.983  0.00  0.00    +0.000 C 
ATOM     22  C   UNL     1       5.154   3.428  16.289  0.00  0.00    +0.000 C 
ATOM     23  C   UNL     1       3.926   3.707  17.073  0.00  0.00    +0.000 A 
ATOM     24  C   UNL     1       2.918   2.832  17.441  0.00  0.00    +0.000 A 
ATOM     25  C   UNL     1       1.832   3.338  18.156  0.00  0.00    +0.000 A 
ATOM     26  C   UNL     1       1.765   4.705  18.475  0.00  0.00    +0.000 A 
ATOM     27  C   UNL     1       2.778   5.587  18.083  0.00  0.00    +0.000 A 
ATOM     28  C   UNL     1       3.856   5.055  17.391  0.00  0.00    +0.000 A 
ATOM     29  O   UNL     1       4.931   5.767  16.932  0.00  0.00    +0.000 OA
ENDBRANCH  18  27
ENDBRANCH  17  18
ENDBRANCH   1  17
TORSDOF 5
ENDMDL
MODEL 6
REMARK VINA RESULT:      -8.3      5.694      7.838
REMARK  Name = 
REMARK  7 active torsions:
REMARK  status: ('A' for Active; 'I' for Inactive)
REMARK    1  A    between atoms: C_1  and  C_2
REMARK    2  A    between atoms: C_2  and  C_3
REMARK    3  A    between atoms: C_9  and  O_10
REMARK    4  A    between atoms: O_10  and  C_11
REMARK    5  A    between atoms: C_11  and  C_12
REMARK    6  A    between atoms: N_14  and  C_15
REMARK    7  A    between atoms: C_19  and  N_20
REMARK                            x       y       z     vdW  Elec       q    Type
REMARK                         _______ _______ _______ _____ _____    ______ ____
ROOT
ATOM      1  C   UNL     1       2.736   6.729  17.860  0.00  0.00    +0.000 C 
ATOM      2  O   UNL     1       2.336   5.570  17.944  0.00  0.00    +0.000 OA
ATOM      3  N   UNL     1       4.037   7.132  17.569  0.00  0.00    +0.000 N 
ATOM      4  H   UNL     1       4.255   8.111  17.715  0.00  0.00    +0.000 HD
ENDROOT
BRANCH   3   5
ATOM      5  C   UNL     1       5.106   6.270  17.234  0.00  0.00    +0.000 A 
ATOM      6  C   UNL     1       5.987   5.784  18.199  0.00  0.00    +0.000 A 
ATOM      7  C   UNL     1       7.057   4.979  17.835  0.00  0.00    +0.000 A 
ATOM      8  C   UNL     1       7.239   4.625  16.503  0.00  0.00    +0.000 A 
ATOM      9  C   UNL     1       6.353   5.051  15.507  0.00  0.00    +0.000 A 
ATOM     10  C   UNL     1       5.282   5.883  15.892  0.00  0.00    +0.000 A 
BRANCH   9  11
ATOM     11  N   UNL     1       6.539   4.642  14.152  0.00  0.00    +0.000 N 
ATOM     12  C   UNL     1       5.611   3.786  13.454  0.00  0.00    +0.000 C 
ATOM     13  C   UNL     1       6.387   3.303  12.244  0.00  0.00    +0.000 C 
ATOM     14  C   UNL     1       7.324   4.452  11.941  0.00  0.00    +0.000 C 
ATOM     15  C   UNL     1       7.568   5.069  13.292  0.00  0.00    +0.000 C 
ATOM     16  O   UNL     1       8.490   5.839  13.496  0.00  0.00    +0.000 OA
ENDBRANCH   9  11
ENDBRANCH   3   5
BRANCH   1  17
ATOM     17  C   UNL     1       1.776   7.878  18.098  0.00  0.00    +0.000 C 
BRANCH  17  18
ATOM     18  O   UNL     1       2.238   8.606  19.228  0.00  0.00    +0.000 OA
BRANCH  18  27
ATOM     19  C   UNL     1      -1.848  11.345  17.778  0.00  0.00    +0.000 C 
ATOM     20  C   UNL     1      -0.760  11.797  18.758  0.00  0.00    +0.000 C 
ATOM     21  C   UNL     1      -0.222  13.170  18.358  0.00  0.00    +0.000 C 
ATOM     22  C   UNL     1      -1.257  11.775  20.219  0.00  0.00    +0.000 C 
ATOM     23  C   UNL     1      -0.496  10.615  20.744  0.00  0.00    +0.000 A 
ATOM     24  C   UNL     1      -0.572  10.027  21.995  0.00  0.00    +0.000 A 
ATOM     25  C   UNL     1       0.278   8.957  22.274  0.00  0.00    +0.000 A 
ATOM     26  C   UNL     1       1.195   8.505  21.309  0.00  0.00    +0.000 A 
ATOM     27  C   UNL     1       1.278   9.117  20.054  0.00  0.00    +0.000 A 
ATOM     28  C   UNL     1       0.409  10.166  19.794  0.00  0.00    +0.000 A 
ATOM     29  O   UNL     1       0.352  10.876  18.626  0.00  0.00    +0.000 OA
ENDBRANCH  18  27
ENDBRANCH  17  18
ENDBRANCH   1  17
TORSDOF 5
ENDMDL
MODEL 7
REMARK VINA RESULT:      -8.3      5.781      8.417
REMARK  Name = 
REMARK  7 active torsions:
REMARK  status: ('A' for Active; 'I' for Inactive)
REMARK    1  A    between atoms: C_1  and  C_2
REMARK    2  A    between atoms: C_2  and  C_3
REMARK    3  A    between atoms: C_9  and  O_10
REMARK    4  A    between atoms: O_10  and  C_11
REMARK    5  A    between atoms: C_11  and  C_12
REMARK    6  A    between atoms: N_14  and  C_15
REMARK    7  A    between atoms: C_19  and  N_20
REMARK                            x       y       z     vdW  Elec       q    Type
REMARK                         _______ _______ _______ _____ _____    ______ ____
ROOT
ATOM      1  C   UNL     1       2.867   7.546  17.864  0.00  0.00    +0.000 C 
ATOM      2  O   UNL     1       2.338   6.532  18.313  0.00  0.00    +0.000 OA
ATOM      3  N   UNL     1       4.137   7.631  17.298  0.00  0.00    +0.000 N 
ATOM      4  H   UNL     1       4.505   8.563  17.142  0.00  0.00    +0.000 HD
ENDROOT
BRANCH   3   5
ATOM      5  C   UNL     1       5.005   6.541  17.067  0.00  0.00    +0.000 A 
ATOM      6  C   UNL     1       5.617   5.854  18.115  0.00  0.00    +0.000 A 
ATOM      7  C   UNL     1       6.503   4.818  17.857  0.00  0.00    +0.000 A 
ATOM      8  C   UNL     1       6.763   4.437  16.545  0.00  0.00    +0.000 A 
ATOM      9  C   UNL     1       6.138   5.066  15.463  0.00  0.00    +0.000 A 
ATOM     10  C   UNL     1       5.254   6.129  15.744  0.00  0.00    +0.000 A 
BRANCH   9  11
ATOM     11  N   UNL     1       6.391   4.631  14.128  0.00  0.00    +0.000 N 
ATOM     12  C   UNL     1       5.486   3.785  13.391  0.00  0.00    +0.000 C 
ATOM     13  C   UNL     1       6.318   3.265  12.235  0.00  0.00    +0.000 C 
ATOM     14  C   UNL     1       7.298   4.387  11.969  0.00  0.00    +0.000 C 
ATOM     15  C   UNL     1       7.478   5.021  13.323  0.00  0.00    +0.000 C 
ATOM     16  O   UNL     1       8.405   5.772  13.569  0.00  0.00    +0.000 OA
ENDBRANCH   9  11
ENDBRANCH   3   5
BRANCH   1  17
ATOM     17  C   UNL     1       2.126   8.868  17.910  0.00  0.00    +0.000 C 
BRANCH  17  18
ATOM     18  O   UNL     1       1.249   8.838  19.028  0.00  0.00    +0.000 OA
BRANCH  18  27
ATOM     19  C   UNL     1      -3.668   9.509  17.735  0.00  0.00    +0.000 C 
ATOM     20  C   UNL     1      -2.489  10.373  17.277  0.00  0.00    +0.000 C 
ATOM     21  C   UNL     1      -2.503  10.528  15.756  0.00  0.00    +0.000 C 
ATOM     22  C   UNL     1      -2.461  11.738  17.995  0.00  0.00    +0.000 C 
ATOM     23  C   UNL     1      -1.287  11.551  18.882  0.00  0.00    +0.000 A 
ATOM     24  C   UNL     1      -0.792  12.406  19.851  0.00  0.00    +0.000 A 
ATOM     25  C   UNL     1       0.360  12.027  20.541  0.00  0.00    +0.000 A 
ATOM     26  C   UNL     1       1.002  10.813  20.240  0.00  0.00    +0.000 A 
ATOM     27  C   UNL     1       0.506   9.963  19.246  0.00  0.00    +0.000 A 
ATOM     28  C   UNL     1      -0.650  10.355  18.589  0.00  0.00    +0.000 A 
ATOM     29  O   UNL     1      -1.273   9.650  17.594  0.00  0.00    +0.000 OA
ENDBRANCH  18  27
ENDBRANCH  17  18
ENDBRANCH   1  17
TORSDOF 5
ENDMDL
MODEL 8
REMARK VINA RESULT:      -8.3      6.436      9.987
REMARK  Name = 
REMARK  7 active torsions:
REMARK  status: ('A' for Active; 'I' for Inactive)
REMARK    1  A    between atoms: C_1  and  C_2
REMARK    2  A    between atoms: C_2  and  C_3
REMARK    3  A    between atoms: C_9  and  O_10
REMARK    4  A    between atoms: O_10  and  C_11
REMARK    5  A    between atoms: C_11  and  C_12
REMARK    6  A    between atoms: N_14  and  C_15
REMARK    7  A    between atoms: C_19  and  N_20
REMARK                            x       y       z     vdW  Elec       q    Type
REMARK                         _______ _______ _______ _____ _____    ______ ____
ROOT
ATOM      1  C   UNL     1       1.739   8.975  18.584  0.00  0.00    +0.000 C 
ATOM      2  O   UNL     1       1.984   9.460  17.482  0.00  0.00    +0.000 OA
ATOM      3  N   UNL     1       0.934   9.537  19.571  0.00  0.00    +0.000 N 
ATOM      4  H   UNL     1       0.974   9.112  20.490  0.00  0.00    +0.000 HD
ENDROOT
BRANCH   3   5
ATOM      5  C   UNL     1       0.187  10.730  19.438  0.00  0.00    +0.000 A 
ATOM      6  C   UNL     1       0.744  11.979  19.708  0.00  0.00    +0.000 A 
ATOM      7  C   UNL     1      -0.026  13.130  19.616  0.00  0.00    +0.000 A 
ATOM      8  C   UNL     1      -1.357  13.045  19.221  0.00  0.00    +0.000 A 
ATOM      9  C   UNL     1      -1.945  11.818  18.896  0.00  0.00    +0.000 A 
ATOM     10  C   UNL     1      -1.153  10.658  19.013  0.00  0.00    +0.000 A 
BRANCH   9  11
ATOM     11  N   UNL     1      -3.302  11.762  18.456  0.00  0.00    +0.000 N 
ATOM     12  C   UNL     1      -4.417  12.130  19.292  0.00  0.00    +0.000 C 
ATOM     13  C   UNL     1      -5.624  11.543  18.587  0.00  0.00    +0.000 C 
ATOM     14  C   UNL     1      -5.236  11.584  17.124  0.00  0.00    +0.000 C 
ATOM     15  C   UNL     1      -3.737  11.437  17.157  0.00  0.00    +0.000 C 
ATOM     16  O   UNL     1      -3.094  11.141  16.166  0.00  0.00    +0.000 OA
ENDBRANCH   9  11
ENDBRANCH   3   5
BRANCH   1  17
ATOM     17  C   UNL     1       2.352   7.645  18.977  0.00  0.00    +0.000 C 
BRANCH  17  18
ATOM     18  O   UNL     1       3.247   7.255  17.944  0.00  0.00    +0.000 OA
BRANCH  18  27
ATOM     19  C   UNL     1       7.553   4.544  17.301  0.00  0.00    +0.000 C 
ATOM     20  C   UNL     1       6.413   4.681  16.286  0.00  0.00    +0.000 C 
ATOM     21  C   UNL     1       6.963   5.090  14.920  0.00  0.00    +0.000 C 
ATOM     22  C   UNL     1       5.559   3.398  16.204  0.00  0.00    +0.000 C 
ATOM     23  C   UNL     1       4.313   3.863  16.861  0.00  0.00    +0.000 A 
ATOM     24  C   UNL     1       3.178   3.134  17.174  0.00  0.00    +0.000 A 
ATOM     25  C   UNL     1       2.106   3.803  17.765  0.00  0.00    +0.000 A 
ATOM     26  C   UNL     1       2.180   5.184  18.017  0.00  0.00    +0.000 A 
ATOM     27  C   UNL     1       3.324   5.917  17.682  0.00  0.00    +0.000 A 
ATOM     28  C   UNL     1       4.383   5.225  17.113  0.00  0.00    +0.000 A 
ATOM     29  O   UNL     1       5.573   5.778  16.724  0.00  0.00    +0.000 OA
ENDBRANCH  18  27
ENDBRANCH  17  18
ENDBRANCH   1  17
TORSDOF 5
ENDMDL
MODEL 9
REMARK VINA RESULT:      -8.2      6.219      9.994
REMARK  Name = 
REMARK  7 active torsions:
REMARK  status: ('A' for Active; 'I' for Inactive)
REMARK    1  A    between atoms: C_1  and  C_2
REMARK    2  A    between atoms: C_2  and  C_3
REMARK    3  A    between atoms: C_9  and  O_10
REMARK    4  A    between atoms: O_10  and  C_11
REMARK    5  A    between atoms: C_11  and  C_12
REMARK    6  A    between atoms: N_14  and  C_15
REMARK    7  A    between atoms: C_19  and  N_20
REMARK                            x       y       z     vdW  Elec       q    Type
REMARK                         _______ _______ _______ _____ _____    ______ ____
ROOT
ATOM      1  C   UNL     1       1.513   8.451  19.886  0.00  0.00    +0.000 C 
ATOM      2  O   UNL     1       0.956   8.666  20.961  0.00  0.00    +0.000 OA
ATOM      3  N   UNL     1       1.397   9.219  18.731  0.00  0.00    +0.000 N 
ATOM      4  H   UNL     1       1.767   8.817  17.877  0.00  0.00    +0.000 HD
ENDROOT
BRANCH   3   5
ATOM      5  C   UNL     1       0.681  10.433  18.622  0.00  0.00    +0.000 A 
ATOM      6  C   UNL     1       1.303  11.670  18.792  0.00  0.00    +0.000 A 
ATOM      7  C   UNL     1       0.567  12.844  18.728  0.00  0.00    +0.000 A 
ATOM      8  C   UNL     1      -0.797  12.795  18.462  0.00  0.00    +0.000 A 
ATOM      9  C   UNL     1      -1.455  11.580  18.239  0.00  0.00    +0.000 A 
ATOM     10  C   UNL     1      -0.694  10.396  18.326  0.00  0.00    +0.000 A 
BRANCH   9  11
ATOM     11  N   UNL     1      -2.847  11.558  17.928  0.00  0.00    +0.000 N 
ATOM     12  C   UNL     1      -3.872  11.899  18.884  0.00  0.00    +0.000 C 
ATOM     13  C   UNL     1      -5.149  11.359  18.271  0.00  0.00    +0.000 C 
ATOM     14  C   UNL     1      -4.902  11.463  16.781  0.00  0.00    +0.000 C 
ATOM     15  C   UNL     1      -3.409  11.299  16.664  0.00  0.00    +0.000 C 
ATOM     16  O   UNL     1      -2.867  11.043  15.604  0.00  0.00    +0.000 OA
ENDBRANCH   9  11
ENDBRANCH   3   5
BRANCH   1  17
ATOM     17  C   UNL     1       2.416   7.243  19.732  0.00  0.00    +0.000 C 
BRANCH  17  18
ATOM     18  O   UNL     1       2.664   7.057  18.345  0.00  0.00    +0.000 OA
BRANCH  18  27
ATOM     19  C   UNL     1       0.606   2.383  18.819  0.00  0.00    +0.000 C 
ATOM     20  C   UNL     1       1.923   2.857  19.443  0.00  0.00    +0.000 C 
ATOM     21  C   UNL     1       1.948   2.540  20.938  0.00  0.00    +0.000 C 
ATOM     22  C   UNL     1       3.149   2.274  18.709  0.00  0.00    +0.000 C 
ATOM     23  C   UNL     1       3.656   3.489  18.026  0.00  0.00    +0.000 A 
ATOM     24  C   UNL     1       4.705   3.603  17.130  0.00  0.00    +0.000 A 
ATOM     25  C   UNL     1       5.023   4.871  16.642  0.00  0.00    +0.000 A 
ATOM     26  C   UNL     1       4.300   5.998  17.067  0.00  0.00    +0.000 A 
ATOM     27  C   UNL     1       3.253   5.879  17.987  0.00  0.00    +0.000 A 
ATOM     28  C   UNL     1       2.945   4.605  18.442  0.00  0.00    +0.000 A 
ATOM     29  O   UNL     1       1.957   4.303  19.340  0.00  0.00    +0.000 OA
ENDBRANCH  18  27
ENDBRANCH  17  18
ENDBRANCH   1  17
TORSDOF 5
ENDMDL
