MODEL 1
REMARK VINA RESULT:      -9.2      0.000      0.000
REMARK  Name = 
REMARK  6 active torsions:
REMARK  status: ('A' for Active; 'I' for Inactive)
REMARK    1  A    between atoms: C_2  and  C_3
REMARK    2  A    between atoms: C_3  and  O_4
REMARK    3  A    between atoms: O_4  and  C_5
REMARK    4  A    between atoms: C_5  and  C_7
REMARK    5  A    between atoms: C_10  and  N_11
REMARK    6  A    between atoms: N_24  and  C_25
REMARK                            x       y       z     vdW  Elec       q    Type
REMARK                         _______ _______ _______ _____ _____    ______ ____
ROOT
ATOM      1  C   UNL     1       2.865   7.799  18.358  0.00  0.00    +0.000 A 
ATOM      2  C   UNL     1       2.776   7.034  19.524  0.00  0.00    +0.000 A 
ATOM      3  C   UNL     1       3.398   5.785  19.591  0.00  0.00    +0.000 A 
ATOM      4  C   UNL     1       4.028   5.249  18.450  0.00  0.00    +0.000 A 
ATOM      5  C   UNL     1       4.291   6.105  17.371  0.00  0.00    +0.000 A 
ATOM      6  C   UNL     1       3.701   7.371  17.319  0.00  0.00    +0.000 A 
ENDROOT
BRANCH   4   7
ATOM      7  N   UNL     1       4.017   3.804  18.219  0.00  0.00    +0.000 N 
ATOM      8  C   UNL     1       2.771   3.363  17.791  0.00  0.00    +0.000 C 
ATOM      9  O   UNL     1       2.254   3.401  16.689  0.00  0.00    +0.000 OA
ATOM     10  C   UNL     1       2.097   2.866  18.992  0.00  0.00    +0.000 A 
ATOM     11  C   UNL     1       0.768   2.994  19.345  0.00  0.00    +0.000 A 
ATOM     12  C   UNL     1       0.459   2.867  20.704  0.00  0.00    +0.000 A 
ATOM     13  C   UNL     1       1.464   2.589  21.656  0.00  0.00    +0.000 A 
ATOM     14  C   UNL     1       2.802   2.451  21.270  0.00  0.00    +0.000 A 
ATOM     15  C   UNL     1       3.082   2.620  19.928  0.00  0.00    +0.000 A 
ATOM     16  C   UNL     1       4.348   3.024  19.315  0.00  0.00    +0.000 C 
ATOM     17  O   UNL     1       5.442   2.783  19.797  0.00  0.00    +0.000 OA
ENDBRANCH   4   7
BRANCH   1  18
ATOM     18  C   UNL     1       1.911   8.924  18.183  0.00  0.00    +0.000 C 
ATOM     19  O   UNL     1       1.957   9.718  17.254  0.00  0.00    +0.000 OA
BRANCH  18  20
ATOM     20  O   UNL     1       1.122   9.042  19.275  0.00  0.00    +0.000 OA
BRANCH  20  21
ATOM     21  C   UNL     1       1.043  10.362  19.817  0.00  0.00    +0.000 C 
BRANCH  21  23
ATOM     22  O   UNL     1      -0.407  12.242  19.488  0.00  0.00    +0.000 OA
ATOM     23  C   UNL     1      -0.202  11.053  19.258  0.00  0.00    +0.000 C 
ATOM     24  N   UNL     1      -1.008  10.222  18.493  0.00  0.00    +0.000 N 
ATOM     25  H   UNL     1      -0.758   9.236  18.470  0.00  0.00    +0.000 HD
BRANCH  24  26
ATOM     26  C   UNL     1      -2.181  10.596  17.801  0.00  0.00    +0.000 A 
ATOM     27  C   UNL     1      -3.243  11.282  18.400  0.00  0.00    +0.000 A 
ATOM     28  C   UNL     1      -4.392  11.606  17.671  0.00  0.00    +0.000 A 
ATOM     29  C   UNL     1      -4.493  11.240  16.332  0.00  0.00    +0.000 A 
ATOM     30  C   UNL     1      -3.433  10.575  15.724  0.00  0.00    +0.000 A 
ATOM     31 CL   UNL     1      -3.557  10.116  14.069  0.00  0.00    +0.000 Cl
ATOM     32  C   UNL     1      -2.275  10.265  16.444  0.00  0.00    +0.000 A 
ENDBRANCH  24  26
ENDBRANCH  21  23
ENDBRANCH  20  21
ENDBRANCH  18  20
ENDBRANCH   1  18
TORSDOF 6
ENDMDL
MODEL 2
REMARK VINA RESULT:      -9.2      3.573      4.194
REMARK  Name = 
REMARK  6 active torsions:
REMARK  status: ('A' for Active; 'I' for Inactive)
REMARK    1  A    between atoms: C_2  and  C_3
REMARK    2  A    between atoms: C_3  and  O_4
REMARK    3  A    between atoms: O_4  and  C_5
REMARK    4  A    between atoms: C_5  and  C_7
REMARK    5  A    between atoms: C_10  and  N_11
REMARK    6  A    between atoms: N_24  and  C_25
REMARK                            x       y       z     vdW  Elec       q    Type
REMARK                         _______ _______ _______ _____ _____    ______ ____
ROOT
ATOM      1  C   UNL     1       1.818   8.647  18.962  0.00  0.00    +0.000 A 
ATOM      2  C   UNL     1       1.889   7.646  19.935  0.00  0.00    +0.000 A 
ATOM      3  C   UNL     1       2.583   6.463  19.670  0.00  0.00    +0.000 A 
ATOM      4  C   UNL     1       3.125   6.234  18.390  0.00  0.00    +0.000 A 
ATOM      5  C   UNL     1       3.230   7.318  17.507  0.00  0.00    +0.000 A 
ATOM      6  C   UNL     1       2.567   8.516  17.787  0.00  0.00    +0.000 A 
ENDROOT
BRANCH   4   7
ATOM      7  N   UNL     1       3.171   4.875  17.848  0.00  0.00    +0.000 N 
ATOM      8  C   UNL     1       1.919   4.271  17.871  0.00  0.00    +0.000 C 
ATOM      9  O   UNL     1       0.970   4.389  17.117  0.00  0.00    +0.000 OA
ATOM     10  C   UNL     1       1.900   3.456  19.087  0.00  0.00    +0.000 A 
ATOM     11  C   UNL     1       0.855   3.254  19.968  0.00  0.00    +0.000 A 
ATOM     12  C   UNL     1       1.190   2.843  21.262  0.00  0.00    +0.000 A 
ATOM     13  C   UNL     1       2.534   2.616  21.630  0.00  0.00    +0.000 A 
ATOM     14  C   UNL     1       3.573   2.816  20.714  0.00  0.00    +0.000 A 
ATOM     15  C   UNL     1       3.215   3.259  19.455  0.00  0.00    +0.000 A 
ATOM     16  C   UNL     1       4.032   4.005  18.497  0.00  0.00    +0.000 C 
ATOM     17  O   UNL     1       5.246   3.911  18.422  0.00  0.00    +0.000 OA
ENDBRANCH   4   7
BRANCH   1  18
ATOM     18  C   UNL     1       0.790   9.708  19.122  0.00  0.00    +0.000 C 
ATOM     19  O   UNL     1       0.133  10.165  18.197  0.00  0.00    +0.000 OA
BRANCH  18  20
ATOM     20  O   UNL     1       0.823  10.205  20.379  0.00  0.00    +0.000 OA
BRANCH  20  21
ATOM     21  C   UNL     1       1.117  11.601  20.464  0.00  0.00    +0.000 C 
BRANCH  21  23
ATOM     22  O   UNL     1      -0.814  12.993  20.186  0.00  0.00    +0.000 OA
ATOM     23  C   UNL     1      -0.124  12.340  20.965  0.00  0.00    +0.000 C 
ATOM     24  N   UNL     1      -0.366  12.173  22.321  0.00  0.00    +0.000 N 
ATOM     25  H   UNL     1       0.345  11.681  22.857  0.00  0.00    +0.000 HD
BRANCH  24  26
ATOM     26  C   UNL     1      -1.469  12.680  23.045  0.00  0.00    +0.000 A 
ATOM     27  C   UNL     1      -2.651  11.962  23.252  0.00  0.00    +0.000 A 
ATOM     28  C   UNL     1      -3.720  12.526  23.956  0.00  0.00    +0.000 A 
ATOM     29  C   UNL     1      -3.619  13.820  24.458  0.00  0.00    +0.000 A 
ATOM     30  C   UNL     1      -2.439  14.534  24.272  0.00  0.00    +0.000 A 
ATOM     31 CL   UNL     1      -2.312  16.137  24.887  0.00  0.00    +0.000 Cl
ATOM     32  C   UNL     1      -1.361  13.968  23.585  0.00  0.00    +0.000 A 
ENDBRANCH  24  26
ENDBRANCH  21  23
ENDBRANCH  20  21
ENDBRANCH  18  20
ENDBRANCH   1  18
TORSDOF 6
ENDMDL
MODEL 3
REMARK VINA RESULT:      -9.2      3.282      4.158
REMARK  Name = 
REMARK  6 active torsions:
REMARK  status: ('A' for Active; 'I' for Inactive)
REMARK    1  A    between atoms: C_2  and  C_3
REMARK    2  A    between atoms: C_3  and  O_4
REMARK    3  A    between atoms: O_4  and  C_5
REMARK    4  A    between atoms: C_5  and  C_7
REMARK    5  A    between atoms: C_10  and  N_11
REMARK    6  A    between atoms: N_24  and  C_25
REMARK                            x       y       z     vdW  Elec       q    Type
REMARK                         _______ _______ _______ _____ _____    ______ ____
ROOT
ATOM      1  C   UNL     1       1.845   8.596  19.137  0.00  0.00    +0.000 A 
ATOM      2  C   UNL     1       1.987   7.569  20.074  0.00  0.00    +0.000 A 
ATOM      3  C   UNL     1       2.669   6.399  19.732  0.00  0.00    +0.000 A 
ATOM      4  C   UNL     1       3.124   6.209  18.412  0.00  0.00    +0.000 A 
ATOM      5  C   UNL     1       3.164   7.318  17.554  0.00  0.00    +0.000 A 
ATOM      6  C   UNL     1       2.515   8.503  17.911  0.00  0.00    +0.000 A 
ENDROOT
BRANCH   4   7
ATOM      7  N   UNL     1       3.142   4.866  17.831  0.00  0.00    +0.000 N 
ATOM      8  C   UNL     1       1.883   4.278  17.860  0.00  0.00    +0.000 C 
ATOM      9  O   UNL     1       0.922   4.430  17.127  0.00  0.00    +0.000 OA
ATOM     10  C   UNL     1       1.874   3.429  19.052  0.00  0.00    +0.000 A 
ATOM     11  C   UNL     1       0.843   3.216  19.946  0.00  0.00    +0.000 A 
ATOM     12  C   UNL     1       1.195   2.763  21.222  0.00  0.00    +0.000 A 
ATOM     13  C   UNL     1       2.543   2.508  21.558  0.00  0.00    +0.000 A 
ATOM     14  C   UNL     1       3.567   2.720  20.629  0.00  0.00    +0.000 A 
ATOM     15  C   UNL     1       3.193   3.204  19.390  0.00  0.00    +0.000 A 
ATOM     16  C   UNL     1       4.002   3.966  18.439  0.00  0.00    +0.000 C 
ATOM     17  O   UNL     1       5.213   3.858  18.338  0.00  0.00    +0.000 OA
ENDBRANCH   4   7
BRANCH   1  18
ATOM     18  C   UNL     1       0.825   9.644  19.394  0.00  0.00    +0.000 C 
ATOM     19  O   UNL     1      -0.002  10.008  18.570  0.00  0.00    +0.000 OA
BRANCH  18  20
ATOM     20  O   UNL     1       1.061  10.246  20.583  0.00  0.00    +0.000 OA
BRANCH  20  21
ATOM     21  C   UNL     1       0.138  11.281  20.925  0.00  0.00    +0.000 C 
BRANCH  21  23
ATOM     22  O   UNL     1       0.993  13.391  21.675  0.00  0.00    +0.000 OA
ATOM     23  C   UNL     1       0.816  12.637  20.722  0.00  0.00    +0.000 C 
ATOM     24  N   UNL     1       1.199  12.881  19.410  0.00  0.00    +0.000 N 
ATOM     25  H   UNL     1       0.900  12.203  18.713  0.00  0.00    +0.000 HD
BRANCH  24  26
ATOM     26  C   UNL     1       1.899  14.013  18.938  0.00  0.00    +0.000 A 
ATOM     27  C   UNL     1       1.312  15.274  18.784  0.00  0.00    +0.000 A 
ATOM     28  C   UNL     1       2.048  16.354  18.288  0.00  0.00    +0.000 A 
ATOM     29  C   UNL     1       3.384  16.183  17.935  0.00  0.00    +0.000 A 
ATOM     30  C   UNL     1       3.981  14.937  18.104  0.00  0.00    +0.000 A 
ATOM     31 CL   UNL     1       5.631  14.721  17.662  0.00  0.00    +0.000 Cl
ATOM     32  C   UNL     1       3.253  13.859  18.616  0.00  0.00    +0.000 A 
ENDBRANCH  24  26
ENDBRANCH  21  23
ENDBRANCH  20  21
ENDBRANCH  18  20
ENDBRANCH   1  18
TORSDOF 6
ENDMDL
MODEL 4
REMARK VINA RESULT:      -9.1      5.816      7.925
REMARK  Name = 
REMARK  6 active torsions:
REMARK  status: ('A' for Active; 'I' for Inactive)
REMARK    1  A    between atoms: C_2  and  C_3
REMARK    2  A    between atoms: C_3  and  O_4
REMARK    3  A    between atoms: O_4  and  C_5
REMARK    4  A    between atoms: C_5  and  C_7
REMARK    5  A    between atoms: C_10  and  N_11
REMARK    6  A    between atoms: N_24  and  C_25
REMARK                            x       y       z     vdW  Elec       q    Type
REMARK                         _______ _______ _______ _____ _____    ______ ____
ROOT
ATOM      1  C   UNL     1       6.212   5.453  17.794  0.00  0.00    +0.000 A 
ATOM      2  C   UNL     1       6.162   4.579  16.705  0.00  0.00    +0.000 A 
ATOM      3  C   UNL     1       4.945   4.013  16.317  0.00  0.00    +0.000 A 
ATOM      4  C   UNL     1       3.786   4.240  17.085  0.00  0.00    +0.000 A 
ATOM      5  C   UNL     1       3.806   5.273  18.033  0.00  0.00    +0.000 A 
ATOM      6  C   UNL     1       5.017   5.867  18.396  0.00  0.00    +0.000 A 
ENDROOT
BRANCH   4   7
ATOM      7  N   UNL     1       2.770   3.193  17.202  0.00  0.00    +0.000 N 
ATOM      8  C   UNL     1       1.568   3.697  17.686  0.00  0.00    +0.000 C 
ATOM      9  O   UNL     1       0.677   4.302  17.117  0.00  0.00    +0.000 OA
ATOM     10  C   UNL     1       1.579   3.419  19.124  0.00  0.00    +0.000 A 
ATOM     11  C   UNL     1       1.122   4.217  20.155  0.00  0.00    +0.000 A 
ATOM     12  C   UNL     1       1.649   3.969  21.427  0.00  0.00    +0.000 A 
ATOM     13  C   UNL     1       2.579   2.928  21.640  0.00  0.00    +0.000 A 
ATOM     14  C   UNL     1       3.015   2.126  20.580  0.00  0.00    +0.000 A 
ATOM     15  C   UNL     1       2.507   2.418  19.329  0.00  0.00    +0.000 A 
ATOM     16  C   UNL     1       3.104   2.130  18.025  0.00  0.00    +0.000 C 
ATOM     17  O   UNL     1       3.837   1.180  17.809  0.00  0.00    +0.000 OA
ENDBRANCH   4   7
BRANCH   1  18
ATOM     18  C   UNL     1       7.536   5.740  18.402  0.00  0.00    +0.000 C 
ATOM     19  O   UNL     1       8.044   5.062  19.284  0.00  0.00    +0.000 OA
BRANCH  18  20
ATOM     20  O   UNL     1       7.997   6.938  17.974  0.00  0.00    +0.000 OA
BRANCH  20  21
ATOM     21  C   UNL     1       8.514   7.784  19.003  0.00  0.00    +0.000 C 
BRANCH  21  23
ATOM     22  O   UNL     1       7.831   9.579  17.569  0.00  0.00    +0.000 OA
ATOM     23  C   UNL     1       8.572   9.221  18.481  0.00  0.00    +0.000 C 
ATOM     24  N   UNL     1       9.495  10.019  19.140  0.00  0.00    +0.000 N 
ATOM     25  H   UNL     1      10.105   9.558  19.811  0.00  0.00    +0.000 HD
BRANCH  24  26
ATOM     26  C   UNL     1       9.722  11.397  18.918  0.00  0.00    +0.000 A 
ATOM     27  C   UNL     1       9.174  12.406  19.718  0.00  0.00    +0.000 A 
ATOM     28  C   UNL     1       9.413  13.754  19.435  0.00  0.00    +0.000 A 
ATOM     29  C   UNL     1      10.200  14.109  18.344  0.00  0.00    +0.000 A 
ATOM     30  C   UNL     1      10.764  13.110  17.556  0.00  0.00    +0.000 A 
ATOM     31 CL   UNL     1      11.734  13.546  16.201  0.00  0.00    +0.000 Cl
ATOM     32  C   UNL     1      10.543  11.761  17.844  0.00  0.00    +0.000 A 
ENDBRANCH  24  26
ENDBRANCH  21  23
ENDBRANCH  20  21
ENDBRANCH  18  20
ENDBRANCH   1  18
TORSDOF 6
ENDMDL
MODEL 5
REMARK VINA RESULT:      -9.1      1.842      2.311
REMARK  Name = 
REMARK  6 active torsions:
REMARK  status: ('A' for Active; 'I' for Inactive)
REMARK    1  A    between atoms: C_2  and  C_3
REMARK    2  A    between atoms: C_3  and  O_4
REMARK    3  A    between atoms: O_4  and  C_5
REMARK    4  A    between atoms: C_5  and  C_7
REMARK    5  A    between atoms: C_10  and  N_11
REMARK    6  A    between atoms: N_24  and  C_25
REMARK                            x       y       z     vdW  Elec       q    Type
REMARK                         _______ _______ _______ _____ _____    ______ ____
ROOT
ATOM      1  C   UNL     1       1.795   8.600  19.321  0.00  0.00    +0.000 A 
ATOM      2  C   UNL     1       2.057   7.561  20.219  0.00  0.00    +0.000 A 
ATOM      3  C   UNL     1       2.746   6.424  19.790  0.00  0.00    +0.000 A 
ATOM      4  C   UNL     1       3.087   6.276  18.431  0.00  0.00    +0.000 A 
ATOM      5  C   UNL     1       3.010   7.401  17.598  0.00  0.00    +0.000 A 
ATOM      6  C   UNL     1       2.354   8.554  18.038  0.00  0.00    +0.000 A 
ENDROOT
BRANCH   4   7
ATOM      7  N   UNL     1       3.099   4.945  17.822  0.00  0.00    +0.000 N 
ATOM      8  C   UNL     1       1.844   4.350  17.865  0.00  0.00    +0.000 C 
ATOM      9  O   UNL     1       0.867   4.512  17.156  0.00  0.00    +0.000 OA
ATOM     10  C   UNL     1       1.865   3.475  19.039  0.00  0.00    +0.000 A 
ATOM     11  C   UNL     1       0.855   3.237  19.950  0.00  0.00    +0.000 A 
ATOM     12  C   UNL     1       1.237   2.759  21.208  0.00  0.00    +0.000 A 
ATOM     13  C   UNL     1       2.593   2.505  21.509  0.00  0.00    +0.000 A 
ATOM     14  C   UNL     1       3.596   2.743  20.563  0.00  0.00    +0.000 A 
ATOM     15  C   UNL     1       3.193   3.251  19.344  0.00  0.00    +0.000 A 
ATOM     16  C   UNL     1       3.977   4.037  18.392  0.00  0.00    +0.000 C 
ATOM     17  O   UNL     1       5.186   3.939  18.263  0.00  0.00    +0.000 OA
ENDBRANCH   4   7
BRANCH   1  18
ATOM     18  C   UNL     1       0.766   9.604  19.692  0.00  0.00    +0.000 C 
ATOM     19  O   UNL     1      -0.230   9.347  20.353  0.00  0.00    +0.000 OA
BRANCH  18  20
ATOM     20  O   UNL     1       0.997  10.771  19.047  0.00  0.00    +0.000 OA
BRANCH  20  21
ATOM     21  C   UNL     1       0.388  11.917  19.645  0.00  0.00    +0.000 C 
BRANCH  21  23
ATOM     22  O   UNL     1      -0.763  13.074  17.890  0.00  0.00    +0.000 OA
ATOM     23  C   UNL     1      -0.853  12.297  18.836  0.00  0.00    +0.000 C 
ATOM     24  N   UNL     1      -2.016  11.676  19.270  0.00  0.00    +0.000 N 
ATOM     25  H   UNL     1      -1.953  11.131  20.127  0.00  0.00    +0.000 HD
BRANCH  24  26
ATOM     26  C   UNL     1      -3.295  11.785  18.679  0.00  0.00    +0.000 A 
ATOM     27  C   UNL     1      -3.574  11.385  17.368  0.00  0.00    +0.000 A 
ATOM     28  C   UNL     1      -4.855  11.540  16.827  0.00  0.00    +0.000 A 
ATOM     29  C   UNL     1      -5.871  12.103  17.593  0.00  0.00    +0.000 A 
ATOM     30  C   UNL     1      -5.606  12.485  18.905  0.00  0.00    +0.000 A 
ATOM     31 CL   UNL     1      -6.859  13.187  19.854  0.00  0.00    +0.000 Cl
ATOM     32  C   UNL     1      -4.332  12.316  19.456  0.00  0.00    +0.000 A 
ENDBRANCH  24  26
ENDBRANCH  21  23
ENDBRANCH  20  21
ENDBRANCH  18  20
ENDBRANCH   1  18
TORSDOF 6
ENDMDL
MODEL 6
REMARK VINA RESULT:      -9.1      1.628      3.521
REMARK  Name = 
REMARK  6 active torsions:
REMARK  status: ('A' for Active; 'I' for Inactive)
REMARK    1  A    between atoms: C_2  and  C_3
REMARK    2  A    between atoms: C_3  and  O_4
REMARK    3  A    between atoms: O_4  and  C_5
REMARK    4  A    between atoms: C_5  and  C_7
REMARK    5  A    between atoms: C_10  and  N_11
REMARK    6  A    between atoms: N_24  and  C_25
REMARK                            x       y       z     vdW  Elec       q    Type
REMARK                         _______ _______ _______ _____ _____    ______ ____
ROOT
ATOM      1  C   UNL     1       1.845   7.258  19.974  0.00  0.00    +0.000 A 
ATOM      2  C   UNL     1       2.479   7.276  18.729  0.00  0.00    +0.000 A 
ATOM      3  C   UNL     1       3.124   6.130  18.257  0.00  0.00    +0.000 A 
ATOM      4  C   UNL     1       3.225   4.988  19.077  0.00  0.00    +0.000 A 
ATOM      5  C   UNL     1       2.412   4.913  20.217  0.00  0.00    +0.000 A 
ATOM      6  C   UNL     1       1.735   6.049  20.672  0.00  0.00    +0.000 A 
ENDROOT
BRANCH   4   7
ATOM      7  N   UNL     1       4.409   4.132  18.996  0.00  0.00    +0.000 N 
ATOM      8  C   UNL     1       5.577   4.880  18.916  0.00  0.00    +0.000 C 
ATOM      9  O   UNL     1       6.217   5.444  19.785  0.00  0.00    +0.000 OA
ATOM     10  C   UNL     1       5.904   4.944  17.490  0.00  0.00    +0.000 A 
ATOM     11  C   UNL     1       6.414   6.010  16.773  0.00  0.00    +0.000 A 
ATOM     12  C   UNL     1       6.204   5.999  15.390  0.00  0.00    +0.000 A 
ATOM     13  C   UNL     1       5.532   4.928  14.763  0.00  0.00    +0.000 A 
ATOM     14  C   UNL     1       5.037   3.854  15.511  0.00  0.00    +0.000 A 
ATOM     15  C   UNL     1       5.224   3.910  16.879  0.00  0.00    +0.000 A 
ATOM     16  C   UNL     1       4.437   3.255  17.924  0.00  0.00    +0.000 C 
ATOM     17  O   UNL     1       3.851   2.197  17.769  0.00  0.00    +0.000 OA
ENDBRANCH   4   7
BRANCH   1  18
ATOM     18  C   UNL     1       1.498   8.558  20.603  0.00  0.00    +0.000 C 
ATOM     19  O   UNL     1       1.222   8.691  21.787  0.00  0.00    +0.000 OA
BRANCH  18  20
ATOM     20  O   UNL     1       1.357   9.513  19.655  0.00  0.00    +0.000 OA
BRANCH  20  21
ATOM     21  C   UNL     1       0.993  10.803  20.152  0.00  0.00    +0.000 C 
BRANCH  21  23
ATOM     22  O   UNL     1      -0.025  12.567  18.890  0.00  0.00    +0.000 OA
ATOM     23  C   UNL     1      -0.090  11.395  19.249  0.00  0.00    +0.000 C 
ATOM     24  N   UNL     1      -1.080  10.489  18.895  0.00  0.00    +0.000 N 
ATOM     25  H   UNL     1      -1.051   9.578  19.347  0.00  0.00    +0.000 HD
BRANCH  24  26
ATOM     26  C   UNL     1      -2.166  10.732  18.025  0.00  0.00    +0.000 A 
ATOM     27  C   UNL     1      -3.353  11.354  18.429  0.00  0.00    +0.000 A 
ATOM     28  C   UNL     1      -4.405  11.546  17.528  0.00  0.00    +0.000 A 
ATOM     29  C   UNL     1      -4.284  11.113  16.211  0.00  0.00    +0.000 A 
ATOM     30  C   UNL     1      -3.099  10.511  15.797  0.00  0.00    +0.000 A 
ATOM     31 CL   UNL     1      -2.947   9.968  14.170  0.00  0.00    +0.000 Cl
ATOM     32  C   UNL     1      -2.037  10.333  16.689  0.00  0.00    +0.000 A 
ENDBRANCH  24  26
ENDBRANCH  21  23
ENDBRANCH  20  21
ENDBRANCH  18  20
ENDBRANCH   1  18
TORSDOF 6
ENDMDL
MODEL 7
REMARK VINA RESULT:      -9.1      3.322      3.901
REMARK  Name = 
REMARK  6 active torsions:
REMARK  status: ('A' for Active; 'I' for Inactive)
REMARK    1  A    between atoms: C_2  and  C_3
REMARK    2  A    between atoms: C_3  and  O_4
REMARK    3  A    between atoms: O_4  and  C_5
REMARK    4  A    between atoms: C_5  and  C_7
REMARK    5  A    between atoms: C_10  and  N_11
REMARK    6  A    between atoms: N_24  and  C_25
REMARK                            x       y       z     vdW  Elec       q    Type
REMARK                         _______ _______ _______ _____ _____    ______ ____
ROOT
ATOM      1  C   UNL     1       1.726   8.621  19.090  0.00  0.00    +0.000 A 
ATOM      2  C   UNL     1       1.894   7.607  20.037  0.00  0.00    +0.000 A 
ATOM      3  C   UNL     1       2.613   6.455  19.709  0.00  0.00    +0.000 A 
ATOM      4  C   UNL     1       3.081   6.267  18.394  0.00  0.00    +0.000 A 
ATOM      5  C   UNL     1       3.092   7.369  17.526  0.00  0.00    +0.000 A 
ATOM      6  C   UNL     1       2.405   8.537  17.868  0.00  0.00    +0.000 A 
ENDROOT
BRANCH   4   7
ATOM      7  N   UNL     1       3.143   4.920  17.825  0.00  0.00    +0.000 N 
ATOM      8  C   UNL     1       1.900   4.299  17.843  0.00  0.00    +0.000 C 
ATOM      9  O   UNL     1       0.945   4.418  17.097  0.00  0.00    +0.000 OA
ATOM     10  C   UNL     1       1.899   3.460  19.043  0.00  0.00    +0.000 A 
ATOM     11  C   UNL     1       0.862   3.226  19.926  0.00  0.00    +0.000 A 
ATOM     12  C   UNL     1       1.210   2.795  21.210  0.00  0.00    +0.000 A 
ATOM     13  C   UNL     1       2.560   2.579  21.566  0.00  0.00    +0.000 A 
ATOM     14  C   UNL     1       3.590   2.811  20.648  0.00  0.00    +0.000 A 
ATOM     15  C   UNL     1       3.219   3.274  19.400  0.00  0.00    +0.000 A 
ATOM     16  C   UNL     1       4.019   4.049  18.452  0.00  0.00    +0.000 C 
ATOM     17  O   UNL     1       5.234   3.974  18.368  0.00  0.00    +0.000 OA
ENDBRANCH   4   7
BRANCH   1  18
ATOM     18  C   UNL     1       0.672   9.639  19.332  0.00  0.00    +0.000 C 
ATOM     19  O   UNL     1       0.352  10.495  18.520  0.00  0.00    +0.000 OA
BRANCH  18  20
ATOM     20  O   UNL     1       0.263   9.592  20.620  0.00  0.00    +0.000 OA
BRANCH  20  21
ATOM     21  C   UNL     1       0.740  10.660  21.441  0.00  0.00    +0.000 C 
BRANCH  21  23
ATOM     22  O   UNL     1      -0.650  10.444  23.382  0.00  0.00    +0.000 OA
ATOM     23  C   UNL     1      -0.383  11.103  22.380  0.00  0.00    +0.000 C 
ATOM     24  N   UNL     1      -1.010  12.278  21.989  0.00  0.00    +0.000 N 
ATOM     25  H   UNL     1      -0.744  12.660  21.084  0.00  0.00    +0.000 HD
BRANCH  24  26
ATOM     26  C   UNL     1      -2.032  12.956  22.690  0.00  0.00    +0.000 A 
ATOM     27  C   UNL     1      -1.783  13.928  23.665  0.00  0.00    +0.000 A 
ATOM     28  C   UNL     1      -2.835  14.550  24.345  0.00  0.00    +0.000 A 
ATOM     29  C   UNL     1      -4.152  14.200  24.059  0.00  0.00    +0.000 A 
ATOM     30  C   UNL     1      -4.408  13.248  23.077  0.00  0.00    +0.000 A 
ATOM     31 CL   UNL     1      -6.035  12.809  22.725  0.00  0.00    +0.000 Cl
ATOM     32  C   UNL     1      -3.360  12.637  22.382  0.00  0.00    +0.000 A 
ENDBRANCH  24  26
ENDBRANCH  21  23
ENDBRANCH  20  21
ENDBRANCH  18  20
ENDBRANCH   1  18
TORSDOF 6
ENDMDL
MODEL 8
REMARK VINA RESULT:      -9.0      1.705      3.628
REMARK  Name = 
REMARK  6 active torsions:
REMARK  status: ('A' for Active; 'I' for Inactive)
REMARK    1  A    between atoms: C_2  and  C_3
REMARK    2  A    between atoms: C_3  and  O_4
REMARK    3  A    between atoms: O_4  and  C_5
REMARK    4  A    between atoms: C_5  and  C_7
REMARK    5  A    between atoms: C_10  and  N_11
REMARK    6  A    between atoms: N_24  and  C_25
REMARK                            x       y       z     vdW  Elec       q    Type
REMARK                         _______ _______ _______ _____ _____    ______ ____
ROOT
ATOM      1  C   UNL     1       2.016   6.821  19.417  0.00  0.00    +0.000 A 
ATOM      2  C   UNL     1       2.672   7.103  18.216  0.00  0.00    +0.000 A 
ATOM      3  C   UNL     1       3.243   6.067  17.471  0.00  0.00    +0.000 A 
ATOM      4  C   UNL     1       3.248   4.753  17.979  0.00  0.00    +0.000 A 
ATOM      5  C   UNL     1       2.412   4.455  19.064  0.00  0.00    +0.000 A 
ATOM      6  C   UNL     1       1.809   5.487  19.789  0.00  0.00    +0.000 A 
ENDROOT
BRANCH   4   7
ATOM      7  N   UNL     1       4.370   3.860  17.685  0.00  0.00    +0.000 N 
ATOM      8  C   UNL     1       5.256   3.782  18.754  0.00  0.00    +0.000 C 
ATOM      9  O   UNL     1       5.196   3.138  19.786  0.00  0.00    +0.000 OA
ATOM     10  C   UNL     1       6.328   4.729  18.443  0.00  0.00    +0.000 A 
ATOM     11  C   UNL     1       7.002   5.574  19.303  0.00  0.00    +0.000 A 
ATOM     12  C   UNL     1       7.627   6.689  18.734  0.00  0.00    +0.000 A 
ATOM     13  C   UNL     1       7.592   6.911  17.340  0.00  0.00    +0.000 A 
ATOM     14  C   UNL     1       6.913   6.032  16.489  0.00  0.00    +0.000 A 
ATOM     15  C   UNL     1       6.273   4.962  17.084  0.00  0.00    +0.000 A 
ATOM     16  C   UNL     1       5.129   4.202  16.578  0.00  0.00    +0.000 C 
ATOM     17  O   UNL     1       4.891   4.042  15.393  0.00  0.00    +0.000 OA
ENDBRANCH   4   7
BRANCH   1  18
ATOM     18  C   UNL     1       1.751   7.944  20.351  0.00  0.00    +0.000 C 
ATOM     19  O   UNL     1       1.707   7.824  21.567  0.00  0.00    +0.000 OA
BRANCH  18  20
ATOM     20  O   UNL     1       1.393   9.052  19.662  0.00  0.00    +0.000 OA
BRANCH  20  21
ATOM     21  C   UNL     1       0.834  10.099  20.457  0.00  0.00    +0.000 C 
BRANCH  21  23
ATOM     22  O   UNL     1      -0.151  12.092  19.560  0.00  0.00    +0.000 OA
ATOM     23  C   UNL     1      -0.190  10.865  19.619  0.00  0.00    +0.000 C 
ATOM     24  N   UNL     1      -1.098  10.048  18.961  0.00  0.00    +0.000 N 
ATOM     25  H   UNL     1      -1.065   9.056  19.181  0.00  0.00    +0.000 HD
BRANCH  24  26
ATOM     26  C   UNL     1      -2.112  10.468  18.070  0.00  0.00    +0.000 A 
ATOM     27  C   UNL     1      -3.198  11.259  18.457  0.00  0.00    +0.000 A 
ATOM     28  C   UNL     1      -4.185  11.624  17.536  0.00  0.00    +0.000 A 
ATOM     29  C   UNL     1      -4.099  11.196  16.215  0.00  0.00    +0.000 A 
ATOM     30  C   UNL     1      -3.010  10.425  15.818  0.00  0.00    +0.000 A 
ATOM     31 CL   UNL     1      -2.902   9.888  14.185  0.00  0.00    +0.000 Cl
ATOM     32  C   UNL     1      -2.012  10.072  16.731  0.00  0.00    +0.000 A 
ENDBRANCH  24  26
ENDBRANCH  21  23
ENDBRANCH  20  21
ENDBRANCH  18  20
ENDBRANCH   1  18
TORSDOF 6
ENDMDL
MODEL 9
REMARK VINA RESULT:      -9.0      1.900      2.400
REMARK  Name = 
REMARK  6 active torsions:
REMARK  status: ('A' for Active; 'I' for Inactive)
REMARK    1  A    between atoms: C_2  and  C_3
REMARK    2  A    between atoms: C_3  and  O_4
REMARK    3  A    between atoms: O_4  and  C_5
REMARK    4  A    between atoms: C_5  and  C_7
REMARK    5  A    between atoms: C_10  and  N_11
REMARK    6  A    between atoms: N_24  and  C_25
REMARK                            x       y       z     vdW  Elec       q    Type
REMARK                         _______ _______ _______ _____ _____    ______ ____
ROOT
ATOM      1  C   UNL     1       1.690   8.691  19.170  0.00  0.00    +0.000 A 
ATOM      2  C   UNL     1       1.919   7.664  20.091  0.00  0.00    +0.000 A 
ATOM      3  C   UNL     1       2.624   6.522  19.703  0.00  0.00    +0.000 A 
ATOM      4  C   UNL     1       3.016   6.357  18.360  0.00  0.00    +0.000 A 
ATOM      5  C   UNL     1       2.970   7.472  17.511  0.00  0.00    +0.000 A 
ATOM      6  C   UNL     1       2.297   8.630  17.910  0.00  0.00    +0.000 A 
ENDROOT
BRANCH   4   7
ATOM      7  N   UNL     1       3.053   5.019  17.768  0.00  0.00    +0.000 N 
ATOM      8  C   UNL     1       1.809   4.402  17.819  0.00  0.00    +0.000 C 
ATOM      9  O   UNL     1       0.829   4.537  17.108  0.00  0.00    +0.000 OA
ATOM     10  C   UNL     1       1.846   3.544  19.005  0.00  0.00    +0.000 A 
ATOM     11  C   UNL     1       0.840   3.300  19.919  0.00  0.00    +0.000 A 
ATOM     12  C   UNL     1       1.230   2.846  21.183  0.00  0.00    +0.000 A 
ATOM     13  C   UNL     1       2.590   2.620  21.488  0.00  0.00    +0.000 A 
ATOM     14  C   UNL     1       3.589   2.863  20.539  0.00  0.00    +0.000 A 
ATOM     15  C   UNL     1       3.177   3.347  19.313  0.00  0.00    +0.000 A 
ATOM     16  C   UNL     1       3.947   4.135  18.350  0.00  0.00    +0.000 C 
ATOM     17  O   UNL     1       5.158   4.057  18.223  0.00  0.00    +0.000 OA
ENDBRANCH   4   7
BRANCH   1  18
ATOM     18  C   UNL     1       0.646   9.698  19.489  0.00  0.00    +0.000 C 
ATOM     19  O   UNL     1       0.481  10.180  20.601  0.00  0.00    +0.000 OA
BRANCH  18  20
ATOM     20  O   UNL     1      -0.188   9.857  18.436  0.00  0.00    +0.000 OA
BRANCH  20  21
ATOM     21  C   UNL     1      -0.549  11.211  18.156  0.00  0.00    +0.000 C 
BRANCH  21  23
ATOM     22  O   UNL     1      -2.213  11.931  19.724  0.00  0.00    +0.000 OA
ATOM     23  C   UNL     1      -1.988  11.445  18.619  0.00  0.00    +0.000 C 
ATOM     24  N   UNL     1      -2.944  11.079  17.682  0.00  0.00    +0.000 N 
ATOM     25  H   UNL     1      -2.610  10.601  16.848  0.00  0.00    +0.000 HD
BRANCH  24  26
ATOM     26  C   UNL     1      -4.343  11.238  17.805  0.00  0.00    +0.000 A 
ATOM     27  C   UNL     1      -5.064  12.244  17.152  0.00  0.00    +0.000 A 
ATOM     28  C   UNL     1      -6.445  12.368  17.332  0.00  0.00    +0.000 A 
ATOM     29  C   UNL     1      -7.121  11.489  18.173  0.00  0.00    +0.000 A 
ATOM     30  C   UNL     1      -6.413  10.474  18.810  0.00  0.00    +0.000 A 
ATOM     31 CL   UNL     1      -7.245   9.388  19.856  0.00  0.00    +0.000 Cl
ATOM     32  C   UNL     1      -5.036  10.335  18.620  0.00  0.00    +0.000 A 
ENDBRANCH  24  26
ENDBRANCH  21  23
ENDBRANCH  20  21
ENDBRANCH  18  20
ENDBRANCH   1  18
TORSDOF 6
ENDMDL
