MODEL 1
REMARK VINA RESULT:      -8.6      0.000      0.000
REMARK  Name = 
REMARK  4 active torsions:
REMARK  status: ('A' for Active; 'I' for Inactive)
REMARK    1  A    between atoms: C_2  and  C_3
REMARK    2  A    between atoms: C_3  and  C_4
REMARK    3  A    between atoms: C_4  and  C_5
REMARK    4  A    between atoms: C_18  and  C_19
REMARK                            x       y       z     vdW  Elec       q    Type
REMARK                         _______ _______ _______ _____ _____    ______ ____
ROOT
ATOM      1  O   UNL     1       1.771   9.396  17.533  0.00  0.00    +0.000 OA
ATOM      2  C   UNL     1       1.861   8.802  18.604  0.00  0.00    +0.000 C 
ATOM      3  N   UNL     1       1.237   9.244  19.760  0.00  0.00    +0.000 N 
ATOM      4  C   UNL     1       1.246   8.590  21.056  0.00  0.00    +0.000 C 
ATOM      5  C   UNL     1      -0.213   8.621  21.467  0.00  0.00    +0.000 C 
ATOM      6  C   UNL     1      -0.698   9.971  20.945  0.00  0.00    +0.000 C 
ATOM      7  C   UNL     1       0.172  10.251  19.701  0.00  0.00    +0.000 C 
ENDROOT
BRANCH   7   8
ATOM      8  C   UNL     1       0.688  11.677  19.672  0.00  0.00    +0.000 A 
ATOM      9  C   UNL     1       0.389  12.504  18.575  0.00  0.00    +0.000 A 
ATOM     10  C   UNL     1       0.847  13.822  18.526  0.00  0.00    +0.000 A 
ATOM     11  C   UNL     1       1.643  14.317  19.554  0.00  0.00    +0.000 A 
ATOM     12  C   UNL     1       1.936  13.519  20.659  0.00  0.00    +0.000 A 
ATOM     13  C   UNL     1       1.443  12.217  20.730  0.00  0.00    +0.000 A 
ATOM     14  O   UNL     1       2.653  13.984  21.729  0.00  0.00    +0.000 OA
ATOM     15  C   UNL     1       4.011  14.249  21.366  0.00  0.00    +0.000 C 
ATOM     16  C   UNL     1       4.185  15.601  20.684  0.00  0.00    +0.000 C 
ATOM     17  C   UNL     1       3.504  15.640  19.324  0.00  0.00    +0.000 C 
ATOM     18  O   UNL     1       2.080  15.608  19.445  0.00  0.00    +0.000 OA
ENDBRANCH   7   8
BRANCH   2  19
ATOM     19  C   UNL     1       2.621   7.490  18.734  0.00  0.00    +0.000 C 
BRANCH  19  20
ATOM     20  C   UNL     1       3.477   7.161  17.513  0.00  0.00    +0.000 C 
BRANCH  20  21
ATOM     21  C   UNL     1       3.954   5.737  17.552  0.00  0.00    +0.000 A 
ATOM     22  C   UNL     1       5.245   5.296  17.332  0.00  0.00    +0.000 A 
ATOM     23  N   UNL     1       5.263   3.931  17.444  0.00  0.00    +0.000 N 
ATOM     24  C   UNL     1       4.001   3.461  17.721  0.00  0.00    +0.000 A 
ATOM     25  C   UNL     1       3.544   2.151  17.908  0.00  0.00    +0.000 A 
ATOM     26  C   UNL     1       2.188   1.968  18.181  0.00  0.00    +0.000 A 
ATOM     27  C   UNL     1       1.321   3.055  18.262  0.00  0.00    +0.000 A 
ATOM     28  C   UNL     1       1.792   4.358  18.072  0.00  0.00    +0.000 A 
ATOM     29  C   UNL     1       3.158   4.571  17.799  0.00  0.00    +0.000 A 
ATOM     30  H   UNL     1       6.082   3.346  17.335  0.00  0.00    +0.000 HD
ENDBRANCH  20  21
ENDBRANCH  19  20
ENDBRANCH   2  19
TORSDOF 4
ENDMDL
MODEL 2
REMARK VINA RESULT:      -8.4      5.355      9.733
REMARK  Name = 
REMARK  4 active torsions:
REMARK  status: ('A' for Active; 'I' for Inactive)
REMARK    1  A    between atoms: C_2  and  C_3
REMARK    2  A    between atoms: C_3  and  C_4
REMARK    3  A    between atoms: C_4  and  C_5
REMARK    4  A    between atoms: C_18  and  C_19
REMARK                            x       y       z     vdW  Elec       q    Type
REMARK                         _______ _______ _______ _____ _____    ______ ____
ROOT
ATOM      1  O   UNL     1       5.488   8.068  17.644  0.00  0.00    +0.000 OA
ATOM      2  C   UNL     1       6.465   7.348  17.459  0.00  0.00    +0.000 C 
ATOM      3  N   UNL     1       6.359   6.060  16.958  0.00  0.00    +0.000 N 
ATOM      4  C   UNL     1       7.453   5.152  16.662  0.00  0.00    +0.000 C 
ATOM      5  C   UNL     1       7.103   4.630  15.283  0.00  0.00    +0.000 C 
ATOM      6  C   UNL     1       5.582   4.506  15.328  0.00  0.00    +0.000 C 
ATOM      7  C   UNL     1       5.124   5.602  16.314  0.00  0.00    +0.000 C 
ENDROOT
BRANCH   7   8
ATOM      8  C   UNL     1       4.083   5.093  17.294  0.00  0.00    +0.000 A 
ATOM      9  C   UNL     1       2.951   5.876  17.576  0.00  0.00    +0.000 A 
ATOM     10  C   UNL     1       1.975   5.429  18.469  0.00  0.00    +0.000 A 
ATOM     11  C   UNL     1       2.140   4.211  19.121  0.00  0.00    +0.000 A 
ATOM     12  C   UNL     1       3.247   3.412  18.842  0.00  0.00    +0.000 A 
ATOM     13  C   UNL     1       4.200   3.837  17.917  0.00  0.00    +0.000 A 
ATOM     14  O   UNL     1       3.416   2.174  19.402  0.00  0.00    +0.000 OA
ATOM     15  C   UNL     1       3.648   2.269  20.810  0.00  0.00    +0.000 C 
ATOM     16  C   UNL     1       2.361   2.436  21.608  0.00  0.00    +0.000 C 
ATOM     17  C   UNL     1       1.690   3.773  21.329  0.00  0.00    +0.000 C 
ATOM     18  O   UNL     1       1.164   3.832  20.001  0.00  0.00    +0.000 OA
ENDBRANCH   7   8
BRANCH   2  19
ATOM     19  C   UNL     1       7.883   7.838  17.708  0.00  0.00    +0.000 C 
BRANCH  19  20
ATOM     20  C   UNL     1       8.067   9.330  17.440  0.00  0.00    +0.000 C 
BRANCH  20  21
ATOM     21  C   UNL     1       8.828   9.991  18.553  0.00  0.00    +0.000 A 
ATOM     22  C   UNL     1       8.981   9.516  19.842  0.00  0.00    +0.000 A 
ATOM     23  N   UNL     1       9.730  10.416  20.551  0.00  0.00    +0.000 N 
ATOM     24  C   UNL     1      10.063  11.487  19.757  0.00  0.00    +0.000 A 
ATOM     25  C   UNL     1      10.802  12.639  20.054  0.00  0.00    +0.000 A 
ATOM     26  C   UNL     1      10.985  13.575  19.036  0.00  0.00    +0.000 A 
ATOM     27  C   UNL     1      10.448  13.366  17.768  0.00  0.00    +0.000 A 
ATOM     28  C   UNL     1       9.711  12.211  17.487  0.00  0.00    +0.000 A 
ATOM     29  C   UNL     1       9.515  11.248  18.496  0.00  0.00    +0.000 A 
ATOM     30  H   UNL     1       9.999  10.315  21.522  0.00  0.00    +0.000 HD
ENDBRANCH  20  21
ENDBRANCH  19  20
ENDBRANCH   2  19
TORSDOF 4
ENDMDL
MODEL 3
REMARK VINA RESULT:      -8.4      2.986      5.596
REMARK  Name = 
REMARK  4 active torsions:
REMARK  status: ('A' for Active; 'I' for Inactive)
REMARK    1  A    between atoms: C_2  and  C_3
REMARK    2  A    between atoms: C_3  and  C_4
REMARK    3  A    between atoms: C_4  and  C_5
REMARK    4  A    between atoms: C_18  and  C_19
REMARK                            x       y       z     vdW  Elec       q    Type
REMARK                         _______ _______ _______ _____ _____    ______ ____
ROOT
ATOM      1  O   UNL     1       5.106   7.424  17.397  0.00  0.00    +0.000 OA
ATOM      2  C   UNL     1       5.186   6.341  17.971  0.00  0.00    +0.000 C 
ATOM      3  N   UNL     1       4.079   5.684  18.484  0.00  0.00    +0.000 N 
ATOM      4  C   UNL     1       4.064   4.385  19.133  0.00  0.00    +0.000 C 
ATOM      5  C   UNL     1       2.908   3.676  18.457  0.00  0.00    +0.000 C 
ATOM      6  C   UNL     1       1.883   4.788  18.250  0.00  0.00    +0.000 C 
ATOM      7  C   UNL     1       2.722   6.074  18.087  0.00  0.00    +0.000 C 
ENDROOT
BRANCH   7   8
ATOM      8  C   UNL     1       2.163   7.229  18.896  0.00  0.00    +0.000 A 
ATOM      9  C   UNL     1       1.955   7.075  20.277  0.00  0.00    +0.000 A 
ATOM     10  C   UNL     1       1.447   8.124  21.046  0.00  0.00    +0.000 A 
ATOM     11  C   UNL     1       1.102   9.326  20.436  0.00  0.00    +0.000 A 
ATOM     12  C   UNL     1       1.316   9.504  19.070  0.00  0.00    +0.000 A 
ATOM     13  C   UNL     1       1.865   8.472  18.309  0.00  0.00    +0.000 A 
ATOM     14  O   UNL     1       1.061  10.692  18.438  0.00  0.00    +0.000 OA
ATOM     15  C   UNL     1      -0.340  10.974  18.411  0.00  0.00    +0.000 C 
ATOM     16  C   UNL     1      -0.843  11.581  19.716  0.00  0.00    +0.000 C 
ATOM     17  C   UNL     1      -0.764  10.590  20.868  0.00  0.00    +0.000 C 
ATOM     18  O   UNL     1       0.589  10.312  21.234  0.00  0.00    +0.000 OA
ENDBRANCH   7   8
BRANCH   2  19
ATOM     19  C   UNL     1       6.508   5.601  18.110  0.00  0.00    +0.000 C 
BRANCH  19  20
ATOM     20  C   UNL     1       7.355   5.625  16.840  0.00  0.00    +0.000 C 
BRANCH  20  21
ATOM     21  C   UNL     1       6.774   4.729  15.783  0.00  0.00    +0.000 A 
ATOM     22  C   UNL     1       5.898   3.680  15.984  0.00  0.00    +0.000 A 
ATOM     23  N   UNL     1       5.619   3.108  14.772  0.00  0.00    +0.000 N 
ATOM     24  C   UNL     1       6.308   3.753  13.773  0.00  0.00    +0.000 A 
ATOM     25  C   UNL     1       6.340   3.512  12.394  0.00  0.00    +0.000 A 
ATOM     26  C   UNL     1       7.142   4.338  11.607  0.00  0.00    +0.000 A 
ATOM     27  C   UNL     1       7.886   5.367  12.179  0.00  0.00    +0.000 A 
ATOM     28  C   UNL     1       7.845   5.596  13.558  0.00  0.00    +0.000 A 
ATOM     29  C   UNL     1       7.039   4.778  14.375  0.00  0.00    +0.000 A 
ATOM     30  H   UNL     1       5.000   2.320  14.626  0.00  0.00    +0.000 HD
ENDBRANCH  20  21
ENDBRANCH  19  20
ENDBRANCH   2  19
TORSDOF 4
ENDMDL
MODEL 4
REMARK VINA RESULT:      -8.4      3.750      8.974
REMARK  Name = 
REMARK  4 active torsions:
REMARK  status: ('A' for Active; 'I' for Inactive)
REMARK    1  A    between atoms: C_2  and  C_3
REMARK    2  A    between atoms: C_3  and  C_4
REMARK    3  A    between atoms: C_4  and  C_5
REMARK    4  A    between atoms: C_18  and  C_19
REMARK                            x       y       z     vdW  Elec       q    Type
REMARK                         _______ _______ _______ _____ _____    ______ ____
ROOT
ATOM      1  O   UNL     1       0.627  10.374  18.420  0.00  0.00    +0.000 OA
ATOM      2  C   UNL     1      -0.162  10.281  19.356  0.00  0.00    +0.000 C 
ATOM      3  N   UNL     1       0.110   9.530  20.490  0.00  0.00    +0.000 N 
ATOM      4  C   UNL     1      -0.734   9.396  21.664  0.00  0.00    +0.000 C 
ATOM      5  C   UNL     1       0.234   9.612  22.809  0.00  0.00    +0.000 C 
ATOM      6  C   UNL     1       1.515   8.941  22.321  0.00  0.00    +0.000 C 
ATOM      7  C   UNL     1       1.474   9.079  20.784  0.00  0.00    +0.000 C 
ENDROOT
BRANCH   7   8
ATOM      8  C   UNL     1       1.849   7.787  20.083  0.00  0.00    +0.000 A 
ATOM      9  C   UNL     1       2.379   7.830  18.781  0.00  0.00    +0.000 A 
ATOM     10  C   UNL     1       2.737   6.657  18.115  0.00  0.00    +0.000 A 
ATOM     11  C   UNL     1       2.533   5.424  18.727  0.00  0.00    +0.000 A 
ATOM     12  C   UNL     1       2.025   5.361  20.023  0.00  0.00    +0.000 A 
ATOM     13  C   UNL     1       1.708   6.534  20.706  0.00  0.00    +0.000 A 
ATOM     14  O   UNL     1       1.875   4.176  20.694  0.00  0.00    +0.000 OA
ATOM     15  C   UNL     1       0.861   3.366  20.093  0.00  0.00    +0.000 C 
ATOM     16  C   UNL     1       1.368   2.594  18.880  0.00  0.00    +0.000 C 
ATOM     17  C   UNL     1       1.724   3.522  17.728  0.00  0.00    +0.000 C 
ATOM     18  O   UNL     1       2.883   4.306  18.020  0.00  0.00    +0.000 OA
ENDBRANCH   7   8
BRANCH   2  19
ATOM     19  C   UNL     1      -1.482  11.035  19.373  0.00  0.00    +0.000 C 
BRANCH  19  20
ATOM     20  C   UNL     1      -1.778  11.772  18.069  0.00  0.00    +0.000 C 
BRANCH  20  21
ATOM     21  C   UNL     1      -3.195  11.546  17.626  0.00  0.00    +0.000 A 
ATOM     22  C   UNL     1      -3.606  11.059  16.400  0.00  0.00    +0.000 A 
ATOM     23  N   UNL     1      -4.975  11.015  16.387  0.00  0.00    +0.000 N 
ATOM     24  C   UNL     1      -5.476  11.481  17.579  0.00  0.00    +0.000 A 
ATOM     25  C   UNL     1      -6.801  11.626  18.008  0.00  0.00    +0.000 A 
ATOM     26  C   UNL     1      -7.018  12.133  19.290  0.00  0.00    +0.000 A 
ATOM     27  C   UNL     1      -5.948  12.482  20.111  0.00  0.00    +0.000 A 
ATOM     28  C   UNL     1      -4.631  12.331  19.668  0.00  0.00    +0.000 A 
ATOM     29  C   UNL     1      -4.384  11.818  18.379  0.00  0.00    +0.000 A 
ATOM     30  H   UNL     1      -5.541  10.693  15.612  0.00  0.00    +0.000 HD
ENDBRANCH  20  21
ENDBRANCH  19  20
ENDBRANCH   2  19
TORSDOF 4
ENDMDL
MODEL 5
REMARK VINA RESULT:      -8.4      1.389      1.440
REMARK  Name = 
REMARK  4 active torsions:
REMARK  status: ('A' for Active; 'I' for Inactive)
REMARK    1  A    between atoms: C_2  and  C_3
REMARK    2  A    between atoms: C_3  and  C_4
REMARK    3  A    between atoms: C_4  and  C_5
REMARK    4  A    between atoms: C_18  and  C_19
REMARK                            x       y       z     vdW  Elec       q    Type
REMARK                         _______ _______ _______ _____ _____    ______ ____
ROOT
ATOM      1  O   UNL     1       1.578   9.269  17.398  0.00  0.00    +0.000 OA
ATOM      2  C   UNL     1       1.857   8.758  18.480  0.00  0.00    +0.000 C 
ATOM      3  N   UNL     1       1.275   9.166  19.670  0.00  0.00    +0.000 N 
ATOM      4  C   UNL     1       1.504   8.597  20.987  0.00  0.00    +0.000 C 
ATOM      5  C   UNL     1       0.101   8.427  21.535  0.00  0.00    +0.000 C 
ATOM      6  C   UNL     1      -0.637   9.654  21.005  0.00  0.00    +0.000 C 
ATOM      7  C   UNL     1       0.064   9.992  19.672  0.00  0.00    +0.000 C 
ENDROOT
BRANCH   7   8
ATOM      8  C   UNL     1       0.343  11.477  19.531  0.00  0.00    +0.000 A 
ATOM      9  C   UNL     1      -0.408  12.243  18.623  0.00  0.00    +0.000 A 
ATOM     10  C   UNL     1      -0.176  13.612  18.478  0.00  0.00    +0.000 A 
ATOM     11  C   UNL     1       0.837  14.224  19.211  0.00  0.00    +0.000 A 
ATOM     12  C   UNL     1       1.581  13.485  20.128  0.00  0.00    +0.000 A 
ATOM     13  C   UNL     1       1.320  12.126  20.306  0.00  0.00    +0.000 A 
ATOM     14  O   UNL     1       2.538  14.055  20.924  0.00  0.00    +0.000 OA
ATOM     15  C   UNL     1       3.654  14.506  20.151  0.00  0.00    +0.000 C 
ATOM     16  C   UNL     1       3.409  15.863  19.501  0.00  0.00    +0.000 C 
ATOM     17  C   UNL     1       2.322  15.794  18.438  0.00  0.00    +0.000 C 
ATOM     18  O   UNL     1       1.034  15.563  19.014  0.00  0.00    +0.000 OA
ENDBRANCH   7   8
BRANCH   2  19
ATOM     19  C   UNL     1       2.824   7.589  18.591  0.00  0.00    +0.000 C 
BRANCH  19  20
ATOM     20  C   UNL     1       2.409   6.377  17.761  0.00  0.00    +0.000 C 
BRANCH  20  21
ATOM     21  C   UNL     1       3.102   5.132  18.236  0.00  0.00    +0.000 A 
ATOM     22  C   UNL     1       4.133   4.469  17.598  0.00  0.00    +0.000 A 
ATOM     23  N   UNL     1       4.475   3.374  18.345  0.00  0.00    +0.000 N 
ATOM     24  C   UNL     1       3.676   3.292  19.461  0.00  0.00    +0.000 A 
ATOM     25  C   UNL     1       3.657   2.346  20.492  0.00  0.00    +0.000 A 
ATOM     26  C   UNL     1       2.723   2.517  21.514  0.00  0.00    +0.000 A 
ATOM     27  C   UNL     1       1.839   3.593  21.503  0.00  0.00    +0.000 A 
ATOM     28  C   UNL     1       1.870   4.530  20.465  0.00  0.00    +0.000 A 
ATOM     29  C   UNL     1       2.807   4.383  19.422  0.00  0.00    +0.000 A 
ATOM     30  H   UNL     1       5.206   2.713  18.112  0.00  0.00    +0.000 HD
ENDBRANCH  20  21
ENDBRANCH  19  20
ENDBRANCH   2  19
TORSDOF 4
ENDMDL
MODEL 6
REMARK VINA RESULT:      -8.3      1.340      1.708
REMARK  Name = 
REMARK  4 active torsions:
REMARK  status: ('A' for Active; 'I' for Inactive)
REMARK    1  A    between atoms: C_2  and  C_3
REMARK    2  A    between atoms: C_3  and  C_4
REMARK    3  A    between atoms: C_4  and  C_5
REMARK    4  A    between atoms: C_18  and  C_19
REMARK                            x       y       z     vdW  Elec       q    Type
REMARK                         _______ _______ _______ _____ _____    ______ ____
ROOT
ATOM      1  O   UNL     1       1.776   9.080  17.254  0.00  0.00    +0.000 OA
ATOM      2  C   UNL     1       1.856   8.690  18.416  0.00  0.00    +0.000 C 
ATOM      3  N   UNL     1       1.252   9.357  19.471  0.00  0.00    +0.000 N 
ATOM      4  C   UNL     1       1.249   8.952  20.865  0.00  0.00    +0.000 C 
ATOM      5  C   UNL     1      -0.205   9.103  21.264  0.00  0.00    +0.000 C 
ATOM      6  C   UNL     1      -0.653  10.348  20.503  0.00  0.00    +0.000 C 
ATOM      7  C   UNL     1       0.217  10.368  19.228  0.00  0.00    +0.000 C 
ENDROOT
BRANCH   7   8
ATOM      8  C   UNL     1       0.776  11.748  18.937  0.00  0.00    +0.000 A 
ATOM      9  C   UNL     1       2.138  11.895  18.621  0.00  0.00    +0.000 A 
ATOM     10  C   UNL     1       2.677  13.153  18.343  0.00  0.00    +0.000 A 
ATOM     11  C   UNL     1       1.869  14.283  18.417  0.00  0.00    +0.000 A 
ATOM     12  C   UNL     1       0.513  14.157  18.712  0.00  0.00    +0.000 A 
ATOM     13  C   UNL     1      -0.036  12.896  18.946  0.00  0.00    +0.000 A 
ATOM     14  O   UNL     1      -0.338  15.230  18.724  0.00  0.00    +0.000 OA
ATOM     15  C   UNL     1      -0.031  16.121  19.799  0.00  0.00    +0.000 C 
ATOM     16  C   UNL     1       1.124  17.062  19.472  0.00  0.00    +0.000 C 
ATOM     17  C   UNL     1       2.440  16.312  19.326  0.00  0.00    +0.000 C 
ATOM     18  O   UNL     1       2.453  15.492  18.155  0.00  0.00    +0.000 OA
ENDBRANCH   7   8
BRANCH   2  19
ATOM     19  C   UNL     1       2.577   7.402  18.784  0.00  0.00    +0.000 C 
BRANCH  19  20
ATOM     20  C   UNL     1       3.444   6.848  17.657  0.00  0.00    +0.000 C 
BRANCH  20  21
ATOM     21  C   UNL     1       3.882   5.441  17.950  0.00  0.00    +0.000 A 
ATOM     22  C   UNL     1       5.183   4.981  18.015  0.00  0.00    +0.000 A 
ATOM     23  N   UNL     1       5.157   3.640  18.292  0.00  0.00    +0.000 N 
ATOM     24  C   UNL     1       3.857   3.202  18.395  0.00  0.00    +0.000 A 
ATOM     25  C   UNL     1       3.352   1.923  18.655  0.00  0.00    +0.000 A 
ATOM     26  C   UNL     1       1.966   1.768  18.704  0.00  0.00    +0.000 A 
ATOM     27  C   UNL     1       1.118   2.854  18.500  0.00  0.00    +0.000 A 
ATOM     28  C   UNL     1       1.638   4.126  18.241  0.00  0.00    +0.000 A 
ATOM     29  C   UNL     1       3.034   4.310  18.190  0.00  0.00    +0.000 A 
ATOM     30  H   UNL     1       5.972   3.049  18.400  0.00  0.00    +0.000 HD
ENDBRANCH  20  21
ENDBRANCH  19  20
ENDBRANCH   2  19
TORSDOF 4
ENDMDL
MODEL 7
REMARK VINA RESULT:      -8.3      3.389      4.587
REMARK  Name = 
REMARK  4 active torsions:
REMARK  status: ('A' for Active; 'I' for Inactive)
REMARK    1  A    between atoms: C_2  and  C_3
REMARK    2  A    between atoms: C_3  and  C_4
REMARK    3  A    between atoms: C_4  and  C_5
REMARK    4  A    between atoms: C_18  and  C_19
REMARK                            x       y       z     vdW  Elec       q    Type
REMARK                         _______ _______ _______ _____ _____    ______ ____
ROOT
ATOM      1  O   UNL     1       0.342   9.115  21.433  0.00  0.00    +0.000 OA
ATOM      2  C   UNL     1       0.807   9.494  20.361  0.00  0.00    +0.000 C 
ATOM      3  N   UNL     1       0.779  10.821  19.962  0.00  0.00    +0.000 N 
ATOM      4  C   UNL     1       1.341  11.372  18.741  0.00  0.00    +0.000 C 
ATOM      5  C   UNL     1       2.099  12.589  19.230  0.00  0.00    +0.000 C 
ATOM      6  C   UNL     1       1.213  13.132  20.349  0.00  0.00    +0.000 C 
ATOM      7  C   UNL     1       0.498  11.891  20.925  0.00  0.00    +0.000 C 
ENDROOT
BRANCH   7   8
ATOM      8  C   UNL     1      -0.983  12.133  21.145  0.00  0.00    +0.000 A 
ATOM      9  C   UNL     1      -1.787  12.555  20.071  0.00  0.00    +0.000 A 
ATOM     10  C   UNL     1      -3.154  12.781  20.245  0.00  0.00    +0.000 A 
ATOM     11  C   UNL     1      -3.726  12.626  21.503  0.00  0.00    +0.000 A 
ATOM     12  C   UNL     1      -2.950  12.192  22.577  0.00  0.00    +0.000 A 
ATOM     13  C   UNL     1      -1.594  11.924  22.394  0.00  0.00    +0.000 A 
ATOM     14  O   UNL     1      -3.482  11.954  23.816  0.00  0.00    +0.000 OA
ATOM     15  C   UNL     1      -3.927  13.167  24.430  0.00  0.00    +0.000 C 
ATOM     16  C   UNL     1      -5.304  13.603  23.941  0.00  0.00    +0.000 C 
ATOM     17  C   UNL     1      -5.282  14.005  22.474  0.00  0.00    +0.000 C 
ATOM     18  O   UNL     1      -5.065  12.880  21.620  0.00  0.00    +0.000 OA
ENDBRANCH   7   8
BRANCH   2  19
ATOM     19  C   UNL     1       1.509   8.539  19.407  0.00  0.00    +0.000 C 
BRANCH  19  20
ATOM     20  C   UNL     1       2.228   7.393  20.114  0.00  0.00    +0.000 C 
BRANCH  20  21
ATOM     21  C   UNL     1       2.562   6.287  19.154  0.00  0.00    +0.000 A 
ATOM     22  C   UNL     1       3.414   6.370  18.068  0.00  0.00    +0.000 A 
ATOM     23  N   UNL     1       3.437   5.152  17.441  0.00  0.00    +0.000 N 
ATOM     24  C   UNL     1       2.602   4.270  18.085  0.00  0.00    +0.000 A 
ATOM     25  C   UNL     1       2.304   2.933  17.798  0.00  0.00    +0.000 A 
ATOM     26  C   UNL     1       1.406   2.272  18.637  0.00  0.00    +0.000 A 
ATOM     27  C   UNL     1       0.827   2.926  19.722  0.00  0.00    +0.000 A 
ATOM     28  C   UNL     1       1.135   4.263  19.996  0.00  0.00    +0.000 A 
ATOM     29  C   UNL     1       2.042   4.952  19.167  0.00  0.00    +0.000 A 
ATOM     30  H   UNL     1       3.983   4.930  16.619  0.00  0.00    +0.000 HD
ENDBRANCH  20  21
ENDBRANCH  19  20
ENDBRANCH   2  19
TORSDOF 4
ENDMDL
MODEL 8
REMARK VINA RESULT:      -8.3      3.512      5.215
REMARK  Name = 
REMARK  4 active torsions:
REMARK  status: ('A' for Active; 'I' for Inactive)
REMARK    1  A    between atoms: C_2  and  C_3
REMARK    2  A    between atoms: C_3  and  C_4
REMARK    3  A    between atoms: C_4  and  C_5
REMARK    4  A    between atoms: C_18  and  C_19
REMARK                            x       y       z     vdW  Elec       q    Type
REMARK                         _______ _______ _______ _____ _____    ______ ____
ROOT
ATOM      1  O   UNL     1      -0.409   9.166  21.168  0.00  0.00    +0.000 OA
ATOM      2  C   UNL     1       0.362   9.675  20.360  0.00  0.00    +0.000 C 
ATOM      3  N   UNL     1       0.401  11.040  20.122  0.00  0.00    +0.000 N 
ATOM      4  C   UNL     1       1.304  11.739  19.225  0.00  0.00    +0.000 C 
ATOM      5  C   UNL     1       1.799  12.897  20.069  0.00  0.00    +0.000 C 
ATOM      6  C   UNL     1       0.569  13.292  20.883  0.00  0.00    +0.000 C 
ATOM      7  C   UNL     1      -0.233  11.984  21.049  0.00  0.00    +0.000 C 
ENDROOT
BRANCH   7   8
ATOM      8  C   UNL     1      -1.715  12.183  20.790  0.00  0.00    +0.000 A 
ATOM      9  C   UNL     1      -2.554  12.600  21.837  0.00  0.00    +0.000 A 
ATOM     10  C   UNL     1      -3.921  12.797  21.625  0.00  0.00    +0.000 A 
ATOM     11  C   UNL     1      -4.470  12.539  20.373  0.00  0.00    +0.000 A 
ATOM     12  C   UNL     1      -3.652  12.141  19.317  0.00  0.00    +0.000 A 
ATOM     13  C   UNL     1      -2.280  11.987  19.517  0.00  0.00    +0.000 A 
ATOM     14  O   UNL     1      -4.133  11.947  18.050  0.00  0.00    +0.000 OA
ATOM     15  C   UNL     1      -5.010  10.818  17.997  0.00  0.00    +0.000 C 
ATOM     16  C   UNL     1      -6.423  11.149  18.464  0.00  0.00    +0.000 C 
ATOM     17  C   UNL     1      -6.464  11.485  19.948  0.00  0.00    +0.000 C 
ATOM     18  O   UNL     1      -5.817  12.729  20.226  0.00  0.00    +0.000 OA
ENDBRANCH   7   8
BRANCH   2  19
ATOM     19  C   UNL     1       1.385   8.849  19.594  0.00  0.00    +0.000 C 
BRANCH  19  20
ATOM     20  C   UNL     1       1.900   7.644  20.376  0.00  0.00    +0.000 C 
BRANCH  20  21
ATOM     21  C   UNL     1       2.291   6.525  19.453  0.00  0.00    +0.000 A 
ATOM     22  C   UNL     1       3.031   6.638  18.291  0.00  0.00    +0.000 A 
ATOM     23  N   UNL     1       3.158   5.393  17.734  0.00  0.00    +0.000 N 
ATOM     24  C   UNL     1       2.500   4.461  18.500  0.00  0.00    +0.000 A 
ATOM     25  C   UNL     1       2.352   3.081  18.317  0.00  0.00    +0.000 A 
ATOM     26  C   UNL     1       1.620   2.373  19.271  0.00  0.00    +0.000 A 
ATOM     27  C   UNL     1       1.055   3.022  20.366  0.00  0.00    +0.000 A 
ATOM     28  C   UNL     1       1.211   4.402  20.535  0.00  0.00    +0.000 A 
ATOM     29  C   UNL     1       1.949   5.140  19.588  0.00  0.00    +0.000 A 
ATOM     30  H   UNL     1       3.657   5.184  16.879  0.00  0.00    +0.000 HD
ENDBRANCH  20  21
ENDBRANCH  19  20
ENDBRANCH   2  19
TORSDOF 4
ENDMDL
MODEL 9
REMARK VINA RESULT:      -8.3      1.342      2.455
REMARK  Name = 
REMARK  4 active torsions:
REMARK  status: ('A' for Active; 'I' for Inactive)
REMARK    1  A    between atoms: C_2  and  C_3
REMARK    2  A    between atoms: C_3  and  C_4
REMARK    3  A    between atoms: C_4  and  C_5
REMARK    4  A    between atoms: C_18  and  C_19
REMARK                            x       y       z     vdW  Elec       q    Type
REMARK                         _______ _______ _______ _____ _____    ______ ____
ROOT
ATOM      1  O   UNL     1       1.931   8.577  18.209  0.00  0.00    +0.000 OA
ATOM      2  C   UNL     1       1.848   8.213  19.379  0.00  0.00    +0.000 C 
ATOM      3  N   UNL     1       1.249   8.988  20.361  0.00  0.00    +0.000 N 
ATOM      4  C   UNL     1       1.061   8.628  21.755  0.00  0.00    +0.000 C 
ATOM      5  C   UNL     1      -0.388   8.991  22.011  0.00  0.00    +0.000 C 
ATOM      6  C   UNL     1      -0.584  10.264  21.191  0.00  0.00    +0.000 C 
ATOM      7  C   UNL     1       0.395  10.125  20.005  0.00  0.00    +0.000 C 
ENDROOT
BRANCH   7   8
ATOM      8  C   UNL     1       1.167  11.406  19.747  0.00  0.00    +0.000 A 
ATOM      9  C   UNL     1       1.477  11.777  18.427  0.00  0.00    +0.000 A 
ATOM     10  C   UNL     1       2.182  12.953  18.161  0.00  0.00    +0.000 A 
ATOM     11  C   UNL     1       2.619  13.751  19.213  0.00  0.00    +0.000 A 
ATOM     12  C   UNL     1       2.307  13.409  20.528  0.00  0.00    +0.000 A 
ATOM     13  C   UNL     1       1.566  12.257  20.792  0.00  0.00    +0.000 A 
ATOM     14  O   UNL     1       2.652  14.198  21.592  0.00  0.00    +0.000 OA
ATOM     15  C   UNL     1       4.070  14.230  21.775  0.00  0.00    +0.000 C 
ATOM     16  C   UNL     1       4.762  15.216  20.841  0.00  0.00    +0.000 C 
ATOM     17  C   UNL     1       4.662  14.782  19.385  0.00  0.00    +0.000 C 
ATOM     18  O   UNL     1       3.323  14.880  18.896  0.00  0.00    +0.000 OA
ENDBRANCH   7   8
BRANCH   2  19
ATOM     19  C   UNL     1       2.343   6.849  19.834  0.00  0.00    +0.000 C 
BRANCH  19  20
ATOM     20  C   UNL     1       2.385   5.813  18.714  0.00  0.00    +0.000 C 
BRANCH  20  21
ATOM     21  C   UNL     1       3.717   5.121  18.664  0.00  0.00    +0.000 A 
ATOM     22  C   UNL     1       4.006   3.858  19.144  0.00  0.00    +0.000 A 
ATOM     23  N   UNL     1       5.332   3.601  18.920  0.00  0.00    +0.000 N 
ATOM     24  C   UNL     1       5.929   4.680  18.314  0.00  0.00    +0.000 A 
ATOM     25  C   UNL     1       7.256   4.872  17.910  0.00  0.00    +0.000 A 
ATOM     26  C   UNL     1       7.584   6.088  17.310  0.00  0.00    +0.000 A 
ATOM     27  C   UNL     1       6.620   7.076  17.123  0.00  0.00    +0.000 A 
ATOM     28  C   UNL     1       5.299   6.870  17.531  0.00  0.00    +0.000 A 
ATOM     29  C   UNL     1       4.940   5.649  18.136  0.00  0.00    +0.000 A 
ATOM     30  H   UNL     1       5.811   2.744  19.168  0.00  0.00    +0.000 HD
ENDBRANCH  20  21
ENDBRANCH  19  20
ENDBRANCH   2  19
TORSDOF 4
ENDMDL
