MODEL 1
REMARK VINA RESULT:      -8.0      0.000      0.000
REMARK  Name = 
REMARK  4 active torsions:
REMARK  status: ('A' for Active; 'I' for Inactive)
REMARK    1  A    between atoms: C_4  and  C_5
REMARK    2  A    between atoms: N_12  and  C_13
REMARK    3  A    between atoms: C_13  and  C_14
REMARK    4  A    between atoms: C_18  and  C_19
REMARK                            x       y       z     vdW  Elec       q    Type
REMARK                         _______ _______ _______ _____ _____    ______ ____
ROOT
ATOM      1  C   UNL     1       1.251  14.604  19.674  0.00  0.00    +0.000 A 
ATOM      2  N   UNL     1       1.910  14.504  20.819  0.00  0.00    +0.000 NA
ATOM      3  N   UNL     1       1.687  13.259  21.361  0.00  0.00    +0.000 NA
ATOM      4  C   UNL     1       0.907  12.602  20.536  0.00  0.00    +0.000 A 
ATOM      5  N   UNL     1       0.578  13.423  19.484  0.00  0.00    +0.000 N 
ATOM      6  C   UNL     1      -0.172  12.947  18.340  0.00  0.00    +0.000 C 
ATOM      7  C   UNL     1      -0.834  11.588  18.620  0.00  0.00    +0.000 C 
ATOM      8  N   UNL     1       0.029  10.618  19.323  0.00  0.00    +0.000 NA
ATOM      9  C   UNL     1       0.425  11.193  20.633  0.00  0.00    +0.000 C 
ENDROOT
BRANCH   1  13
ATOM     10  C   UNL     1       1.412  17.982  17.044  0.00  0.00    +0.000 A 
ATOM     11  C   UNL     1       0.236  17.655  17.714  0.00  0.00    +0.000 A 
ATOM     12  C   UNL     1       0.204  16.548  18.566  0.00  0.00    +0.000 A 
ATOM     13  C   UNL     1       1.341  15.747  18.762  0.00  0.00    +0.000 A 
ATOM     14  C   UNL     1       2.504  16.070  18.047  0.00  0.00    +0.000 A 
ATOM     15  C   UNL     1       2.544  17.189  17.207  0.00  0.00    +0.000 A 
ENDBRANCH   1  13
BRANCH   8  16
ATOM     16  C   UNL     1       1.223  10.208  18.558  0.00  0.00    +0.000 C 
BRANCH  16  17
ATOM     17  C   UNL     1       1.764   8.847  18.944  0.00  0.00    +0.000 A 
ATOM     18  C   UNL     1       1.339   8.215  20.118  0.00  0.00    +0.000 A 
ATOM     19  C   UNL     1       1.843   6.964  20.463  0.00  0.00    +0.000 A 
ATOM     20  C   UNL     1       2.745   6.314  19.616  0.00  0.00    +0.000 A 
ATOM     21  C   UNL     1       3.163   6.895  18.407  0.00  0.00    +0.000 A 
ATOM     22  C   UNL     1       2.680   8.183  18.107  0.00  0.00    +0.000 A 
BRANCH  21  23
ATOM     23  C   UNL     1       3.988   6.132  17.448  0.00  0.00    +0.000 A 
ATOM     24  C   UNL     1       4.767   6.729  16.456  0.00  0.00    +0.000 A 
ATOM     25  C   UNL     1       5.400   5.924  15.510  0.00  0.00    +0.000 A 
ATOM     26  C   UNL     1       5.251   4.545  15.578  0.00  0.00    +0.000 A 
ATOM     27  C   UNL     1       4.491   4.024  16.607  0.00  0.00    +0.000 A 
ATOM     28  N   UNL     1       3.865   4.781  17.533  0.00  0.00    +0.000 NA
ENDBRANCH  21  23
ENDBRANCH  16  17
ENDBRANCH   8  16
TORSDOF 4
ENDMDL
MODEL 2
REMARK VINA RESULT:      -8.0      3.744      9.489
REMARK  Name = 
REMARK  4 active torsions:
REMARK  status: ('A' for Active; 'I' for Inactive)
REMARK    1  A    between atoms: C_4  and  C_5
REMARK    2  A    between atoms: N_12  and  C_13
REMARK    3  A    between atoms: C_13  and  C_14
REMARK    4  A    between atoms: C_18  and  C_19
REMARK                            x       y       z     vdW  Elec       q    Type
REMARK                         _______ _______ _______ _____ _____    ______ ____
ROOT
ATOM      1  C   UNL     1       2.514   6.630  19.527  0.00  0.00    +0.000 A 
ATOM      2  N   UNL     1       1.901   6.409  20.682  0.00  0.00    +0.000 NA
ATOM      3  N   UNL     1       1.143   7.510  21.008  0.00  0.00    +0.000 NA
ATOM      4  C   UNL     1       1.285   8.388  20.044  0.00  0.00    +0.000 A 
ATOM      5  N   UNL     1       2.169   7.892  19.115  0.00  0.00    +0.000 N 
ATOM      6  C   UNL     1       2.439   8.575  17.866  0.00  0.00    +0.000 C 
ATOM      7  C   UNL     1       1.927  10.025  17.890  0.00  0.00    +0.000 C 
ATOM      8  N   UNL     1       0.586  10.192  18.483  0.00  0.00    +0.000 NA
ATOM      9  C   UNL     1       0.623   9.717  19.889  0.00  0.00    +0.000 C 
ENDROOT
BRANCH   1  13
ATOM     10  C   UNL     1       4.956   3.744  17.512  0.00  0.00    +0.000 A 
ATOM     11  C   UNL     1       5.496   4.577  18.490  0.00  0.00    +0.000 A 
ATOM     12  C   UNL     1       4.683   5.513  19.134  0.00  0.00    +0.000 A 
ATOM     13  C   UNL     1       3.321   5.636  18.813  0.00  0.00    +0.000 A 
ATOM     14  C   UNL     1       2.807   4.816  17.798  0.00  0.00    +0.000 A 
ATOM     15  C   UNL     1       3.615   3.866  17.164  0.00  0.00    +0.000 A 
ENDBRANCH   1  13
BRANCH   8  16
ATOM     16  C   UNL     1      -0.493   9.515  17.738  0.00  0.00    +0.000 C 
BRANCH  16  17
ATOM     17  C   UNL     1      -1.783  10.305  17.669  0.00  0.00    +0.000 A 
ATOM     18  C   UNL     1      -2.607  10.230  16.540  0.00  0.00    +0.000 A 
ATOM     19  C   UNL     1      -3.792  10.960  16.486  0.00  0.00    +0.000 A 
ATOM     20  C   UNL     1      -4.185  11.739  17.578  0.00  0.00    +0.000 A 
ATOM     21  C   UNL     1      -3.408  11.807  18.747  0.00  0.00    +0.000 A 
ATOM     22  C   UNL     1      -2.189  11.102  18.755  0.00  0.00    +0.000 A 
BRANCH  21  23
ATOM     23  C   UNL     1      -3.910  12.503  19.949  0.00  0.00    +0.000 A 
ATOM     24  C   UNL     1      -3.089  13.205  20.833  0.00  0.00    +0.000 A 
ATOM     25  C   UNL     1      -3.633  13.709  22.013  0.00  0.00    +0.000 A 
ATOM     26  C   UNL     1      -4.981  13.512  22.283  0.00  0.00    +0.000 A 
ATOM     27  C   UNL     1      -5.738  12.835  21.346  0.00  0.00    +0.000 A 
ATOM     28  N   UNL     1      -5.236  12.334  20.197  0.00  0.00    +0.000 NA
ENDBRANCH  21  23
ENDBRANCH  16  17
ENDBRANCH   8  16
TORSDOF 4
ENDMDL
MODEL 3
REMARK VINA RESULT:      -8.0      1.443      2.149
REMARK  Name = 
REMARK  4 active torsions:
REMARK  status: ('A' for Active; 'I' for Inactive)
REMARK    1  A    between atoms: C_4  and  C_5
REMARK    2  A    between atoms: N_12  and  C_13
REMARK    3  A    between atoms: C_13  and  C_14
REMARK    4  A    between atoms: C_18  and  C_19
REMARK                            x       y       z     vdW  Elec       q    Type
REMARK                         _______ _______ _______ _____ _____    ______ ____
ROOT
ATOM      1  C   UNL     1       1.294  13.198  20.468  0.00  0.00    +0.000 A 
ATOM      2  N   UNL     1       0.776  13.386  21.674  0.00  0.00    +0.000 NA
ATOM      3  N   UNL     1       0.059  12.269  22.035  0.00  0.00    +0.000 NA
ATOM      4  C   UNL     1       0.156  11.402  21.056  0.00  0.00    +0.000 A 
ATOM      5  N   UNL     1       0.889  11.961  20.036  0.00  0.00    +0.000 N 
ATOM      6  C   UNL     1       1.278  11.205  18.863  0.00  0.00    +0.000 C 
ATOM      7  C   UNL     1       0.488   9.892  18.745  0.00  0.00    +0.000 C 
ATOM      8  N   UNL     1       0.333   9.152  20.013  0.00  0.00    +0.000 NA
ATOM      9  C   UNL     1      -0.388  10.014  20.984  0.00  0.00    +0.000 C 
ENDROOT
BRANCH   1  13
ATOM     10  C   UNL     1       4.058  15.878  18.589  0.00  0.00    +0.000 A 
ATOM     11  C   UNL     1       4.447  15.097  19.675  0.00  0.00    +0.000 A 
ATOM     12  C   UNL     1       3.530  14.231  20.275  0.00  0.00    +0.000 A 
ATOM     13  C   UNL     1       2.210  14.130  19.805  0.00  0.00    +0.000 A 
ATOM     14  C   UNL     1       1.827  14.954  18.736  0.00  0.00    +0.000 A 
ATOM     15  C   UNL     1       2.749  15.809  18.122  0.00  0.00    +0.000 A 
ENDBRANCH   1  13
BRANCH   8  16
ATOM     16  C   UNL     1       1.604   8.675  20.592  0.00  0.00    +0.000 C 
BRANCH  16  17
ATOM     17  C   UNL     1       1.971   7.261  20.193  0.00  0.00    +0.000 A 
ATOM     18  C   UNL     1       1.336   6.164  20.786  0.00  0.00    +0.000 A 
ATOM     19  C   UNL     1       1.681   4.867  20.412  0.00  0.00    +0.000 A 
ATOM     20  C   UNL     1       2.633   4.657  19.411  0.00  0.00    +0.000 A 
ATOM     21  C   UNL     1       3.261   5.732  18.760  0.00  0.00    +0.000 A 
ATOM     22  C   UNL     1       2.935   7.031  19.194  0.00  0.00    +0.000 A 
BRANCH  21  23
ATOM     23  C   UNL     1       4.144   5.501  17.598  0.00  0.00    +0.000 A 
ATOM     24  C   UNL     1       4.626   6.524  16.781  0.00  0.00    +0.000 A 
ATOM     25  C   UNL     1       5.337   6.197  15.627  0.00  0.00    +0.000 A 
ATOM     26  C   UNL     1       5.559   4.861  15.318  0.00  0.00    +0.000 A 
ATOM     27  C   UNL     1       5.079   3.905  16.191  0.00  0.00    +0.000 A 
ATOM     28  N   UNL     1       4.386   4.195  17.313  0.00  0.00    +0.000 NA
ENDBRANCH  21  23
ENDBRANCH  16  17
ENDBRANCH   8  16
TORSDOF 4
ENDMDL
MODEL 4
REMARK VINA RESULT:      -8.0      3.343      9.414
REMARK  Name = 
REMARK  4 active torsions:
REMARK  status: ('A' for Active; 'I' for Inactive)
REMARK    1  A    between atoms: C_4  and  C_5
REMARK    2  A    between atoms: N_12  and  C_13
REMARK    3  A    between atoms: C_13  and  C_14
REMARK    4  A    between atoms: C_18  and  C_19
REMARK                            x       y       z     vdW  Elec       q    Type
REMARK                         _______ _______ _______ _____ _____    ______ ____
ROOT
ATOM      1  C   UNL     1       2.560   6.678  19.236  0.00  0.00    +0.000 A 
ATOM      2  N   UNL     1       2.070   6.381  20.432  0.00  0.00    +0.000 NA
ATOM      3  N   UNL     1       1.375   7.465  20.917  0.00  0.00    +0.000 NA
ATOM      4  C   UNL     1       1.431   8.410  20.009  0.00  0.00    +0.000 A 
ATOM      5  N   UNL     1       2.199   7.971  18.955  0.00  0.00    +0.000 N 
ATOM      6  C   UNL     1       2.348   8.741  17.737  0.00  0.00    +0.000 C 
ATOM      7  C   UNL     1       1.872  10.192  17.920  0.00  0.00    +0.000 C 
ATOM      8  N   UNL     1       0.607  10.333  18.668  0.00  0.00    +0.000 NA
ATOM      9  C   UNL     1       0.785   9.755  20.023  0.00  0.00    +0.000 C 
ENDROOT
BRANCH   1  13
ATOM     10  C   UNL     1       4.517   3.846  16.686  0.00  0.00    +0.000 A 
ATOM     11  C   UNL     1       3.218   3.623  17.136  0.00  0.00    +0.000 A 
ATOM     12  C   UNL     1       2.598   4.557  17.969  0.00  0.00    +0.000 A 
ATOM     13  C   UNL     1       3.263   5.729  18.369  0.00  0.00    +0.000 A 
ATOM     14  C   UNL     1       4.584   5.916  17.937  0.00  0.00    +0.000 A 
ATOM     15  C   UNL     1       5.200   4.989  17.089  0.00  0.00    +0.000 A 
ENDBRANCH   1  13
BRANCH   8  16
ATOM     16  C   UNL     1      -0.560   9.727  17.998  0.00  0.00    +0.000 C 
BRANCH  16  17
ATOM     17  C   UNL     1      -1.852  10.490  18.203  0.00  0.00    +0.000 A 
ATOM     18  C   UNL     1      -2.977  10.217  17.415  0.00  0.00    +0.000 A 
ATOM     19  C   UNL     1      -4.160  10.923  17.613  0.00  0.00    +0.000 A 
ATOM     20  C   UNL     1      -4.244  11.880  18.628  0.00  0.00    +0.000 A 
ATOM     21  C   UNL     1      -3.152  12.153  19.469  0.00  0.00    +0.000 A 
ATOM     22  C   UNL     1      -1.951  11.464  19.214  0.00  0.00    +0.000 A 
BRANCH  21  23
ATOM     23  C   UNL     1      -3.301  13.047  20.635  0.00  0.00    +0.000 A 
ATOM     24  C   UNL     1      -2.456  14.129  20.890  0.00  0.00    +0.000 A 
ATOM     25  C   UNL     1      -2.589  14.829  22.089  0.00  0.00    +0.000 A 
ATOM     26  C   UNL     1      -3.564  14.444  23.000  0.00  0.00    +0.000 A 
ATOM     27  C   UNL     1      -4.384  13.384  22.664  0.00  0.00    +0.000 A 
ATOM     28  N   UNL     1      -4.275  12.688  21.513  0.00  0.00    +0.000 NA
ENDBRANCH  21  23
ENDBRANCH  16  17
ENDBRANCH   8  16
TORSDOF 4
ENDMDL
MODEL 5
REMARK VINA RESULT:      -7.9      1.777      3.054
REMARK  Name = 
REMARK  4 active torsions:
REMARK  status: ('A' for Active; 'I' for Inactive)
REMARK    1  A    between atoms: C_4  and  C_5
REMARK    2  A    between atoms: N_12  and  C_13
REMARK    3  A    between atoms: C_13  and  C_14
REMARK    4  A    between atoms: C_18  and  C_19
REMARK                            x       y       z     vdW  Elec       q    Type
REMARK                         _______ _______ _______ _____ _____    ______ ____
ROOT
ATOM      1  C   UNL     1       0.555  13.155  20.244  0.00  0.00    +0.000 A 
ATOM      2  N   UNL     1       1.054  12.897  21.445  0.00  0.00    +0.000 NA
ATOM      3  N   UNL     1       1.129  11.534  21.618  0.00  0.00    +0.000 NA
ATOM      4  C   UNL     1       0.691  10.970  20.519  0.00  0.00    +0.000 A 
ATOM      5  N   UNL     1       0.283  11.951  19.646  0.00  0.00    +0.000 N 
ATOM      6  C   UNL     1      -0.137  11.652  18.292  0.00  0.00    +0.000 C 
ATOM      7  C   UNL     1      -0.409  10.151  18.100  0.00  0.00    +0.000 C 
ATOM      8  N   UNL     1       0.594   9.262  18.716  0.00  0.00    +0.000 NA
ATOM      9  C   UNL     1       0.628   9.518  20.178  0.00  0.00    +0.000 C 
ENDROOT
BRANCH   1  13
ATOM     10  C   UNL     1       0.099  17.090  18.613  0.00  0.00    +0.000 A 
ATOM     11  C   UNL     1      -0.951  16.471  19.287  0.00  0.00    +0.000 A 
ATOM     12  C   UNL     1      -0.783  15.187  19.810  0.00  0.00    +0.000 A 
ATOM     13  C   UNL     1       0.433  14.497  19.668  0.00  0.00    +0.000 A 
ATOM     14  C   UNL     1       1.464  15.122  18.951  0.00  0.00    +0.000 A 
ATOM     15  C   UNL     1       1.303  16.415  18.442  0.00  0.00    +0.000 A 
ENDBRANCH   1  13
BRANCH   8  16
ATOM     16  C   UNL     1       1.947   9.387  18.139  0.00  0.00    +0.000 C 
BRANCH  16  17
ATOM     17  C   UNL     1       2.680   8.070  17.994  0.00  0.00    +0.000 A 
ATOM     18  C   UNL     1       3.804   7.964  17.168  0.00  0.00    +0.000 A 
ATOM     19  C   UNL     1       4.471   6.747  17.042  0.00  0.00    +0.000 A 
ATOM     20  C   UNL     1       4.044   5.636  17.774  0.00  0.00    +0.000 A 
ATOM     21  C   UNL     1       2.946   5.712  18.647  0.00  0.00    +0.000 A 
ATOM     22  C   UNL     1       2.257   6.938  18.716  0.00  0.00    +0.000 A 
BRANCH  21  23
ATOM     23  C   UNL     1       2.605   4.579  19.532  0.00  0.00    +0.000 A 
ATOM     24  C   UNL     1       1.412   4.495  20.251  0.00  0.00    +0.000 A 
ATOM     25  C   UNL     1       1.240   3.458  21.167  0.00  0.00    +0.000 A 
ATOM     26  C   UNL     1       2.254   2.524  21.339  0.00  0.00    +0.000 A 
ATOM     27  C   UNL     1       3.393   2.654  20.568  0.00  0.00    +0.000 A 
ATOM     28  N   UNL     1       3.585   3.649  19.678  0.00  0.00    +0.000 NA
ENDBRANCH  21  23
ENDBRANCH  16  17
ENDBRANCH   8  16
TORSDOF 4
ENDMDL
MODEL 6
REMARK VINA RESULT:      -7.9      4.422      7.103
REMARK  Name = 
REMARK  4 active torsions:
REMARK  status: ('A' for Active; 'I' for Inactive)
REMARK    1  A    between atoms: C_4  and  C_5
REMARK    2  A    between atoms: N_12  and  C_13
REMARK    3  A    between atoms: C_13  and  C_14
REMARK    4  A    between atoms: C_18  and  C_19
REMARK                            x       y       z     vdW  Elec       q    Type
REMARK                         _______ _______ _______ _____ _____    ______ ____
ROOT
ATOM      1  C   UNL     1       1.834   6.341  19.895  0.00  0.00    +0.000 A 
ATOM      2  N   UNL     1       1.514   5.917  21.109  0.00  0.00    +0.000 NA
ATOM      3  N   UNL     1       1.866   4.592  21.232  0.00  0.00    +0.000 NA
ATOM      4  C   UNL     1       2.412   4.221  20.099  0.00  0.00    +0.000 A 
ATOM      5  N   UNL     1       2.375   5.277  19.218  0.00  0.00    +0.000 N 
ATOM      6  C   UNL     1       3.014   5.220  17.920  0.00  0.00    +0.000 C 
ATOM      7  C   UNL     1       3.389   3.780  17.533  0.00  0.00    +0.000 C 
ATOM      8  N   UNL     1       3.988   2.987  18.624  0.00  0.00    +0.000 NA
ATOM      9  C   UNL     1       3.015   2.903  19.743  0.00  0.00    +0.000 C 
ENDROOT
BRANCH   1  13
ATOM     10  C   UNL     1       1.425  10.425  18.670  0.00  0.00    +0.000 A 
ATOM     11  C   UNL     1       0.902   9.989  19.885  0.00  0.00    +0.000 A 
ATOM     12  C   UNL     1       1.045   8.652  20.265  0.00  0.00    +0.000 A 
ATOM     13  C   UNL     1       1.707   7.728  19.440  0.00  0.00    +0.000 A 
ATOM     14  C   UNL     1       2.191   8.179  18.204  0.00  0.00    +0.000 A 
ATOM     15  C   UNL     1       2.065   9.521  17.828  0.00  0.00    +0.000 A 
ENDBRANCH   1  13
BRANCH   8  16
ATOM     16  C   UNL     1       5.283   3.505  19.105  0.00  0.00    +0.000 C 
BRANCH  16  17
ATOM     17  C   UNL     1       5.929   4.509  18.174  0.00  0.00    +0.000 A 
ATOM     18  C   UNL     1       6.556   5.654  18.681  0.00  0.00    +0.000 A 
ATOM     19  C   UNL     1       7.147   6.571  17.816  0.00  0.00    +0.000 A 
ATOM     20  C   UNL     1       7.154   6.332  16.439  0.00  0.00    +0.000 A 
ATOM     21  C   UNL     1       6.575   5.174  15.894  0.00  0.00    +0.000 A 
ATOM     22  C   UNL     1       5.937   4.289  16.784  0.00  0.00    +0.000 A 
BRANCH  21  23
ATOM     23  C   UNL     1       6.729   4.855  14.460  0.00  0.00    +0.000 A 
ATOM     24  C   UNL     1       5.973   3.884  13.801  0.00  0.00    +0.000 A 
ATOM     25  C   UNL     1       6.286   3.556  12.482  0.00  0.00    +0.000 A 
ATOM     26  C   UNL     1       7.336   4.207  11.848  0.00  0.00    +0.000 A 
ATOM     27  C   UNL     1       8.018   5.179  12.554  0.00  0.00    +0.000 A 
ATOM     28  N   UNL     1       7.738   5.513  13.831  0.00  0.00    +0.000 NA
ENDBRANCH  21  23
ENDBRANCH  16  17
ENDBRANCH   8  16
TORSDOF 4
ENDMDL
MODEL 7
REMARK VINA RESULT:      -7.8      3.760      9.506
REMARK  Name = 
REMARK  4 active torsions:
REMARK  status: ('A' for Active; 'I' for Inactive)
REMARK    1  A    between atoms: C_4  and  C_5
REMARK    2  A    between atoms: N_12  and  C_13
REMARK    3  A    between atoms: C_13  and  C_14
REMARK    4  A    between atoms: C_18  and  C_19
REMARK                            x       y       z     vdW  Elec       q    Type
REMARK                         _______ _______ _______ _____ _____    ______ ____
ROOT
ATOM      1  C   UNL     1       2.242   6.436  19.625  0.00  0.00    +0.000 A 
ATOM      2  N   UNL     1       1.708   6.351  20.835  0.00  0.00    +0.000 NA
ATOM      3  N   UNL     1       1.196   7.578  21.190  0.00  0.00    +0.000 NA
ATOM      4  C   UNL     1       1.407   8.399  20.190  0.00  0.00    +0.000 A 
ATOM      5  N   UNL     1       2.096   7.734  19.203  0.00  0.00    +0.000 N 
ATOM      6  C   UNL     1       2.371   8.335  17.915  0.00  0.00    +0.000 C 
ATOM      7  C   UNL     1       2.136   9.855  17.935  0.00  0.00    +0.000 C 
ATOM      8  N   UNL     1       0.909  10.277  18.638  0.00  0.00    +0.000 NA
ATOM      9  C   UNL     1       0.987   9.825  20.051  0.00  0.00    +0.000 C 
ENDROOT
BRANCH   1  13
ATOM     10  C   UNL     1       3.917   3.113  17.504  0.00  0.00    +0.000 A 
ATOM     11  C   UNL     1       4.664   3.801  18.457  0.00  0.00    +0.000 A 
ATOM     12  C   UNL     1       4.100   4.883  19.136  0.00  0.00    +0.000 A 
ATOM     13  C   UNL     1       2.784   5.300  18.876  0.00  0.00    +0.000 A 
ATOM     14  C   UNL     1       2.063   4.619  17.885  0.00  0.00    +0.000 A 
ATOM     15  C   UNL     1       2.619   3.523  17.215  0.00  0.00    +0.000 A 
ENDBRANCH   1  13
BRANCH   8  16
ATOM     16  C   UNL     1      -0.340   9.798  18.013  0.00  0.00    +0.000 C 
BRANCH  16  17
ATOM     17  C   UNL     1      -1.559  10.626  18.360  0.00  0.00    +0.000 A 
ATOM     18  C   UNL     1      -2.690  10.615  17.535  0.00  0.00    +0.000 A 
ATOM     19  C   UNL     1      -3.806  11.380  17.864  0.00  0.00    +0.000 A 
ATOM     20  C   UNL     1      -3.818  12.131  19.043  0.00  0.00    +0.000 A 
ATOM     21  C   UNL     1      -2.721  12.135  19.920  0.00  0.00    +0.000 A 
ATOM     22  C   UNL     1      -1.585  11.396  19.538  0.00  0.00    +0.000 A 
BRANCH  21  23
ATOM     23  C   UNL     1      -2.807  12.802  21.235  0.00  0.00    +0.000 A 
ATOM     24  C   UNL     1      -1.695  13.089  22.028  0.00  0.00    +0.000 A 
ATOM     25  C   UNL     1      -1.887  13.593  23.314  0.00  0.00    +0.000 A 
ATOM     26  C   UNL     1      -3.178  13.808  23.777  0.00  0.00    +0.000 A 
ATOM     27  C   UNL     1      -4.228  13.530  22.924  0.00  0.00    +0.000 A 
ATOM     28  N   UNL     1      -4.070  13.039  21.676  0.00  0.00    +0.000 NA
ENDBRANCH  21  23
ENDBRANCH  16  17
ENDBRANCH   8  16
TORSDOF 4
ENDMDL
MODEL 8
REMARK VINA RESULT:      -7.7      3.912      9.587
REMARK  Name = 
REMARK  4 active torsions:
REMARK  status: ('A' for Active; 'I' for Inactive)
REMARK    1  A    between atoms: C_4  and  C_5
REMARK    2  A    between atoms: N_12  and  C_13
REMARK    3  A    between atoms: C_13  and  C_14
REMARK    4  A    between atoms: C_18  and  C_19
REMARK                            x       y       z     vdW  Elec       q    Type
REMARK                         _______ _______ _______ _____ _____    ______ ____
ROOT
ATOM      1  C   UNL     1       2.479   6.836  19.550  0.00  0.00    +0.000 A 
ATOM      2  N   UNL     1       1.970   6.649  20.759  0.00  0.00    +0.000 NA
ATOM      3  N   UNL     1       1.181   7.727  21.088  0.00  0.00    +0.000 NA
ATOM      4  C   UNL     1       1.201   8.557  20.073  0.00  0.00    +0.000 A 
ATOM      5  N   UNL     1       2.037   8.055  19.103  0.00  0.00    +0.000 N 
ATOM      6  C   UNL     1       2.174   8.682  17.804  0.00  0.00    +0.000 C 
ATOM      7  C   UNL     1       1.588  10.103  17.794  0.00  0.00    +0.000 C 
ATOM      8  N   UNL     1       0.290  10.237  18.484  0.00  0.00    +0.000 NA
ATOM      9  C   UNL     1       0.460   9.841  19.905  0.00  0.00    +0.000 C 
ENDROOT
BRANCH   1  13
ATOM     10  C   UNL     1       4.914   3.989  17.472  0.00  0.00    +0.000 A 
ATOM     11  C   UNL     1       5.485   5.096  18.095  0.00  0.00    +0.000 A 
ATOM     12  C   UNL     1       4.674   6.014  18.767  0.00  0.00    +0.000 A 
ATOM     13  C   UNL     1       3.280   5.846  18.825  0.00  0.00    +0.000 A 
ATOM     14  C   UNL     1       2.721   4.747  18.157  0.00  0.00    +0.000 A 
ATOM     15  C   UNL     1       3.534   3.816  17.499  0.00  0.00    +0.000 A 
ENDBRANCH   1  13
BRANCH   8  16
ATOM     16  C   UNL     1      -0.806   9.468  17.862  0.00  0.00    +0.000 C 
BRANCH  16  17
ATOM     17  C   UNL     1      -2.049  10.285  17.580  0.00  0.00    +0.000 A 
ATOM     18  C   UNL     1      -2.530  10.428  16.273  0.00  0.00    +0.000 A 
ATOM     19  C   UNL     1      -3.674  11.182  16.025  0.00  0.00    +0.000 A 
ATOM     20  C   UNL     1      -4.373  11.764  17.086  0.00  0.00    +0.000 A 
ATOM     21  C   UNL     1      -3.949  11.608  18.416  0.00  0.00    +0.000 A 
ATOM     22  C   UNL     1      -2.760  10.887  18.635  0.00  0.00    +0.000 A 
BRANCH  21  23
ATOM     23  C   UNL     1      -4.781  12.091  19.537  0.00  0.00    +0.000 A 
ATOM     24  C   UNL     1      -6.095  11.675  19.756  0.00  0.00    +0.000 A 
ATOM     25  C   UNL     1      -6.847  12.292  20.756  0.00  0.00    +0.000 A 
ATOM     26  C   UNL     1      -6.272  13.300  21.518  0.00  0.00    +0.000 A 
ATOM     27  C   UNL     1      -4.957  13.636  21.264  0.00  0.00    +0.000 A 
ATOM     28  N   UNL     1      -4.208  13.058  20.301  0.00  0.00    +0.000 NA
ENDBRANCH  21  23
ENDBRANCH  16  17
ENDBRANCH   8  16
TORSDOF 4
ENDMDL
MODEL 9
REMARK VINA RESULT:      -7.7      1.895      3.026
REMARK  Name = 
REMARK  4 active torsions:
REMARK  status: ('A' for Active; 'I' for Inactive)
REMARK    1  A    between atoms: C_4  and  C_5
REMARK    2  A    between atoms: N_12  and  C_13
REMARK    3  A    between atoms: C_13  and  C_14
REMARK    4  A    between atoms: C_18  and  C_19
REMARK                            x       y       z     vdW  Elec       q    Type
REMARK                         _______ _______ _______ _____ _____    ______ ____
ROOT
ATOM      1  C   UNL     1       0.007  14.015  21.043  0.00  0.00    +0.000 A 
ATOM      2  N   UNL     1       0.017  14.185  22.358  0.00  0.00    +0.000 NA
ATOM      3  N   UNL     1      -0.269  12.987  22.970  0.00  0.00    +0.000 NA
ATOM      4  C   UNL     1      -0.435  12.090  22.028  0.00  0.00    +0.000 A 
ATOM      5  N   UNL     1      -0.310  12.702  20.803  0.00  0.00    +0.000 N 
ATOM      6  C   UNL     1      -0.318  11.953  19.563  0.00  0.00    +0.000 C 
ATOM      7  C   UNL     1      -0.833  10.519  19.768  0.00  0.00    +0.000 C 
ATOM      8  N   UNL     1      -0.306   9.844  20.971  0.00  0.00    +0.000 NA
ATOM      9  C   UNL     1      -0.698  10.628  22.169  0.00  0.00    +0.000 C 
ENDROOT
BRANCH   1  13
ATOM     10  C   UNL     1       1.196  16.997  18.207  0.00  0.00    +0.000 A 
ATOM     11  C   UNL     1       2.147  16.274  18.924  0.00  0.00    +0.000 A 
ATOM     12  C   UNL     1       1.739  15.307  19.845  0.00  0.00    +0.000 A 
ATOM     13  C   UNL     1       0.377  15.046  20.070  0.00  0.00    +0.000 A 
ATOM     14  C   UNL     1      -0.564  15.812  19.368  0.00  0.00    +0.000 A 
ATOM     15  C   UNL     1      -0.158  16.769  18.431  0.00  0.00    +0.000 A 
ENDBRANCH   1  13
BRANCH   8  16
ATOM     16  C   UNL     1       1.153   9.628  20.951  0.00  0.00    +0.000 C 
BRANCH  16  17
ATOM     17  C   UNL     1       1.606   8.568  19.969  0.00  0.00    +0.000 A 
ATOM     18  C   UNL     1       1.934   8.907  18.651  0.00  0.00    +0.000 A 
ATOM     19  C   UNL     1       2.349   7.925  17.756  0.00  0.00    +0.000 A 
ATOM     20  C   UNL     1       2.481   6.600  18.181  0.00  0.00    +0.000 A 
ATOM     21  C   UNL     1       2.204   6.226  19.507  0.00  0.00    +0.000 A 
ATOM     22  C   UNL     1       1.734   7.227  20.378  0.00  0.00    +0.000 A 
BRANCH  21  23
ATOM     23  C   UNL     1       2.499   4.859  19.983  0.00  0.00    +0.000 A 
ATOM     24  C   UNL     1       1.876   4.276  21.088  0.00  0.00    +0.000 A 
ATOM     25  C   UNL     1       2.321   3.037  21.546  0.00  0.00    +0.000 A 
ATOM     26  C   UNL     1       3.368   2.402  20.889  0.00  0.00    +0.000 A 
ATOM     27  C   UNL     1       3.913   3.025  19.784  0.00  0.00    +0.000 A 
ATOM     28  N   UNL     1       3.504   4.226  19.322  0.00  0.00    +0.000 NA
ENDBRANCH  21  23
ENDBRANCH  16  17
ENDBRANCH   8  16
TORSDOF 4
ENDMDL
