MODEL 1
REMARK VINA RESULT:      -8.4      0.000      0.000
REMARK  Name = 
REMARK  5 active torsions:
REMARK  status: ('A' for Active; 'I' for Inactive)
REMARK    1  A    between atoms: C_1  and  C_2
REMARK    2  A    between atoms: C_5  and  C_6
REMARK    3  A    between atoms: N_9  and  C_10
REMARK    4  A    between atoms: C_10  and  C_11
REMARK    5  A    between atoms: C_15  and  C_16
REMARK                            x       y       z     vdW  Elec       q    Type
REMARK                         _______ _______ _______ _____ _____    ______ ____
ROOT
ATOM      1  C   UNL     1       4.147   4.428  19.575  0.00  0.00    +0.000 A 
ATOM      2  C   UNL     1       3.838   3.137  19.969  0.00  0.00    +0.000 A 
ATOM      3  N   UNL     1       2.490   3.025  19.937  0.00  0.00    +0.000 N 
ATOM      4  N   UNL     1       1.873   4.157  19.598  0.00  0.00    +0.000 NA
ATOM      5  C   UNL     1       2.856   5.062  19.437  0.00  0.00    +0.000 A 
ATOM      6  H   UNL     1       1.922   2.208  20.129  0.00  0.00    +0.000 HD
ENDROOT
BRANCH   5   7
ATOM      7  C   UNL     1       2.500   6.467  19.191  0.00  0.00    +0.000 A 
ATOM      8  C   UNL     1       1.838   7.214  20.181  0.00  0.00    +0.000 A 
ATOM      9  F   UNL     1       1.524   6.674  21.369  0.00  0.00    +0.000 F 
ATOM     10  C   UNL     1       1.497   8.557  19.991  0.00  0.00    +0.000 A 
ATOM     11  C   UNL     1       1.829   9.200  18.805  0.00  0.00    +0.000 A 
ATOM     12  C   UNL     1       2.480   8.485  17.806  0.00  0.00    +0.000 A 
ATOM     13  C   UNL     1       2.790   7.134  17.996  0.00  0.00    +0.000 A 
ATOM     14  F   UNL     1       3.356   6.501  16.962  0.00  0.00    +0.000 F 
ENDBRANCH   5   7
BRANCH   1  15
ATOM     15  C   UNL     1       5.506   5.034  19.366  0.00  0.00    +0.000 C 
BRANCH  15  19
ATOM     16  C   UNL     1       6.077   5.394  16.209  0.00  0.00    +0.000 C 
ATOM     17  C   UNL     1       7.167   6.084  17.023  0.00  0.00    +0.000 C 
ATOM     18  C   UNL     1       7.561   5.050  18.068  0.00  0.00    +0.000 C 
ATOM     19  N   UNL     1       6.324   4.304  18.377  0.00  0.00    +0.000 NA
ATOM     20  C   UNL     1       5.657   4.192  17.060  0.00  0.00    +0.000 C 
BRANCH  16  25
ATOM     21  C   UNL     1       6.672   3.265  11.800  0.00  0.00    +0.000 C 
ATOM     22  C   UNL     1       6.858   4.116  12.987  0.00  0.00    +0.000 A 
ATOM     23  N   UNL     1       7.795   5.071  13.061  0.00  0.00    +0.000 NA
ATOM     24  O   UNL     1       7.587   5.624  14.326  0.00  0.00    +0.000 OA
ATOM     25  C   UNL     1       6.546   4.936  14.879  0.00  0.00    +0.000 A 
ATOM     26  N   UNL     1       6.065   3.997  14.096  0.00  0.00    +0.000 NA
ENDBRANCH  16  25
ENDBRANCH  15  19
ENDBRANCH   1  15
TORSDOF 4
ENDMDL
MODEL 2
REMARK VINA RESULT:      -8.3      0.300      1.679
REMARK  Name = 
REMARK  5 active torsions:
REMARK  status: ('A' for Active; 'I' for Inactive)
REMARK    1  A    between atoms: C_1  and  C_2
REMARK    2  A    between atoms: C_5  and  C_6
REMARK    3  A    between atoms: N_9  and  C_10
REMARK    4  A    between atoms: C_10  and  C_11
REMARK    5  A    between atoms: C_15  and  C_16
REMARK                            x       y       z     vdW  Elec       q    Type
REMARK                         _______ _______ _______ _____ _____    ______ ____
ROOT
ATOM      1  C   UNL     1       4.022   4.464  19.443  0.00  0.00    +0.000 A 
ATOM      2  C   UNL     1       3.654   3.144  19.643  0.00  0.00    +0.000 A 
ATOM      3  N   UNL     1       2.318   3.070  19.441  0.00  0.00    +0.000 N 
ATOM      4  N   UNL     1       1.758   4.249  19.169  0.00  0.00    +0.000 NA
ATOM      5  C   UNL     1       2.764   5.142  19.232  0.00  0.00    +0.000 A 
ATOM      6  H   UNL     1       1.722   2.251  19.467  0.00  0.00    +0.000 HD
ENDROOT
BRANCH   5   7
ATOM      7  C   UNL     1       2.455   6.575  19.113  0.00  0.00    +0.000 A 
ATOM      8  C   UNL     1       2.867   7.295  17.979  0.00  0.00    +0.000 A 
ATOM      9  F   UNL     1       3.536   6.702  16.979  0.00  0.00    +0.000 F 
ATOM     10  C   UNL     1       2.579   8.655  17.822  0.00  0.00    +0.000 A 
ATOM     11  C   UNL     1       1.850   9.331  18.792  0.00  0.00    +0.000 A 
ATOM     12  C   UNL     1       1.435   8.644  19.927  0.00  0.00    +0.000 A 
ATOM     13  C   UNL     1       1.753   7.291  20.087  0.00  0.00    +0.000 A 
ATOM     14  F   UNL     1       1.374   6.721  21.237  0.00  0.00    +0.000 F 
ENDBRANCH   5   7
BRANCH   1  15
ATOM     15  C   UNL     1       5.403   5.056  19.467  0.00  0.00    +0.000 C 
BRANCH  15  19
ATOM     16  C   UNL     1       6.061   5.498  16.337  0.00  0.00    +0.000 C 
ATOM     17  C   UNL     1       7.045   6.283  17.198  0.00  0.00    +0.000 C 
ATOM     18  C   UNL     1       7.496   5.283  18.252  0.00  0.00    +0.000 C 
ATOM     19  N   UNL     1       6.327   4.418  18.508  0.00  0.00    +0.000 NA
ATOM     20  C   UNL     1       5.728   4.253  17.164  0.00  0.00    +0.000 C 
BRANCH  16  25
ATOM     21  C   UNL     1       6.899   3.737  11.806  0.00  0.00    +0.000 C 
ATOM     22  C   UNL     1       7.056   4.427  13.098  0.00  0.00    +0.000 A 
ATOM     23  N   UNL     1       8.109   5.202  13.389  0.00  0.00    +0.000 NA
ATOM     24  O   UNL     1       7.823   5.656  14.679  0.00  0.00    +0.000 OA
ATOM     25  C   UNL     1       6.625   5.099  15.025  0.00  0.00    +0.000 A 
ATOM     26  N   UNL     1       6.115   4.334  14.087  0.00  0.00    +0.000 NA
ENDBRANCH  16  25
ENDBRANCH  15  19
ENDBRANCH   1  15
TORSDOF 4
ENDMDL
MODEL 3
REMARK VINA RESULT:      -8.2      1.902      3.436
REMARK  Name = 
REMARK  5 active torsions:
REMARK  status: ('A' for Active; 'I' for Inactive)
REMARK    1  A    between atoms: C_1  and  C_2
REMARK    2  A    between atoms: C_5  and  C_6
REMARK    3  A    between atoms: N_9  and  C_10
REMARK    4  A    between atoms: C_10  and  C_11
REMARK    5  A    between atoms: C_15  and  C_16
REMARK                            x       y       z     vdW  Elec       q    Type
REMARK                         _______ _______ _______ _____ _____    ______ ____
ROOT
ATOM      1  C   UNL     1       3.927   6.615  18.091  0.00  0.00    +0.000 A 
ATOM      2  C   UNL     1       3.782   7.842  17.466  0.00  0.00    +0.000 A 
ATOM      3  N   UNL     1       2.478   8.190  17.573  0.00  0.00    +0.000 N 
ATOM      4  N   UNL     1       1.732   7.265  18.180  0.00  0.00    +0.000 NA
ATOM      5  C   UNL     1       2.575   6.251  18.449  0.00  0.00    +0.000 A 
ATOM      6  H   UNL     1       2.026   9.042  17.261  0.00  0.00    +0.000 HD
ENDROOT
BRANCH   5   7
ATOM      7  C   UNL     1       2.034   5.001  19.002  0.00  0.00    +0.000 A 
ATOM      8  C   UNL     1       1.815   3.893  18.164  0.00  0.00    +0.000 A 
ATOM      9  F   UNL     1       2.098   3.942  16.854  0.00  0.00    +0.000 F 
ATOM     10  C   UNL     1       1.317   2.682  18.655  0.00  0.00    +0.000 A 
ATOM     11  C   UNL     1       1.041   2.538  20.009  0.00  0.00    +0.000 A 
ATOM     12  C   UNL     1       1.244   3.618  20.860  0.00  0.00    +0.000 A 
ATOM     13  C   UNL     1       1.715   4.834  20.353  0.00  0.00    +0.000 A 
ATOM     14  F   UNL     1       1.819   5.843  21.226  0.00  0.00    +0.000 F 
ENDBRANCH   5   7
BRANCH   1  15
ATOM     15  C   UNL     1       5.189   5.834  18.318  0.00  0.00    +0.000 C 
BRANCH  15  19
ATOM     16  C   UNL     1       6.346   5.397  15.336  0.00  0.00    +0.000 C 
ATOM     17  C   UNL     1       7.423   5.084  16.369  0.00  0.00    +0.000 C 
ATOM     18  C   UNL     1       6.719   4.193  17.382  0.00  0.00    +0.000 C 
ATOM     19  N   UNL     1       5.320   4.665  17.425  0.00  0.00    +0.000 NA
ATOM     20  C   UNL     1       5.031   4.996  16.011  0.00  0.00    +0.000 C 
BRANCH  16  25
ATOM     21  C   UNL     1       5.983   2.343  11.480  0.00  0.00    +0.000 C 
ATOM     22  C   UNL     1       6.416   3.422  12.383  0.00  0.00    +0.000 A 
ATOM     23  N   UNL     1       7.338   4.333  12.042  0.00  0.00    +0.000 NA
ATOM     24  O   UNL     1       7.407   5.154  13.169  0.00  0.00    +0.000 OA
ATOM     25  C   UNL     1       6.517   4.643  14.070  0.00  0.00    +0.000 A 
ATOM     26  N   UNL     1       5.886   3.577  13.634  0.00  0.00    +0.000 NA
ENDBRANCH  16  25
ENDBRANCH  15  19
ENDBRANCH   1  15
TORSDOF 4
ENDMDL
MODEL 4
REMARK VINA RESULT:      -8.1      1.929      3.044
REMARK  Name = 
REMARK  5 active torsions:
REMARK  status: ('A' for Active; 'I' for Inactive)
REMARK    1  A    between atoms: C_1  and  C_2
REMARK    2  A    between atoms: C_5  and  C_6
REMARK    3  A    between atoms: N_9  and  C_10
REMARK    4  A    between atoms: C_10  and  C_11
REMARK    5  A    between atoms: C_15  and  C_16
REMARK                            x       y       z     vdW  Elec       q    Type
REMARK                         _______ _______ _______ _____ _____    ______ ____
ROOT
ATOM      1  C   UNL     1       4.157   6.319  18.242  0.00  0.00    +0.000 A 
ATOM      2  C   UNL     1       4.097   7.507  17.535  0.00  0.00    +0.000 A 
ATOM      3  N   UNL     1       2.791   7.859  17.462  0.00  0.00    +0.000 N 
ATOM      4  N   UNL     1       1.972   6.970  18.024  0.00  0.00    +0.000 NA
ATOM      5  C   UNL     1       2.770   5.973  18.452  0.00  0.00    +0.000 A 
ATOM      6  H   UNL     1       2.386   8.691  17.049  0.00  0.00    +0.000 HD
ENDROOT
BRANCH   5   7
ATOM      7  C   UNL     1       2.158   4.756  19.004  0.00  0.00    +0.000 A 
ATOM      8  C   UNL     1       1.851   4.677  20.374  0.00  0.00    +0.000 A 
ATOM      9  F   UNL     1       2.095   5.702  21.204  0.00  0.00    +0.000 F 
ATOM     10  C   UNL     1       1.254   3.543  20.934  0.00  0.00    +0.000 A 
ATOM     11  C   UNL     1       0.929   2.457  20.131  0.00  0.00    +0.000 A 
ATOM     12  C   UNL     1       1.226   2.505  18.774  0.00  0.00    +0.000 A 
ATOM     13  C   UNL     1       1.849   3.634  18.230  0.00  0.00    +0.000 A 
ATOM     14  F   UNL     1       2.161   3.573  16.930  0.00  0.00    +0.000 F 
ENDBRANCH   5   7
BRANCH   1  15
ATOM     15  C   UNL     1       5.378   5.553  18.667  0.00  0.00    +0.000 C 
BRANCH  15  19
ATOM     16  C   UNL     1       6.025   5.305  15.513  0.00  0.00    +0.000 C 
ATOM     17  C   UNL     1       7.321   5.412  16.310  0.00  0.00    +0.000 C 
ATOM     18  C   UNL     1       7.143   4.413  17.444  0.00  0.00    +0.000 C 
ATOM     19  N   UNL     1       5.702   4.428  17.767  0.00  0.00    +0.000 NA
ATOM     20  C   UNL     1       5.060   4.559  16.439  0.00  0.00    +0.000 C 
BRANCH  16  25
ATOM     21  C   UNL     1       5.516   2.437  11.533  0.00  0.00    +0.000 C 
ATOM     22  C   UNL     1       6.037   3.411  12.507  0.00  0.00    +0.000 A 
ATOM     23  N   UNL     1       7.120   4.164  12.278  0.00  0.00    +0.000 NA
ATOM     24  O   UNL     1       7.221   4.938  13.436  0.00  0.00    +0.000 OA
ATOM     25  C   UNL     1       6.184   4.561  14.240  0.00  0.00    +0.000 A 
ATOM     26  N   UNL     1       5.429   3.624  13.714  0.00  0.00    +0.000 NA
ENDBRANCH  16  25
ENDBRANCH  15  19
ENDBRANCH   1  15
TORSDOF 4
ENDMDL
MODEL 5
REMARK VINA RESULT:      -7.7      0.989      1.120
REMARK  Name = 
REMARK  5 active torsions:
REMARK  status: ('A' for Active; 'I' for Inactive)
REMARK    1  A    between atoms: C_1  and  C_2
REMARK    2  A    between atoms: C_5  and  C_6
REMARK    3  A    between atoms: N_9  and  C_10
REMARK    4  A    between atoms: C_10  and  C_11
REMARK    5  A    between atoms: C_15  and  C_16
REMARK                            x       y       z     vdW  Elec       q    Type
REMARK                         _______ _______ _______ _____ _____    ______ ____
ROOT
ATOM      1  C   UNL     1       3.423   5.344  19.669  0.00  0.00    +0.000 A 
ATOM      2  C   UNL     1       3.162   4.152  20.323  0.00  0.00    +0.000 A 
ATOM      3  N   UNL     1       1.873   4.199  20.734  0.00  0.00    +0.000 N 
ATOM      4  N   UNL     1       1.268   5.352  20.446  0.00  0.00    +0.000 NA
ATOM      5  C   UNL     1       2.211   6.109  19.855  0.00  0.00    +0.000 A 
ATOM      6  H   UNL     1       1.338   3.482  21.209  0.00  0.00    +0.000 HD
ENDROOT
BRANCH   5   7
ATOM      7  C   UNL     1       1.904   7.510  19.532  0.00  0.00    +0.000 A 
ATOM      8  C   UNL     1       1.458   8.386  20.537  0.00  0.00    +0.000 A 
ATOM      9  F   UNL     1       1.310   7.976  21.806  0.00  0.00    +0.000 F 
ATOM     10  C   UNL     1       1.170   9.730  20.274  0.00  0.00    +0.000 A 
ATOM     11  C   UNL     1       1.342  10.242  18.994  0.00  0.00    +0.000 A 
ATOM     12  C   UNL     1       1.777   9.397  17.979  0.00  0.00    +0.000 A 
ATOM     13  C   UNL     1       2.034   8.048  18.248  0.00  0.00    +0.000 A 
ATOM     14  F   UNL     1       2.385   7.289  17.204  0.00  0.00    +0.000 F 
ENDBRANCH   5   7
BRANCH   1  15
ATOM     15  C   UNL     1       4.681   5.756  18.959  0.00  0.00    +0.000 C 
BRANCH  15  19
ATOM     16  C   UNL     1       5.602   5.568  15.870  0.00  0.00    +0.000 C 
ATOM     17  C   UNL     1       6.798   5.898  16.756  0.00  0.00    +0.000 C 
ATOM     18  C   UNL     1       6.697   4.902  17.903  0.00  0.00    +0.000 C 
ATOM     19  N   UNL     1       5.252   4.685  18.117  0.00  0.00    +0.000 NA
ATOM     20  C   UNL     1       4.702   4.688  16.743  0.00  0.00    +0.000 C 
BRANCH  16  25
ATOM     21  C   UNL     1       5.790   2.741  11.832  0.00  0.00    +0.000 C 
ATOM     22  C   UNL     1       6.132   3.708  12.889  0.00  0.00    +0.000 A 
ATOM     23  N   UNL     1       7.230   4.474  12.850  0.00  0.00    +0.000 NA
ATOM     24  O   UNL     1       7.129   5.235  14.016  0.00  0.00    +0.000 OA
ATOM     25  C   UNL     1       5.977   4.840  14.633  0.00  0.00    +0.000 A 
ATOM     26  N   UNL     1       5.330   3.902  13.981  0.00  0.00    +0.000 NA
ENDBRANCH  16  25
ENDBRANCH  15  19
ENDBRANCH   1  15
TORSDOF 4
ENDMDL
MODEL 6
REMARK VINA RESULT:      -7.6      1.177      1.599
REMARK  Name = 
REMARK  5 active torsions:
REMARK  status: ('A' for Active; 'I' for Inactive)
REMARK    1  A    between atoms: C_1  and  C_2
REMARK    2  A    between atoms: C_5  and  C_6
REMARK    3  A    between atoms: N_9  and  C_10
REMARK    4  A    between atoms: C_10  and  C_11
REMARK    5  A    between atoms: C_15  and  C_16
REMARK                            x       y       z     vdW  Elec       q    Type
REMARK                         _______ _______ _______ _____ _____    ______ ____
ROOT
ATOM      1  C   UNL     1       3.269   5.296  19.877  0.00  0.00    +0.000 A 
ATOM      2  C   UNL     1       2.978   4.085  20.481  0.00  0.00    +0.000 A 
ATOM      3  N   UNL     1       1.669   4.117  20.824  0.00  0.00    +0.000 N 
ATOM      4  N   UNL     1       1.075   5.276  20.537  0.00  0.00    +0.000 NA
ATOM      5  C   UNL     1       2.045   6.052  20.019  0.00  0.00    +0.000 A 
ATOM      6  H   UNL     1       1.112   3.385  21.250  0.00  0.00    +0.000 HD
ENDROOT
BRANCH   5   7
ATOM      7  C   UNL     1       1.750   7.461  19.721  0.00  0.00    +0.000 A 
ATOM      8  C   UNL     1       1.407   8.347  20.758  0.00  0.00    +0.000 A 
ATOM      9  F   UNL     1       1.349   7.939  22.034  0.00  0.00    +0.000 F 
ATOM     10  C   UNL     1       1.133   9.697  20.517  0.00  0.00    +0.000 A 
ATOM     11  C   UNL     1       1.216  10.207  19.227  0.00  0.00    +0.000 A 
ATOM     12  C   UNL     1       1.549   9.353  18.182  0.00  0.00    +0.000 A 
ATOM     13  C   UNL     1       1.791   7.997  18.430  0.00  0.00    +0.000 A 
ATOM     14  F   UNL     1       2.039   7.230  17.362  0.00  0.00    +0.000 F 
ENDBRANCH   5   7
BRANCH   1  15
ATOM     15  C   UNL     1       4.561   5.732  19.247  0.00  0.00    +0.000 C 
BRANCH  15  19
ATOM     16  C   UNL     1       6.322   4.644  16.769  0.00  0.00    +0.000 C 
ATOM     17  C   UNL     1       5.147   3.707  17.032  0.00  0.00    +0.000 C 
ATOM     18  C   UNL     1       3.951   4.639  17.163  0.00  0.00    +0.000 C 
ATOM     19  N   UNL     1       4.474   5.875  17.779  0.00  0.00    +0.000 NA
ATOM     20  C   UNL     1       5.802   6.035  17.144  0.00  0.00    +0.000 C 
BRANCH  16  25
ATOM     21  C   UNL     1       6.942   3.889  11.934  0.00  0.00    +0.000 C 
ATOM     22  C   UNL     1       7.079   4.409  13.305  0.00  0.00    +0.000 A 
ATOM     23  N   UNL     1       7.878   5.437  13.620  0.00  0.00    +0.000 NA
ATOM     24  O   UNL     1       7.672   5.592  14.992  0.00  0.00    +0.000 OA
ATOM     25  C   UNL     1       6.770   4.634  15.356  0.00  0.00    +0.000 A 
ATOM     26  N   UNL     1       6.377   3.880  14.354  0.00  0.00    +0.000 NA
ENDBRANCH  16  25
ENDBRANCH  15  19
ENDBRANCH   1  15
TORSDOF 4
ENDMDL
MODEL 7
REMARK VINA RESULT:      -7.3      1.113      2.068
REMARK  Name = 
REMARK  5 active torsions:
REMARK  status: ('A' for Active; 'I' for Inactive)
REMARK    1  A    between atoms: C_1  and  C_2
REMARK    2  A    between atoms: C_5  and  C_6
REMARK    3  A    between atoms: N_9  and  C_10
REMARK    4  A    between atoms: C_10  and  C_11
REMARK    5  A    between atoms: C_15  and  C_16
REMARK                            x       y       z     vdW  Elec       q    Type
REMARK                         _______ _______ _______ _____ _____    ______ ____
ROOT
ATOM      1  C   UNL     1       3.457   5.078  19.952  0.00  0.00    +0.000 A 
ATOM      2  C   UNL     1       3.115   3.888  20.569  0.00  0.00    +0.000 A 
ATOM      3  N   UNL     1       1.783   3.934  20.809  0.00  0.00    +0.000 N 
ATOM      4  N   UNL     1       1.219   5.085  20.443  0.00  0.00    +0.000 NA
ATOM      5  C   UNL     1       2.230   5.842  19.977  0.00  0.00    +0.000 A 
ATOM      6  H   UNL     1       1.192   3.217  21.214  0.00  0.00    +0.000 HD
ENDROOT
BRANCH   5   7
ATOM      7  C   UNL     1       1.965   7.242  19.615  0.00  0.00    +0.000 A 
ATOM      8  C   UNL     1       2.215   7.694  18.307  0.00  0.00    +0.000 A 
ATOM      9  F   UNL     1       2.688   6.868  17.361  0.00  0.00    +0.000 F 
ATOM     10  C   UNL     1       1.962   9.013  17.919  0.00  0.00    +0.000 A 
ATOM     11  C   UNL     1       1.429   9.918  18.829  0.00  0.00    +0.000 A 
ATOM     12  C   UNL     1       1.176   9.501  20.130  0.00  0.00    +0.000 A 
ATOM     13  C   UNL     1       1.461   8.186  20.515  0.00  0.00    +0.000 A 
ATOM     14  F   UNL     1       1.252   7.883  21.801  0.00  0.00    +0.000 F 
ENDBRANCH   5   7
BRANCH   1  15
ATOM     15  C   UNL     1       4.795   5.491  19.409  0.00  0.00    +0.000 C 
BRANCH  15  19
ATOM     16  C   UNL     1       5.610   5.680  16.291  0.00  0.00    +0.000 C 
ATOM     17  C   UNL     1       6.833   5.919  17.169  0.00  0.00    +0.000 C 
ATOM     18  C   UNL     1       6.781   4.793  18.192  0.00  0.00    +0.000 C 
ATOM     19  N   UNL     1       5.346   4.535  18.428  0.00  0.00    +0.000 NA
ATOM     20  C   UNL     1       4.748   4.693  17.083  0.00  0.00    +0.000 C 
BRANCH  16  25
ATOM     21  C   UNL     1       7.632   4.474  11.956  0.00  0.00    +0.000 C 
ATOM     22  C   UNL     1       6.754   4.505  13.138  0.00  0.00    +0.000 A 
ATOM     23  N   UNL     1       5.788   3.603  13.354  0.00  0.00    +0.000 NA
ATOM     24  O   UNL     1       5.247   4.003  14.578  0.00  0.00    +0.000 OA
ATOM     25  C   UNL     1       5.948   5.108  14.965  0.00  0.00    +0.000 A 
ATOM     26  N   UNL     1       6.884   5.458  14.112  0.00  0.00    +0.000 NA
ENDBRANCH  16  25
ENDBRANCH  15  19
ENDBRANCH   1  15
TORSDOF 4
ENDMDL
MODEL 8
REMARK VINA RESULT:      -7.2      2.405      3.706
REMARK  Name = 
REMARK  5 active torsions:
REMARK  status: ('A' for Active; 'I' for Inactive)
REMARK    1  A    between atoms: C_1  and  C_2
REMARK    2  A    between atoms: C_5  and  C_6
REMARK    3  A    between atoms: N_9  and  C_10
REMARK    4  A    between atoms: C_10  and  C_11
REMARK    5  A    between atoms: C_15  and  C_16
REMARK                            x       y       z     vdW  Elec       q    Type
REMARK                         _______ _______ _______ _____ _____    ______ ____
ROOT
ATOM      1  C   UNL     1       6.194   5.951  18.076  0.00  0.00    +0.000 A 
ATOM      2  C   UNL     1       7.493   6.231  18.465  0.00  0.00    +0.000 A 
ATOM      3  N   UNL     1       7.685   5.637  19.666  0.00  0.00    +0.000 N 
ATOM      4  N   UNL     1       6.597   5.022  20.131  0.00  0.00    +0.000 NA
ATOM      5  C   UNL     1       5.639   5.254  19.214  0.00  0.00    +0.000 A 
ATOM      6  H   UNL     1       8.530   5.603  20.223  0.00  0.00    +0.000 HD
ENDROOT
BRANCH   5   7
ATOM      7  C   UNL     1       4.262   4.822  19.495  0.00  0.00    +0.000 A 
ATOM      8  C   UNL     1       3.963   3.455  19.631  0.00  0.00    +0.000 A 
ATOM      9  F   UNL     1       4.916   2.518  19.519  0.00  0.00    +0.000 F 
ATOM     10  C   UNL     1       2.669   3.005  19.913  0.00  0.00    +0.000 A 
ATOM     11  C   UNL     1       1.636   3.917  20.088  0.00  0.00    +0.000 A 
ATOM     12  C   UNL     1       1.902   5.275  19.955  0.00  0.00    +0.000 A 
ATOM     13  C   UNL     1       3.194   5.712  19.643  0.00  0.00    +0.000 A 
ATOM     14  F   UNL     1       3.351   7.029  19.467  0.00  0.00    +0.000 F 
ENDBRANCH   5   7
BRANCH   1  15
ATOM     15  C   UNL     1       5.513   6.311  16.787  0.00  0.00    +0.000 C 
BRANCH  15  19
ATOM     16  C   UNL     1       6.264   4.666  14.112  0.00  0.00    +0.000 C 
ATOM     17  C   UNL     1       6.872   3.988  15.335  0.00  0.00    +0.000 C 
ATOM     18  C   UNL     1       5.728   3.932  16.337  0.00  0.00    +0.000 C 
ATOM     19  N   UNL     1       4.925   5.147  16.094  0.00  0.00    +0.000 NA
ATOM     20  C   UNL     1       4.959   5.287  14.620  0.00  0.00    +0.000 C 
BRANCH  16  25
ATOM     21  C   UNL     1       6.275   1.026  10.783  0.00  0.00    +0.000 C 
ATOM     22  C   UNL     1       5.879   2.193  11.589  0.00  0.00    +0.000 A 
ATOM     23  N   UNL     1       4.676   2.774  11.491  0.00  0.00    +0.000 NA
ATOM     24  O   UNL     1       4.738   3.798  12.439  0.00  0.00    +0.000 OA
ATOM     25  C   UNL     1       5.979   3.722  13.005  0.00  0.00    +0.000 A 
ATOM     26  N   UNL     1       6.718   2.753  12.514  0.00  0.00    +0.000 NA
ENDBRANCH  16  25
ENDBRANCH  15  19
ENDBRANCH   1  15
TORSDOF 4
ENDMDL
MODEL 9
REMARK VINA RESULT:      -7.1      3.685      7.247
REMARK  Name = 
REMARK  5 active torsions:
REMARK  status: ('A' for Active; 'I' for Inactive)
REMARK    1  A    between atoms: C_1  and  C_2
REMARK    2  A    between atoms: C_5  and  C_6
REMARK    3  A    between atoms: N_9  and  C_10
REMARK    4  A    between atoms: C_10  and  C_11
REMARK    5  A    between atoms: C_15  and  C_16
REMARK                            x       y       z     vdW  Elec       q    Type
REMARK                         _______ _______ _______ _____ _____    ______ ____
ROOT
ATOM      1  C   UNL     1       4.642   5.673  18.381  0.00  0.00    +0.000 A 
ATOM      2  C   UNL     1       6.007   5.781  18.583  0.00  0.00    +0.000 A 
ATOM      3  N   UNL     1       6.420   4.615  19.132  0.00  0.00    +0.000 N 
ATOM      4  N   UNL     1       5.425   3.756  19.358  0.00  0.00    +0.000 NA
ATOM      5  C   UNL     1       4.307   4.399  18.975  0.00  0.00    +0.000 A 
ATOM      6  H   UNL     1       7.362   4.333  19.375  0.00  0.00    +0.000 HD
ENDROOT
BRANCH   5   7
ATOM      7  C   UNL     1       3.001   3.771  19.223  0.00  0.00    +0.000 A 
ATOM      8  C   UNL     1       2.366   3.035  18.208  0.00  0.00    +0.000 A 
ATOM      9  F   UNL     1       2.931   2.878  17.001  0.00  0.00    +0.000 F 
ATOM     10  C   UNL     1       1.131   2.409  18.409  0.00  0.00    +0.000 A 
ATOM     11  C   UNL     1       0.503   2.487  19.646  0.00  0.00    +0.000 A 
ATOM     12  C   UNL     1       1.106   3.213  20.667  0.00  0.00    +0.000 A 
ATOM     13  C   UNL     1       2.327   3.859  20.445  0.00  0.00    +0.000 A 
ATOM     14  F   UNL     1       2.807   4.591  21.457  0.00  0.00    +0.000 F 
ENDBRANCH   5   7
BRANCH   1  15
ATOM     15  C   UNL     1       3.720   6.662  17.724  0.00  0.00    +0.000 C 
BRANCH  15  19
ATOM     16  C   UNL     1       2.085   8.955  19.304  0.00  0.00    +0.000 C 
ATOM     17  C   UNL     1       1.696   8.952  17.829  0.00  0.00    +0.000 C 
ATOM     18  C   UNL     1       1.442   7.484  17.515  0.00  0.00    +0.000 C 
ATOM     19  N   UNL     1       2.388   6.726  18.359  0.00  0.00    +0.000 NA
ATOM     20  C   UNL     1       2.398   7.491  19.626  0.00  0.00    +0.000 C 
BRANCH  16  25
ATOM     21  C   UNL     1      -0.835  10.204  23.077  0.00  0.00    +0.000 C 
ATOM     22  C   UNL     1      -0.273  10.053  21.725  0.00  0.00    +0.000 A 
ATOM     23  N   UNL     1      -0.790  10.657  20.647  0.00  0.00    +0.000 NA
ATOM     24  O   UNL     1       0.064  10.256  19.617  0.00  0.00    +0.000 OA
ATOM     25  C   UNL     1       1.004   9.449  20.190  0.00  0.00    +0.000 A 
ATOM     26  N   UNL     1       0.839   9.291  21.483  0.00  0.00    +0.000 NA
ENDBRANCH  16  25
ENDBRANCH  15  19
ENDBRANCH   1  15
TORSDOF 4
ENDMDL
