MODEL 1
REMARK VINA RESULT:      -8.8      0.000      0.000
REMARK  Name = 
REMARK  7 active torsions:
REMARK  status: ('A' for Active; 'I' for Inactive)
REMARK    1  A    between atoms: C_1  and  C_2
REMARK    2  A    between atoms: C_6  and  C_7
REMARK    3  A    between atoms: N_12  and  C_13
REMARK    4  A    between atoms: C_17  and  C_18
REMARK    5  A    between atoms: C_18  and  C_19
REMARK    6  A    between atoms: C_19  and  C_20
REMARK    7  A    between atoms: N_24  and  C_25
REMARK                            x       y       z     vdW  Elec       q    Type
REMARK                         _______ _______ _______ _____ _____    ______ ____
ROOT
ATOM      1  C   UNL     1       2.928   6.720  18.735  0.00  0.00    +0.000 A 
ATOM      2  C   UNL     1       2.340   5.452  18.678  0.00  0.00    +0.000 A 
ATOM      3  C   UNL     1       3.074   4.321  18.341  0.00  0.00    +0.000 A 
ATOM      4  C   UNL     1       4.428   4.439  18.059  0.00  0.00    +0.000 A 
ATOM      5  C   UNL     1       5.092   5.681  18.114  0.00  0.00    +0.000 A 
ATOM      6  C   UNL     1       4.298   6.813  18.431  0.00  0.00    +0.000 A 
ENDROOT
BRANCH   1  15
ATOM      7  C   UNL     1      -1.241  12.856  19.007  0.00  0.00    +0.000 C 
ATOM      8  C   UNL     1      -0.529  11.617  19.464  0.00  0.00    +0.000 A 
ATOM      9  C   UNL     1       0.288  10.918  18.579  0.00  0.00    +0.000 A 
ATOM     10  C   UNL     1       0.916   9.778  19.045  0.00  0.00    +0.000 A 
ATOM     11  C   UNL     1       0.777   9.283  20.335  0.00  0.00    +0.000 A 
ATOM     12  C   UNL     1      -0.025   9.969  21.243  0.00  0.00    +0.000 A 
ATOM     13  C   UNL     1      -0.671  11.146  20.789  0.00  0.00    +0.000 A 
ATOM     14  C   UNL     1       1.571   8.012  20.460  0.00  0.00    +0.000 C 
ATOM     15  N   UNL     1       2.168   7.855  19.133  0.00  0.00    +0.000 N 
ATOM     16  C   UNL     1       1.806   8.906  18.290  0.00  0.00    +0.000 C 
ATOM     17  O   UNL     1       2.109   9.166  17.140  0.00  0.00    +0.000 OA
BRANCH  12  18
ATOM     18  C   UNL     1      -0.182   9.538  22.676  0.00  0.00    +0.000 C 
ATOM     19  F   UNL     1      -0.754  10.495  23.460  0.00  0.00    +0.000 F 
ATOM     20  F   UNL     1      -0.960   8.430  22.817  0.00  0.00    +0.000 F 
ENDBRANCH  12  18
ENDBRANCH   1  15
BRANCH   5  21
ATOM     21  C   UNL     1       6.680   5.764  17.893  0.00  0.00    +0.000 C 
ATOM     22  C   UNL     1       7.514   5.936  19.197  0.00  0.00    +0.000 C 
ATOM     23  O   UNL     1       8.279   7.017  18.619  0.00  0.00    +0.000 OA
ATOM     24  C   UNL     1       7.311   7.138  17.545  0.00  0.00    +0.000 C 
BRANCH  21  25
ATOM     25  C   UNL     1       7.212   4.586  17.058  0.00  0.00    +0.000 C 
BRANCH  25  26
ATOM     26  C   UNL     1       6.984   4.659  15.569  0.00  0.00    +0.000 C 
ATOM     27  N   UNL     1       7.735   5.405  14.791  0.00  0.00    +0.000 NA
ATOM     28  C   UNL     1       7.187   5.160  13.422  0.00  0.00    +0.000 C 
ATOM     29  C   UNL     1       6.358   3.876  13.516  0.00  0.00    +0.000 C 
ATOM     30  N   UNL     1       6.053   3.878  14.925  0.00  0.00    +0.000 N 
ATOM     31  C   UNL     1       5.191   2.881  15.497  0.00  0.00    +0.000 C 
ENDBRANCH  25  26
ENDBRANCH  21  25
ENDBRANCH   5  21
TORSDOF 5
ENDMDL
MODEL 2
REMARK VINA RESULT:      -8.7      0.978      1.149
REMARK  Name = 
REMARK  7 active torsions:
REMARK  status: ('A' for Active; 'I' for Inactive)
REMARK    1  A    between atoms: C_1  and  C_2
REMARK    2  A    between atoms: C_6  and  C_7
REMARK    3  A    between atoms: N_12  and  C_13
REMARK    4  A    between atoms: C_17  and  C_18
REMARK    5  A    between atoms: C_18  and  C_19
REMARK    6  A    between atoms: C_19  and  C_20
REMARK    7  A    between atoms: N_24  and  C_25
REMARK                            x       y       z     vdW  Elec       q    Type
REMARK                         _______ _______ _______ _____ _____    ______ ____
ROOT
ATOM      1  C   UNL     1       2.578   6.396  18.315  0.00  0.00    +0.000 A 
ATOM      2  C   UNL     1       1.795   5.236  18.319  0.00  0.00    +0.000 A 
ATOM      3  C   UNL     1       2.278   4.027  17.831  0.00  0.00    +0.000 A 
ATOM      4  C   UNL     1       3.571   3.955  17.332  0.00  0.00    +0.000 A 
ATOM      5  C   UNL     1       4.423   5.076  17.313  0.00  0.00    +0.000 A 
ATOM      6  C   UNL     1       3.880   6.296  17.791  0.00  0.00    +0.000 A 
ENDROOT
BRANCH   1  15
ATOM      7  C   UNL     1      -0.138  13.212  19.436  0.00  0.00    +0.000 C 
ATOM      8  C   UNL     1       0.275  11.798  19.718  0.00  0.00    +0.000 A 
ATOM      9  C   UNL     1       0.933  11.057  18.740  0.00  0.00    +0.000 A 
ATOM     10  C   UNL     1       1.285   9.756  19.045  0.00  0.00    +0.000 A 
ATOM     11  C   UNL     1       1.018   9.140  20.262  0.00  0.00    +0.000 A 
ATOM     12  C   UNL     1       0.372   9.863  21.261  0.00  0.00    +0.000 A 
ATOM     13  C   UNL     1       0.009  11.202  20.972  0.00  0.00    +0.000 A 
ATOM     14  C   UNL     1       1.510   7.720  20.210  0.00  0.00    +0.000 C 
ATOM     15  N   UNL     1       2.081   7.609  18.867  0.00  0.00    +0.000 N 
ATOM     16  C   UNL     1       1.974   8.814  18.173  0.00  0.00    +0.000 C 
ATOM     17  O   UNL     1       2.347   9.148  17.063  0.00  0.00    +0.000 OA
BRANCH  12  18
ATOM     18  C   UNL     1       0.099   9.295  22.627  0.00  0.00    +0.000 C 
ATOM     19  F   UNL     1      -0.333  10.232  23.517  0.00  0.00    +0.000 F 
ATOM     20  F   UNL     1      -0.856   8.324  22.620  0.00  0.00    +0.000 F 
ENDBRANCH  12  18
ENDBRANCH   1  15
BRANCH   5  21
ATOM     21  C   UNL     1       5.949   4.931  16.835  0.00  0.00    +0.000 C 
ATOM     22  C   UNL     1       6.962   4.603  17.971  0.00  0.00    +0.000 C 
ATOM     23  O   UNL     1       7.862   5.644  17.530  0.00  0.00    +0.000 OA
ATOM     24  C   UNL     1       6.814   6.212  16.705  0.00  0.00    +0.000 C 
BRANCH  21  25
ATOM     25  C   UNL     1       6.099   3.938  15.669  0.00  0.00    +0.000 C 
BRANCH  25  26
ATOM     26  C   UNL     1       6.713   4.476  14.401  0.00  0.00    +0.000 C 
ATOM     27  N   UNL     1       7.798   5.214  14.419  0.00  0.00    +0.000 NA
ATOM     28  C   UNL     1       8.064   5.497  12.975  0.00  0.00    +0.000 C 
ATOM     29  C   UNL     1       7.255   4.467  12.181  0.00  0.00    +0.000 C 
ATOM     30  N   UNL     1       6.239   4.145  13.152  0.00  0.00    +0.000 N 
ATOM     31  C   UNL     1       5.158   3.256  12.827  0.00  0.00    +0.000 C 
ENDBRANCH  25  26
ENDBRANCH  21  25
ENDBRANCH   5  21
TORSDOF 5
ENDMDL
MODEL 3
REMARK VINA RESULT:      -8.7      1.123      1.758
REMARK  Name = 
REMARK  7 active torsions:
REMARK  status: ('A' for Active; 'I' for Inactive)
REMARK    1  A    between atoms: C_1  and  C_2
REMARK    2  A    between atoms: C_6  and  C_7
REMARK    3  A    between atoms: N_12  and  C_13
REMARK    4  A    between atoms: C_17  and  C_18
REMARK    5  A    between atoms: C_18  and  C_19
REMARK    6  A    between atoms: C_19  and  C_20
REMARK    7  A    between atoms: N_24  and  C_25
REMARK                            x       y       z     vdW  Elec       q    Type
REMARK                         _______ _______ _______ _____ _____    ______ ____
ROOT
ATOM      1  C   UNL     1       2.652   6.570  18.462  0.00  0.00    +0.000 A 
ATOM      2  C   UNL     1       2.064   5.323  18.699  0.00  0.00    +0.000 A 
ATOM      3  C   UNL     1       2.629   4.146  18.218  0.00  0.00    +0.000 A 
ATOM      4  C   UNL     1       3.810   4.199  17.490  0.00  0.00    +0.000 A 
ATOM      5  C   UNL     1       4.467   5.417  17.228  0.00  0.00    +0.000 A 
ATOM      6  C   UNL     1       3.840   6.594  17.710  0.00  0.00    +0.000 A 
ENDROOT
BRANCH   1  15
ATOM      7  C   UNL     1      -0.538  13.184  19.548  0.00  0.00    +0.000 C 
ATOM      8  C   UNL     1      -0.006  11.813  19.844  0.00  0.00    +0.000 A 
ATOM      9  C   UNL     1       0.669  11.101  18.855  0.00  0.00    +0.000 A 
ATOM     10  C   UNL     1       1.132   9.838  19.174  0.00  0.00    +0.000 A 
ATOM     11  C   UNL     1       0.961   9.234  20.413  0.00  0.00    +0.000 A 
ATOM     12  C   UNL     1       0.300   9.929  21.422  0.00  0.00    +0.000 A 
ATOM     13  C   UNL     1      -0.176  11.229  21.119  0.00  0.00    +0.000 A 
ATOM     14  C   UNL     1       1.559   7.855  20.371  0.00  0.00    +0.000 C 
ATOM     15  N   UNL     1       2.084   7.755  19.008  0.00  0.00    +0.000 N 
ATOM     16  C   UNL     1       1.857   8.931  18.294  0.00  0.00    +0.000 C 
ATOM     17  O   UNL     1       2.160   9.266  17.163  0.00  0.00    +0.000 OA
BRANCH  12  18
ATOM     18  C   UNL     1       0.124   9.374  22.809  0.00  0.00    +0.000 C 
ATOM     19  F   UNL     1       1.287   9.339  23.519  0.00  0.00    +0.000 F 
ATOM     20  F   UNL     1      -0.750  10.094  23.565  0.00  0.00    +0.000 F 
ENDBRANCH  12  18
ENDBRANCH   1  15
BRANCH   5  21
ATOM     21  C   UNL     1       5.889   5.430  16.481  0.00  0.00    +0.000 C 
ATOM     22  C   UNL     1       6.700   4.106  16.596  0.00  0.00    +0.000 C 
ATOM     23  O   UNL     1       7.899   4.820  16.971  0.00  0.00    +0.000 OA
ATOM     24  C   UNL     1       7.116   6.014  17.228  0.00  0.00    +0.000 C 
BRANCH  21  25
ATOM     25  C   UNL     1       5.767   5.868  15.011  0.00  0.00    +0.000 C 
BRANCH  25  26
ATOM     26  C   UNL     1       6.010   4.805  13.970  0.00  0.00    +0.000 C 
ATOM     27  N   UNL     1       5.090   3.922  13.656  0.00  0.00    +0.000 NA
ATOM     28  C   UNL     1       5.732   3.098  12.586  0.00  0.00    +0.000 C 
ATOM     29  C   UNL     1       6.918   3.918  12.069  0.00  0.00    +0.000 C 
ATOM     30  N   UNL     1       7.160   4.757  13.216  0.00  0.00    +0.000 N 
ATOM     31  C   UNL     1       8.272   5.667  13.246  0.00  0.00    +0.000 C 
ENDBRANCH  25  26
ENDBRANCH  21  25
ENDBRANCH   5  21
TORSDOF 5
ENDMDL
MODEL 4
REMARK VINA RESULT:      -8.6      3.346      8.779
REMARK  Name = 
REMARK  7 active torsions:
REMARK  status: ('A' for Active; 'I' for Inactive)
REMARK    1  A    between atoms: C_1  and  C_2
REMARK    2  A    between atoms: C_6  and  C_7
REMARK    3  A    between atoms: N_12  and  C_13
REMARK    4  A    between atoms: C_17  and  C_18
REMARK    5  A    between atoms: C_18  and  C_19
REMARK    6  A    between atoms: C_19  and  C_20
REMARK    7  A    between atoms: N_24  and  C_25
REMARK                            x       y       z     vdW  Elec       q    Type
REMARK                         _______ _______ _______ _____ _____    ______ ____
ROOT
ATOM      1  C   UNL     1       1.171   8.853  20.123  0.00  0.00    +0.000 A 
ATOM      2  C   UNL     1       1.067   8.764  21.515  0.00  0.00    +0.000 A 
ATOM      3  C   UNL     1       0.274   9.642  22.246  0.00  0.00    +0.000 A 
ATOM      4  C   UNL     1      -0.443  10.631  21.586  0.00  0.00    +0.000 A 
ATOM      5  C   UNL     1      -0.401  10.770  20.185  0.00  0.00    +0.000 A 
ATOM      6  C   UNL     1       0.445   9.873  19.483  0.00  0.00    +0.000 A 
ENDROOT
BRANCH   1  15
ATOM      7  C   UNL     1       5.793   5.435  15.427  0.00  0.00    +0.000 C 
ATOM      8  C   UNL     1       4.887   5.650  16.603  0.00  0.00    +0.000 A 
ATOM      9  C   UNL     1       4.193   6.849  16.736  0.00  0.00    +0.000 A 
ATOM     10  C   UNL     1       3.377   7.002  17.842  0.00  0.00    +0.000 A 
ATOM     11  C   UNL     1       3.213   6.040  18.829  0.00  0.00    +0.000 A 
ATOM     12  C   UNL     1       3.887   4.827  18.714  0.00  0.00    +0.000 A 
ATOM     13  C   UNL     1       4.723   4.646  17.584  0.00  0.00    +0.000 A 
ATOM     14  C   UNL     1       2.288   6.576  19.886  0.00  0.00    +0.000 C 
ATOM     15  N   UNL     1       1.947   7.911  19.392  0.00  0.00    +0.000 N 
ATOM     16  C   UNL     1       2.569   8.169  18.170  0.00  0.00    +0.000 C 
ATOM     17  O   UNL     1       2.522   9.128  17.422  0.00  0.00    +0.000 OA
BRANCH  12  18
ATOM     18  C   UNL     1       3.720   3.708  19.705  0.00  0.00    +0.000 C 
ATOM     19  F   UNL     1       2.466   3.174  19.699  0.00  0.00    +0.000 F 
ATOM     20  F   UNL     1       4.567   2.665  19.481  0.00  0.00    +0.000 F 
ENDBRANCH  12  18
ENDBRANCH   1  15
BRANCH   5  21
ATOM     21  C   UNL     1      -1.330  11.851  19.446  0.00  0.00    +0.000 C 
ATOM     22  C   UNL     1      -2.513  12.390  20.302  0.00  0.00    +0.000 C 
ATOM     23  O   UNL     1      -3.451  12.173  19.224  0.00  0.00    +0.000 OA
ATOM     24  C   UNL     1      -2.480  11.345  18.535  0.00  0.00    +0.000 C 
BRANCH  21  25
ATOM     25  C   UNL     1      -0.511  13.013  18.857  0.00  0.00    +0.000 C 
BRANCH  25  26
ATOM     26  C   UNL     1       0.600  13.557  19.718  0.00  0.00    +0.000 C 
ATOM     27  N   UNL     1       0.359  14.141  20.869  0.00  0.00    +0.000 NA
ATOM     28  C   UNL     1       1.718  14.493  21.385  0.00  0.00    +0.000 C 
ATOM     29  C   UNL     1       2.711  13.641  20.590  0.00  0.00    +0.000 C 
ATOM     30  N   UNL     1       1.929  13.386  19.406  0.00  0.00    +0.000 N 
ATOM     31  C   UNL     1       2.488  12.675  18.289  0.00  0.00    +0.000 C 
ENDBRANCH  25  26
ENDBRANCH  21  25
ENDBRANCH   5  21
TORSDOF 5
ENDMDL
MODEL 5
REMARK VINA RESULT:      -8.6      3.415      8.610
REMARK  Name = 
REMARK  7 active torsions:
REMARK  status: ('A' for Active; 'I' for Inactive)
REMARK    1  A    between atoms: C_1  and  C_2
REMARK    2  A    between atoms: C_6  and  C_7
REMARK    3  A    between atoms: N_12  and  C_13
REMARK    4  A    between atoms: C_17  and  C_18
REMARK    5  A    between atoms: C_18  and  C_19
REMARK    6  A    between atoms: C_19  and  C_20
REMARK    7  A    between atoms: N_24  and  C_25
REMARK                            x       y       z     vdW  Elec       q    Type
REMARK                         _______ _______ _______ _____ _____    ______ ____
ROOT
ATOM      1  C   UNL     1       0.905   8.864  20.651  0.00  0.00    +0.000 A 
ATOM      2  C   UNL     1       0.846   9.041  22.038  0.00  0.00    +0.000 A 
ATOM      3  C   UNL     1       0.210  10.138  22.608  0.00  0.00    +0.000 A 
ATOM      4  C   UNL     1      -0.393  11.085  21.791  0.00  0.00    +0.000 A 
ATOM      5  C   UNL     1      -0.390  10.964  20.387  0.00  0.00    +0.000 A 
ATOM      6  C   UNL     1       0.297   9.846  19.847  0.00  0.00    +0.000 A 
ENDROOT
BRANCH   1  15
ATOM      7  C   UNL     1       5.095   4.069  16.838  0.00  0.00    +0.000 C 
ATOM      8  C   UNL     1       4.138   4.592  17.868  0.00  0.00    +0.000 A 
ATOM      9  C   UNL     1       3.734   5.923  17.829  0.00  0.00    +0.000 A 
ATOM     10  C   UNL     1       2.858   6.360  18.806  0.00  0.00    +0.000 A 
ATOM     11  C   UNL     1       2.361   5.555  19.824  0.00  0.00    +0.000 A 
ATOM     12  C   UNL     1       2.740   4.217  19.878  0.00  0.00    +0.000 A 
ATOM     13  C   UNL     1       3.632   3.747  18.882  0.00  0.00    +0.000 A 
ATOM     14  C   UNL     1       1.475   6.383  20.712  0.00  0.00    +0.000 C 
ATOM     15  N   UNL     1       1.515   7.708  20.092  0.00  0.00    +0.000 N 
ATOM     16  C   UNL     1       2.314   7.704  18.948  0.00  0.00    +0.000 C 
ATOM     17  O   UNL     1       2.579   8.574  18.139  0.00  0.00    +0.000 OA
BRANCH  12  18
ATOM     18  C   UNL     1       2.204   3.262  20.909  0.00  0.00    +0.000 C 
ATOM     19  F   UNL     1       2.437   3.672  22.187  0.00  0.00    +0.000 F 
ATOM     20  F   UNL     1       0.857   3.080  20.818  0.00  0.00    +0.000 F 
ENDBRANCH  12  18
ENDBRANCH   1  15
BRANCH   5  21
ATOM     21  C   UNL     1      -1.193  12.016  19.479  0.00  0.00    +0.000 C 
ATOM     22  C   UNL     1      -2.726  12.076  19.748  0.00  0.00    +0.000 C 
ATOM     23  O   UNL     1      -3.023  11.992  18.336  0.00  0.00    +0.000 OA
ATOM     24  C   UNL     1      -1.660  11.574  18.066  0.00  0.00    +0.000 C 
BRANCH  21  25
ATOM     25  C   UNL     1      -0.574  13.423  19.537  0.00  0.00    +0.000 C 
BRANCH  25  26
ATOM     26  C   UNL     1       0.919  13.510  19.349  0.00  0.00    +0.000 C 
ATOM     27  N   UNL     1       1.487  13.241  18.196  0.00  0.00    +0.000 NA
ATOM     28  C   UNL     1       2.942  13.477  18.448  0.00  0.00    +0.000 C 
ATOM     29  C   UNL     1       3.023  14.318  19.726  0.00  0.00    +0.000 C 
ATOM     30  N   UNL     1       1.762  13.972  20.333  0.00  0.00    +0.000 N 
ATOM     31  C   UNL     1       1.410  14.461  21.638  0.00  0.00    +0.000 C 
ENDBRANCH  25  26
ENDBRANCH  21  25
ENDBRANCH   5  21
TORSDOF 5
ENDMDL
MODEL 6
REMARK VINA RESULT:      -8.6      3.516      8.736
REMARK  Name = 
REMARK  7 active torsions:
REMARK  status: ('A' for Active; 'I' for Inactive)
REMARK    1  A    between atoms: C_1  and  C_2
REMARK    2  A    between atoms: C_6  and  C_7
REMARK    3  A    between atoms: N_12  and  C_13
REMARK    4  A    between atoms: C_17  and  C_18
REMARK    5  A    between atoms: C_18  and  C_19
REMARK    6  A    between atoms: C_19  and  C_20
REMARK    7  A    between atoms: N_24  and  C_25
REMARK                            x       y       z     vdW  Elec       q    Type
REMARK                         _______ _______ _______ _____ _____    ______ ____
ROOT
ATOM      1  C   UNL     1       1.459   8.444  20.003  0.00  0.00    +0.000 A 
ATOM      2  C   UNL     1       1.416   8.305  21.395  0.00  0.00    +0.000 A 
ATOM      3  C   UNL     1       0.645   9.147  22.189  0.00  0.00    +0.000 A 
ATOM      4  C   UNL     1      -0.112  10.149  21.596  0.00  0.00    +0.000 A 
ATOM      5  C   UNL     1      -0.132  10.337  20.200  0.00  0.00    +0.000 A 
ATOM      6  C   UNL     1       0.694   9.476  19.431  0.00  0.00    +0.000 A 
ENDROOT
BRANCH   1  15
ATOM      7  C   UNL     1       6.068   5.262  15.132  0.00  0.00    +0.000 C 
ATOM      8  C   UNL     1       5.134   5.409  16.297  0.00  0.00    +0.000 A 
ATOM      9  C   UNL     1       4.493   6.623  16.525  0.00  0.00    +0.000 A 
ATOM     10  C   UNL     1       3.650   6.711  17.617  0.00  0.00    +0.000 A 
ATOM     11  C   UNL     1       3.407   5.668  18.501  0.00  0.00    +0.000 A 
ATOM     12  C   UNL     1       4.027   4.440  18.289  0.00  0.00    +0.000 A 
ATOM     13  C   UNL     1       4.890   4.325  17.171  0.00  0.00    +0.000 A 
ATOM     14  C   UNL     1       2.474   6.147  19.579  0.00  0.00    +0.000 C 
ATOM     15  N   UNL     1       2.213   7.539  19.207  0.00  0.00    +0.000 N 
ATOM     16  C   UNL     1       2.887   7.881  18.034  0.00  0.00    +0.000 C 
ATOM     17  O   UNL     1       2.910   8.908  17.381  0.00  0.00    +0.000 OA
BRANCH  12  18
ATOM     18  C   UNL     1       3.773   3.240  19.161  0.00  0.00    +0.000 C 
ATOM     19  F   UNL     1       3.223   2.195  18.482  0.00  0.00    +0.000 F 
ATOM     20  F   UNL     1       4.905   2.752  19.739  0.00  0.00    +0.000 F 
ENDBRANCH  12  18
ENDBRANCH   1  15
BRANCH   5  21
ATOM     21  C   UNL     1      -1.104  11.431  19.540  0.00  0.00    +0.000 C 
ATOM     22  C   UNL     1      -0.473  12.248  18.374  0.00  0.00    +0.000 C 
ATOM     23  O   UNL     1      -0.928  13.496  18.943  0.00  0.00    +0.000 OA
ATOM     24  C   UNL     1      -1.206  12.831  20.202  0.00  0.00    +0.000 C 
BRANCH  21  25
ATOM     25  C   UNL     1      -2.453  10.826  19.113  0.00  0.00    +0.000 C 
BRANCH  25  26
ATOM     26  C   UNL     1      -2.712  10.739  17.630  0.00  0.00    +0.000 C 
ATOM     27  N   UNL     1      -1.971   9.996  16.842  0.00  0.00    +0.000 NA
ATOM     28  C   UNL     1      -2.586  10.181  15.492  0.00  0.00    +0.000 C 
ATOM     29  C   UNL     1      -3.987  10.750  15.734  0.00  0.00    +0.000 C 
ATOM     30  N   UNL     1      -3.793  11.345  17.032  0.00  0.00    +0.000 N 
ATOM     31  C   UNL     1      -4.839  12.103  17.663  0.00  0.00    +0.000 C 
ENDBRANCH  25  26
ENDBRANCH  21  25
ENDBRANCH   5  21
TORSDOF 5
ENDMDL
MODEL 7
REMARK VINA RESULT:      -8.5      3.358      8.820
REMARK  Name = 
REMARK  7 active torsions:
REMARK  status: ('A' for Active; 'I' for Inactive)
REMARK    1  A    between atoms: C_1  and  C_2
REMARK    2  A    between atoms: C_6  and  C_7
REMARK    3  A    between atoms: N_12  and  C_13
REMARK    4  A    between atoms: C_17  and  C_18
REMARK    5  A    between atoms: C_18  and  C_19
REMARK    6  A    between atoms: C_19  and  C_20
REMARK    7  A    between atoms: N_24  and  C_25
REMARK                            x       y       z     vdW  Elec       q    Type
REMARK                         _______ _______ _______ _____ _____    ______ ____
ROOT
ATOM      1  C   UNL     1       1.216   8.535  20.550  0.00  0.00    +0.000 A 
ATOM      2  C   UNL     1       1.151   8.609  21.946  0.00  0.00    +0.000 A 
ATOM      3  C   UNL     1       0.539   9.677  22.593  0.00  0.00    +0.000 A 
ATOM      4  C   UNL     1      -0.033  10.697  21.845  0.00  0.00    +0.000 A 
ATOM      5  C   UNL     1      -0.021  10.681  20.436  0.00  0.00    +0.000 A 
ATOM      6  C   UNL     1       0.641   9.590  19.818  0.00  0.00    +0.000 A 
ENDROOT
BRANCH   1  15
ATOM      7  C   UNL     1       5.247   3.935  16.344  0.00  0.00    +0.000 C 
ATOM      8  C   UNL     1       4.329   4.405  17.434  0.00  0.00    +0.000 A 
ATOM      9  C   UNL     1       3.930   5.738  17.479  0.00  0.00    +0.000 A 
ATOM     10  C   UNL     1       3.091   6.125  18.508  0.00  0.00    +0.000 A 
ATOM     11  C   UNL     1       2.628   5.270  19.500  0.00  0.00    +0.000 A 
ATOM     12  C   UNL     1       3.004   3.930  19.471  0.00  0.00    +0.000 A 
ATOM     13  C   UNL     1       3.857   3.510  18.420  0.00  0.00    +0.000 A 
ATOM     14  C   UNL     1       1.778   6.052  20.462  0.00  0.00    +0.000 C 
ATOM     15  N   UNL     1       1.802   7.408  19.910  0.00  0.00    +0.000 N 
ATOM     16  C   UNL     1       2.559   7.461  18.739  0.00  0.00    +0.000 C 
ATOM     17  O   UNL     1       2.798   8.372  17.968  0.00  0.00    +0.000 OA
BRANCH  12  18
ATOM     18  C   UNL     1       2.500   2.923  20.470  0.00  0.00    +0.000 C 
ATOM     19  F   UNL     1       2.638   3.339  21.760  0.00  0.00    +0.000 F 
ATOM     20  F   UNL     1       1.180   2.631  20.313  0.00  0.00    +0.000 F 
ENDBRANCH  12  18
ENDBRANCH   1  15
BRANCH   5  21
ATOM     21  C   UNL     1      -0.789  11.819  19.604  0.00  0.00    +0.000 C 
ATOM     22  C   UNL     1      -1.676  12.770  20.461  0.00  0.00    +0.000 C 
ATOM     23  O   UNL     1      -2.794  12.615  19.559  0.00  0.00    +0.000 OA
ATOM     24  C   UNL     1      -2.150  11.468  18.946  0.00  0.00    +0.000 C 
BRANCH  21  25
ATOM     25  C   UNL     1       0.166  12.626  18.707  0.00  0.00    +0.000 C 
BRANCH  25  26
ATOM     26  C   UNL     1       1.105  13.575  19.407  0.00  0.00    +0.000 C 
ATOM     27  N   UNL     1       2.220  13.159  19.961  0.00  0.00    +0.000 NA
ATOM     28  C   UNL     1       2.840  14.408  20.501  0.00  0.00    +0.000 C 
ATOM     29  C   UNL     1       2.147  15.573  19.788  0.00  0.00    +0.000 C 
ATOM     30  N   UNL     1       0.908  14.936  19.418  0.00  0.00    +0.000 N 
ATOM     31  C   UNL     1      -0.145  15.680  18.781  0.00  0.00    +0.000 C 
ENDBRANCH  25  26
ENDBRANCH  21  25
ENDBRANCH   5  21
TORSDOF 5
ENDMDL
MODEL 8
REMARK VINA RESULT:      -8.5      3.383      8.702
REMARK  Name = 
REMARK  7 active torsions:
REMARK  status: ('A' for Active; 'I' for Inactive)
REMARK    1  A    between atoms: C_1  and  C_2
REMARK    2  A    between atoms: C_6  and  C_7
REMARK    3  A    between atoms: N_12  and  C_13
REMARK    4  A    between atoms: C_17  and  C_18
REMARK    5  A    between atoms: C_18  and  C_19
REMARK    6  A    between atoms: C_19  and  C_20
REMARK    7  A    between atoms: N_24  and  C_25
REMARK                            x       y       z     vdW  Elec       q    Type
REMARK                         _______ _______ _______ _____ _____    ______ ____
ROOT
ATOM      1  C   UNL     1       1.191   8.921  20.112  0.00  0.00    +0.000 A 
ATOM      2  C   UNL     1       1.068   8.851  21.505  0.00  0.00    +0.000 A 
ATOM      3  C   UNL     1       0.294   9.761  22.216  0.00  0.00    +0.000 A 
ATOM      4  C   UNL     1      -0.384  10.765  21.538  0.00  0.00    +0.000 A 
ATOM      5  C   UNL     1      -0.322  10.887  20.136  0.00  0.00    +0.000 A 
ATOM      6  C   UNL     1       0.504   9.957  19.453  0.00  0.00    +0.000 A 
ENDROOT
BRANCH   1  15
ATOM      7  C   UNL     1       5.752   5.311  15.502  0.00  0.00    +0.000 C 
ATOM      8  C   UNL     1       4.843   5.567  16.668  0.00  0.00    +0.000 A 
ATOM      9  C   UNL     1       4.182   6.787  16.778  0.00  0.00    +0.000 A 
ATOM     10  C   UNL     1       3.362   6.979  17.875  0.00  0.00    +0.000 A 
ATOM     11  C   UNL     1       3.162   6.034  18.874  0.00  0.00    +0.000 A 
ATOM     12  C   UNL     1       3.802   4.801  18.780  0.00  0.00    +0.000 A 
ATOM     13  C   UNL     1       4.641   4.581  17.660  0.00  0.00    +0.000 A 
ATOM     14  C   UNL     1       2.244   6.611  19.915  0.00  0.00    +0.000 C 
ATOM     15  N   UNL     1       1.946   7.949  19.401  0.00  0.00    +0.000 N 
ATOM     16  C   UNL     1       2.585   8.172  18.181  0.00  0.00    +0.000 C 
ATOM     17  O   UNL     1       2.571   9.122  17.420  0.00  0.00    +0.000 OA
BRANCH  12  18
ATOM     18  C   UNL     1       3.594   3.700  19.784  0.00  0.00    +0.000 C 
ATOM     19  F   UNL     1       2.471   2.966  19.544  0.00  0.00    +0.000 F 
ATOM     20  F   UNL     1       4.621   2.807  19.816  0.00  0.00    +0.000 F 
ENDBRANCH  12  18
ENDBRANCH   1  15
BRANCH   5  21
ATOM     21  C   UNL     1      -1.208  11.988  19.375  0.00  0.00    +0.000 C 
ATOM     22  C   UNL     1      -2.716  11.995  19.761  0.00  0.00    +0.000 C 
ATOM     23  O   UNL     1      -3.117  12.014  18.373  0.00  0.00    +0.000 OA
ATOM     24  C   UNL     1      -1.773  11.647  17.971  0.00  0.00    +0.000 C 
BRANCH  21  25
ATOM     25  C   UNL     1      -0.609  13.400  19.498  0.00  0.00    +0.000 C 
BRANCH  25  26
ATOM     26  C   UNL     1       0.885  13.515  19.328  0.00  0.00    +0.000 C 
ATOM     27  N   UNL     1       1.469  13.281  18.175  0.00  0.00    +0.000 NA
ATOM     28  C   UNL     1       2.917  13.534  18.448  0.00  0.00    +0.000 C 
ATOM     29  C   UNL     1       2.973  14.346  19.745  0.00  0.00    +0.000 C 
ATOM     30  N   UNL     1       1.711  13.967  20.331  0.00  0.00    +0.000 N 
ATOM     31  C   UNL     1       1.338  14.420  21.643  0.00  0.00    +0.000 C 
ENDBRANCH  25  26
ENDBRANCH  21  25
ENDBRANCH   5  21
TORSDOF 5
ENDMDL
MODEL 9
REMARK VINA RESULT:      -8.4      3.988      8.960
REMARK  Name = 
REMARK  7 active torsions:
REMARK  status: ('A' for Active; 'I' for Inactive)
REMARK    1  A    between atoms: C_1  and  C_2
REMARK    2  A    between atoms: C_6  and  C_7
REMARK    3  A    between atoms: N_12  and  C_13
REMARK    4  A    between atoms: C_17  and  C_18
REMARK    5  A    between atoms: C_18  and  C_19
REMARK    6  A    between atoms: C_19  and  C_20
REMARK    7  A    between atoms: N_24  and  C_25
REMARK                            x       y       z     vdW  Elec       q    Type
REMARK                         _______ _______ _______ _____ _____    ______ ____
ROOT
ATOM      1  C   UNL     1       1.248   8.699  20.178  0.00  0.00    +0.000 A 
ATOM      2  C   UNL     1       1.183   8.844  21.568  0.00  0.00    +0.000 A 
ATOM      3  C   UNL     1       0.430   9.850  22.163  0.00  0.00    +0.000 A 
ATOM      4  C   UNL     1      -0.286  10.734  21.368  0.00  0.00    +0.000 A 
ATOM      5  C   UNL     1      -0.282  10.639  19.962  0.00  0.00    +0.000 A 
ATOM      6  C   UNL     1       0.524   9.618  19.397  0.00  0.00    +0.000 A 
ENDROOT
BRANCH   1  15
ATOM      7  C   UNL     1       3.791   2.101  17.919  0.00  0.00    +0.000 C 
ATOM      8  C   UNL     1       3.624   3.590  18.008  0.00  0.00    +0.000 A 
ATOM      9  C   UNL     1       2.795   4.139  18.983  0.00  0.00    +0.000 A 
ATOM     10  C   UNL     1       2.666   5.515  19.018  0.00  0.00    +0.000 A 
ATOM     11  C   UNL     1       3.306   6.381  18.141  0.00  0.00    +0.000 A 
ATOM     12  C   UNL     1       4.149   5.858  17.165  0.00  0.00    +0.000 A 
ATOM     13  C   UNL     1       4.302   4.450  17.116  0.00  0.00    +0.000 A 
ATOM     14  C   UNL     1       2.895   7.792  18.460  0.00  0.00    +0.000 C 
ATOM     15  N   UNL     1       1.983   7.631  19.594  0.00  0.00    +0.000 N 
ATOM     16  C   UNL     1       1.855   6.288  19.950  0.00  0.00    +0.000 C 
ATOM     17  O   UNL     1       1.233   5.741  20.842  0.00  0.00    +0.000 OA
BRANCH  12  18
ATOM     18  C   UNL     1       4.928   6.726  16.214  0.00  0.00    +0.000 C 
ATOM     19  F   UNL     1       6.158   7.068  16.691  0.00  0.00    +0.000 F 
ATOM     20  F   UNL     1       5.150   6.132  15.009  0.00  0.00    +0.000 F 
ENDBRANCH  12  18
ENDBRANCH   1  15
BRANCH   5  21
ATOM     21  C   UNL     1      -1.210  11.606  19.079  0.00  0.00    +0.000 C 
ATOM     22  C   UNL     1      -2.478  12.142  19.808  0.00  0.00    +0.000 C 
ATOM     23  O   UNL     1      -3.323  11.790  18.690  0.00  0.00    +0.000 OA
ATOM     24  C   UNL     1      -2.265  10.968  18.136  0.00  0.00    +0.000 C 
BRANCH  21  25
ATOM     25  C   UNL     1      -0.412  12.764  18.455  0.00  0.00    +0.000 C 
BRANCH  25  26
ATOM     26  C   UNL     1       0.642  13.401  19.325  0.00  0.00    +0.000 C 
ATOM     27  N   UNL     1       0.327  14.099  20.392  0.00  0.00    +0.000 NA
ATOM     28  C   UNL     1       1.650  14.509  20.955  0.00  0.00    +0.000 C 
ATOM     29  C   UNL     1       2.692  13.586  20.318  0.00  0.00    +0.000 C 
ATOM     30  N   UNL     1       1.988  13.206  19.118  0.00  0.00    +0.000 N 
ATOM     31  C   UNL     1       2.618  12.387  18.119  0.00  0.00    +0.000 C 
ENDBRANCH  25  26
ENDBRANCH  21  25
ENDBRANCH   5  21
TORSDOF 5
ENDMDL
