MODEL 1
REMARK VINA RESULT:      -8.7      0.000      0.000
REMARK  Name = 
REMARK  3 active torsions:
REMARK  status: ('A' for Active; 'I' for Inactive)
REMARK    1  A    between atoms: C_2  and  C_3
REMARK    2  A    between atoms: C_3  and  N_4
REMARK    3  A    between atoms: N_15  and  C_16
REMARK                            x       y       z     vdW  Elec       q    Type
REMARK                         _______ _______ _______ _____ _____    ______ ____
ROOT
ATOM      1  O   UNL     1       1.859   8.095  21.419  0.00  0.00    +0.000 OA
ATOM      2  C   UNL     1       1.478   8.201  20.256  0.00  0.00    +0.000 C 
ATOM      3  N   UNL     1       2.033   7.490  19.218  0.00  0.00    +0.000 N 
ATOM      4  H   UNL     1       1.689   7.619  18.275  0.00  0.00    +0.000 HD
ENDROOT
BRANCH   3   5
ATOM      5  C   UNL     1       2.975   6.406  19.416  0.00  0.00    +0.000 C 
ATOM      6  C   UNL     1       2.247   5.069  19.540  0.00  0.00    +0.000 A 
ATOM      7  C   UNL     1       1.357   4.657  20.520  0.00  0.00    +0.000 A 
ATOM      8  C   UNL     1       0.776   3.392  20.394  0.00  0.00    +0.000 A 
ATOM      9  C   UNL     1       1.095   2.558  19.310  0.00  0.00    +0.000 A 
ATOM     10  C   UNL     1       2.018   2.963  18.342  0.00  0.00    +0.000 A 
ATOM     11  C   UNL     1       2.596   4.216  18.468  0.00  0.00    +0.000 A 
ATOM     12  C   UNL     1       3.570   4.887  17.637  0.00  0.00    +0.000 A 
ATOM     13  C   UNL     1       4.235   4.452  16.501  0.00  0.00    +0.000 A 
ATOM     14  C   UNL     1       5.137   5.321  15.885  0.00  0.00    +0.000 A 
ATOM     15  C   UNL     1       5.368   6.606  16.404  0.00  0.00    +0.000 A 
ATOM     16  C   UNL     1       4.704   7.044  17.553  0.00  0.00    +0.000 A 
ATOM     17  C   UNL     1       3.808   6.178  18.161  0.00  0.00    +0.000 A 
ENDBRANCH   3   5
BRANCH   2  18
ATOM     18  C   UNL     1       0.366   9.172  19.841  0.00  0.00    +0.000 C 
BRANCH  18  19
ATOM     19  N   UNL     1       0.831  10.531  19.639  0.00  0.00    +0.000 N 
ATOM     20  C   UNL     1       0.857  11.472  20.642  0.00  0.00    +0.000 C 
ATOM     21  O   UNL     1       0.530  11.316  21.806  0.00  0.00    +0.000 OA
ATOM     22  C   UNL     1       1.321  12.753  20.002  0.00  0.00    +0.000 C 
ATOM     23  C   UNL     1       2.021  13.829  20.811  0.00  0.00    +0.000 C 
ATOM     24  C   UNL     1       2.432  14.965  19.857  0.00  0.00    +0.000 C 
ATOM     25  C   UNL     1       3.237  14.474  18.640  0.00  0.00    +0.000 C 
ATOM     26  C   UNL     1       2.590  13.272  17.926  0.00  0.00    +0.000 C 
ATOM     27  C   UNL     1       2.275  12.206  18.954  0.00  0.00    +0.000 C 
ATOM     28  C   UNL     1       1.591  10.921  18.556  0.00  0.00    +0.000 C 
ATOM     29  O   UNL     1       1.836  10.279  17.549  0.00  0.00    +0.000 OA
ENDBRANCH  18  19
ENDBRANCH   2  18
TORSDOF 3
ENDMDL
MODEL 2
REMARK VINA RESULT:      -8.6      0.490      1.704
REMARK  Name = 
REMARK  3 active torsions:
REMARK  status: ('A' for Active; 'I' for Inactive)
REMARK    1  A    between atoms: C_2  and  C_3
REMARK    2  A    between atoms: C_3  and  N_4
REMARK    3  A    between atoms: N_15  and  C_16
REMARK                            x       y       z     vdW  Elec       q    Type
REMARK                         _______ _______ _______ _____ _____    ______ ____
ROOT
ATOM      1  O   UNL     1       1.852   8.119  21.256  0.00  0.00    +0.000 OA
ATOM      2  C   UNL     1       1.532   8.237  20.076  0.00  0.00    +0.000 C 
ATOM      3  N   UNL     1       2.123   7.516  19.064  0.00  0.00    +0.000 N 
ATOM      4  H   UNL     1       1.830   7.655  18.105  0.00  0.00    +0.000 HD
ENDROOT
BRANCH   3   5
ATOM      5  C   UNL     1       3.029   6.410  19.306  0.00  0.00    +0.000 C 
ATOM      6  C   UNL     1       2.261   5.096  19.436  0.00  0.00    +0.000 A 
ATOM      7  C   UNL     1       1.336   4.728  20.402  0.00  0.00    +0.000 A 
ATOM      8  C   UNL     1       0.724   3.477  20.285  0.00  0.00    +0.000 A 
ATOM      9  C   UNL     1       1.045   2.614  19.225  0.00  0.00    +0.000 A 
ATOM     10  C   UNL     1       2.003   2.974  18.272  0.00  0.00    +0.000 A 
ATOM     11  C   UNL     1       2.612   4.213  18.389  0.00  0.00    +0.000 A 
ATOM     12  C   UNL     1       3.624   4.841  17.570  0.00  0.00    +0.000 A 
ATOM     13  C   UNL     1       4.304   4.366  16.460  0.00  0.00    +0.000 A 
ATOM     14  C   UNL     1       5.245   5.198  15.851  0.00  0.00    +0.000 A 
ATOM     15  C   UNL     1       5.499   6.486  16.351  0.00  0.00    +0.000 A 
ATOM     16  C   UNL     1       4.820   6.964  17.475  0.00  0.00    +0.000 A 
ATOM     17  C   UNL     1       3.886   6.135  18.076  0.00  0.00    +0.000 A 
ENDBRANCH   3   5
BRANCH   2  18
ATOM     18  C   UNL     1       0.465   9.234  19.608  0.00  0.00    +0.000 C 
BRANCH  18  19
ATOM     19  N   UNL     1       0.937  10.604  19.557  0.00  0.00    +0.000 N 
ATOM     20  C   UNL     1       1.777  11.072  18.573  0.00  0.00    +0.000 C 
ATOM     21  O   UNL     1       2.219  10.446  17.625  0.00  0.00    +0.000 OA
ATOM     22  C   UNL     1       2.085  12.501  18.932  0.00  0.00    +0.000 C 
ATOM     23  C   UNL     1       2.471  13.513  17.869  0.00  0.00    +0.000 C 
ATOM     24  C   UNL     1       2.645  14.885  18.545  0.00  0.00    +0.000 C 
ATOM     25  C   UNL     1       1.430  15.301  19.394  0.00  0.00    +0.000 C 
ATOM     26  C   UNL     1       0.950  14.197  20.355  0.00  0.00    +0.000 C 
ATOM     27  C   UNL     1       0.771  12.914  19.571  0.00  0.00    +0.000 C 
ATOM     28  C   UNL     1       0.348  11.637  20.257  0.00  0.00    +0.000 C 
ATOM     29  O   UNL     1      -0.500  11.558  21.129  0.00  0.00    +0.000 OA
ENDBRANCH  18  19
ENDBRANCH   2  18
TORSDOF 3
ENDMDL
MODEL 3
REMARK VINA RESULT:      -8.5      1.588      2.551
REMARK  Name = 
REMARK  3 active torsions:
REMARK  status: ('A' for Active; 'I' for Inactive)
REMARK    1  A    between atoms: C_2  and  C_3
REMARK    2  A    between atoms: C_3  and  N_4
REMARK    3  A    between atoms: N_15  and  C_16
REMARK                            x       y       z     vdW  Elec       q    Type
REMARK                         _______ _______ _______ _____ _____    ______ ____
ROOT
ATOM      1  O   UNL     1       2.199   7.955  20.807  0.00  0.00    +0.000 OA
ATOM      2  C   UNL     1       1.914   8.046  19.616  0.00  0.00    +0.000 C 
ATOM      3  N   UNL     1       2.482   7.250  18.648  0.00  0.00    +0.000 N 
ATOM      4  H   UNL     1       2.221   7.369  17.677  0.00  0.00    +0.000 HD
ENDROOT
BRANCH   3   5
ATOM      5  C   UNL     1       3.313   6.102  18.954  0.00  0.00    +0.000 C 
ATOM      6  C   UNL     1       2.464   4.839  19.093  0.00  0.00    +0.000 A 
ATOM      7  C   UNL     1       1.486   4.555  20.033  0.00  0.00    +0.000 A 
ATOM      8  C   UNL     1       0.805   3.339  19.929  0.00  0.00    +0.000 A 
ATOM      9  C   UNL     1       1.112   2.426  18.906  0.00  0.00    +0.000 A 
ATOM     10  C   UNL     1       2.122   2.702  17.980  0.00  0.00    +0.000 A 
ATOM     11  C   UNL     1       2.799   3.906  18.085  0.00  0.00    +0.000 A 
ATOM     12  C   UNL     1       3.875   4.449  17.286  0.00  0.00    +0.000 A 
ATOM     13  C   UNL     1       4.564   3.902  16.216  0.00  0.00    +0.000 A 
ATOM     14  C   UNL     1       5.574   4.659  15.619  0.00  0.00    +0.000 A 
ATOM     15  C   UNL     1       5.886   5.944  16.092  0.00  0.00    +0.000 A 
ATOM     16  C   UNL     1       5.197   6.495  17.175  0.00  0.00    +0.000 A 
ATOM     17  C   UNL     1       4.194   5.740  17.765  0.00  0.00    +0.000 A 
ENDBRANCH   3   5
BRANCH   2  18
ATOM     18  C   UNL     1       0.921   9.086  19.084  0.00  0.00    +0.000 C 
BRANCH  18  19
ATOM     19  N   UNL     1       0.574  10.104  20.058  0.00  0.00    +0.000 N 
ATOM     20  C   UNL     1       0.830  11.442  19.869  0.00  0.00    +0.000 C 
ATOM     21  O   UNL     1       1.345  11.962  18.894  0.00  0.00    +0.000 OA
ATOM     22  C   UNL     1       0.395  12.133  21.133  0.00  0.00    +0.000 C 
ATOM     23  C   UNL     1      -0.028  13.590  21.128  0.00  0.00    +0.000 C 
ATOM     24  C   UNL     1      -0.483  13.969  22.549  0.00  0.00    +0.000 C 
ATOM     25  C   UNL     1      -1.544  13.011  23.122  0.00  0.00    +0.000 C 
ATOM     26  C   UNL     1      -1.169  11.525  22.970  0.00  0.00    +0.000 C 
ATOM     27  C   UNL     1      -0.786  11.264  21.529  0.00  0.00    +0.000 C 
ATOM     28  C   UNL     1      -0.326   9.898  21.083  0.00  0.00    +0.000 C 
ATOM     29  O   UNL     1      -0.817   8.841  21.442  0.00  0.00    +0.000 OA
ENDBRANCH  18  19
ENDBRANCH   2  18
TORSDOF 3
ENDMDL
MODEL 4
REMARK VINA RESULT:      -8.5      2.099      2.906
REMARK  Name = 
REMARK  3 active torsions:
REMARK  status: ('A' for Active; 'I' for Inactive)
REMARK    1  A    between atoms: C_2  and  C_3
REMARK    2  A    between atoms: C_3  and  N_4
REMARK    3  A    between atoms: N_15  and  C_16
REMARK                            x       y       z     vdW  Elec       q    Type
REMARK                         _______ _______ _______ _____ _____    ______ ____
ROOT
ATOM      1  O   UNL     1       3.156   9.235  18.219  0.00  0.00    +0.000 OA
ATOM      2  C   UNL     1       2.073   8.656  18.180  0.00  0.00    +0.000 C 
ATOM      3  N   UNL     1       1.942   7.299  18.360  0.00  0.00    +0.000 N 
ATOM      4  H   UNL     1       1.028   6.867  18.310  0.00  0.00    +0.000 HD
ENDROOT
BRANCH   3   5
ATOM      5  C   UNL     1       3.030   6.453  18.811  0.00  0.00    +0.000 C 
ATOM      6  C   UNL     1       2.496   5.144  19.391  0.00  0.00    +0.000 A 
ATOM      7  C   UNL     1       1.703   4.958  20.514  0.00  0.00    +0.000 A 
ATOM      8  C   UNL     1       1.297   3.657  20.825  0.00  0.00    +0.000 A 
ATOM      9  C   UNL     1       1.690   2.569  20.028  0.00  0.00    +0.000 A 
ATOM     10  C   UNL     1       2.516   2.758  18.916  0.00  0.00    +0.000 A 
ATOM     11  C   UNL     1       2.922   4.047  18.609  0.00  0.00    +0.000 A 
ATOM     12  C   UNL     1       3.766   4.535  17.542  0.00  0.00    +0.000 A 
ATOM     13  C   UNL     1       4.446   3.848  16.549  0.00  0.00    +0.000 A 
ATOM     14  C   UNL     1       5.200   4.582  15.631  0.00  0.00    +0.000 A 
ATOM     15  C   UNL     1       5.271   5.982  15.713  0.00  0.00    +0.000 A 
ATOM     16  C   UNL     1       4.592   6.676  16.718  0.00  0.00    +0.000 A 
ATOM     17  C   UNL     1       3.844   5.943  17.627  0.00  0.00    +0.000 A 
ENDBRANCH   3   5
BRANCH   2  18
ATOM     18  C   UNL     1       0.758   9.390  17.886  0.00  0.00    +0.000 C 
BRANCH  18  19
ATOM     19  N   UNL     1       0.242  10.129  19.022  0.00  0.00    +0.000 N 
ATOM     20  C   UNL     1      -0.649  11.170  18.898  0.00  0.00    +0.000 C 
ATOM     21  O   UNL     1      -1.137  11.601  17.868  0.00  0.00    +0.000 OA
ATOM     22  C   UNL     1      -0.860  11.706  20.288  0.00  0.00    +0.000 C 
ATOM     23  C   UNL     1      -2.141  12.425  20.668  0.00  0.00    +0.000 C 
ATOM     24  C   UNL     1      -2.076  12.777  22.165  0.00  0.00    +0.000 C 
ATOM     25  C   UNL     1      -1.749  11.567  23.059  0.00  0.00    +0.000 C 
ATOM     26  C   UNL     1      -0.539  10.752  22.563  0.00  0.00    +0.000 C 
ATOM     27  C   UNL     1      -0.738  10.427  21.098  0.00  0.00    +0.000 C 
ATOM     28  C   UNL     1       0.311   9.670  20.321  0.00  0.00    +0.000 C 
ATOM     29  O   UNL     1       0.940   8.714  20.741  0.00  0.00    +0.000 OA
ENDBRANCH  18  19
ENDBRANCH   2  18
TORSDOF 3
ENDMDL
MODEL 5
REMARK VINA RESULT:      -8.4      1.588      2.182
REMARK  Name = 
REMARK  3 active torsions:
REMARK  status: ('A' for Active; 'I' for Inactive)
REMARK    1  A    between atoms: C_2  and  C_3
REMARK    2  A    between atoms: C_3  and  N_4
REMARK    3  A    between atoms: N_15  and  C_16
REMARK                            x       y       z     vdW  Elec       q    Type
REMARK                         _______ _______ _______ _____ _____    ______ ____
ROOT
ATOM      1  O   UNL     1       2.086   8.194  19.888  0.00  0.00    +0.000 OA
ATOM      2  C   UNL     1       2.085   8.193  18.660  0.00  0.00    +0.000 C 
ATOM      3  N   UNL     1       2.876   7.353  17.911  0.00  0.00    +0.000 N 
ATOM      4  H   UNL     1       2.845   7.397  16.900  0.00  0.00    +0.000 HD
ENDROOT
BRANCH   3   5
ATOM      5  C   UNL     1       3.631   6.257  18.485  0.00  0.00    +0.000 C 
ATOM      6  C   UNL     1       2.773   4.996  18.578  0.00  0.00    +0.000 A 
ATOM      7  C   UNL     1       1.629   4.784  19.332  0.00  0.00    +0.000 A 
ATOM      8  C   UNL     1       0.983   3.550  19.217  0.00  0.00    +0.000 A 
ATOM      9  C   UNL     1       1.486   2.550  18.368  0.00  0.00    +0.000 A 
ATOM     10  C   UNL     1       2.658   2.755  17.635  0.00  0.00    +0.000 A 
ATOM     11  C   UNL     1       3.301   3.978  17.752  0.00  0.00    +0.000 A 
ATOM     12  C   UNL     1       4.512   4.463  17.129  0.00  0.00    +0.000 A 
ATOM     13  C   UNL     1       5.398   3.830  16.273  0.00  0.00    +0.000 A 
ATOM     14  C   UNL     1       6.505   4.547  15.814  0.00  0.00    +0.000 A 
ATOM     15  C   UNL     1       6.717   5.877  16.210  0.00  0.00    +0.000 A 
ATOM     16  C   UNL     1       5.827   6.516  17.079  0.00  0.00    +0.000 A 
ATOM     17  C   UNL     1       4.730   5.800  17.532  0.00  0.00    +0.000 A 
ENDBRANCH   3   5
BRANCH   2  18
ATOM     18  C   UNL     1       1.226   9.162  17.838  0.00  0.00    +0.000 C 
BRANCH  18  19
ATOM     19  N   UNL     1       0.897  10.385  18.545  0.00  0.00    +0.000 N 
ATOM     20  C   UNL     1       1.688  11.510  18.506  0.00  0.00    +0.000 C 
ATOM     21  O   UNL     1       2.727  11.658  17.886  0.00  0.00    +0.000 OA
ATOM     22  C   UNL     1       1.040  12.508  19.427  0.00  0.00    +0.000 C 
ATOM     23  C   UNL     1       1.237  14.000  19.235  0.00  0.00    +0.000 C 
ATOM     24  C   UNL     1       0.389  14.742  20.284  0.00  0.00    +0.000 C 
ATOM     25  C   UNL     1      -1.086  14.302  20.292  0.00  0.00    +0.000 C 
ATOM     26  C   UNL     1      -1.267  12.773  20.322  0.00  0.00    +0.000 C 
ATOM     27  C   UNL     1      -0.425  12.161  19.223  0.00  0.00    +0.000 C 
ATOM     28  C   UNL     1      -0.362  10.665  19.033  0.00  0.00    +0.000 C 
ATOM     29  O   UNL     1      -1.314   9.907  19.116  0.00  0.00    +0.000 OA
ENDBRANCH  18  19
ENDBRANCH   2  18
TORSDOF 3
ENDMDL
MODEL 6
REMARK VINA RESULT:      -8.2      1.228      1.690
REMARK  Name = 
REMARK  3 active torsions:
REMARK  status: ('A' for Active; 'I' for Inactive)
REMARK    1  A    between atoms: C_2  and  C_3
REMARK    2  A    between atoms: C_3  and  N_4
REMARK    3  A    between atoms: N_15  and  C_16
REMARK                            x       y       z     vdW  Elec       q    Type
REMARK                         _______ _______ _______ _____ _____    ______ ____
ROOT
ATOM      1  O   UNL     1       2.159   8.292  20.208  0.00  0.00    +0.000 OA
ATOM      2  C   UNL     1       1.902   8.239  19.008  0.00  0.00    +0.000 C 
ATOM      3  N   UNL     1       2.507   7.348  18.152  0.00  0.00    +0.000 N 
ATOM      4  H   UNL     1       2.268   7.348  17.169  0.00  0.00    +0.000 HD
ENDROOT
BRANCH   3   5
ATOM      5  C   UNL     1       3.349   6.259  18.608  0.00  0.00    +0.000 C 
ATOM      6  C   UNL     1       2.518   5.009  18.888  0.00  0.00    +0.000 A 
ATOM      7  C   UNL     1       1.528   4.825  19.841  0.00  0.00    +0.000 A 
ATOM      8  C   UNL     1       0.866   3.594  19.877  0.00  0.00    +0.000 A 
ATOM      9  C   UNL     1       1.204   2.569  18.977  0.00  0.00    +0.000 A 
ATOM     10  C   UNL     1       2.225   2.746  18.040  0.00  0.00    +0.000 A 
ATOM     11  C   UNL     1       2.883   3.966  18.007  0.00  0.00    +0.000 A 
ATOM     12  C   UNL     1       3.963   4.425  17.163  0.00  0.00    +0.000 A 
ATOM     13  C   UNL     1       4.678   3.763  16.178  0.00  0.00    +0.000 A 
ATOM     14  C   UNL     1       5.687   4.459  15.508  0.00  0.00    +0.000 A 
ATOM     15  C   UNL     1       5.972   5.797  15.825  0.00  0.00    +0.000 A 
ATOM     16  C   UNL     1       5.257   6.464  16.823  0.00  0.00    +0.000 A 
ATOM     17  C   UNL     1       4.256   5.770  17.485  0.00  0.00    +0.000 A 
ENDBRANCH   3   5
BRANCH   2  18
ATOM     18  C   UNL     1       0.905   9.191  18.337  0.00  0.00    +0.000 C 
BRANCH  18  19
ATOM     19  N   UNL     1       0.672  10.408  19.091  0.00  0.00    +0.000 N 
ATOM     20  C   UNL     1      -0.144  10.460  20.197  0.00  0.00    +0.000 C 
ATOM     21  O   UNL     1      -0.753   9.535  20.706  0.00  0.00    +0.000 OA
ATOM     22  C   UNL     1      -0.178  11.903  20.623  0.00  0.00    +0.000 C 
ATOM     23  C   UNL     1      -0.460  12.292  22.063  0.00  0.00    +0.000 C 
ATOM     24  C   UNL     1      -0.349  13.823  22.184  0.00  0.00    +0.000 C 
ATOM     25  C   UNL     1       0.977  14.380  21.633  0.00  0.00    +0.000 C 
ATOM     26  C   UNL     1       1.328  13.844  20.232  0.00  0.00    +0.000 C 
ATOM     27  C   UNL     1       1.229  12.334  20.249  0.00  0.00    +0.000 C 
ATOM     28  C   UNL     1       1.475  11.525  18.999  0.00  0.00    +0.000 C 
ATOM     29  O   UNL     1       2.358  11.743  18.185  0.00  0.00    +0.000 OA
ENDBRANCH  18  19
ENDBRANCH   2  18
TORSDOF 3
ENDMDL
MODEL 7
REMARK VINA RESULT:      -8.2      1.720      2.394
REMARK  Name = 
REMARK  3 active torsions:
REMARK  status: ('A' for Active; 'I' for Inactive)
REMARK    1  A    between atoms: C_2  and  C_3
REMARK    2  A    between atoms: C_3  and  N_4
REMARK    3  A    between atoms: N_15  and  C_16
REMARK                            x       y       z     vdW  Elec       q    Type
REMARK                         _______ _______ _______ _____ _____    ______ ____
ROOT
ATOM      1  O   UNL     1       2.964   9.466  18.476  0.00  0.00    +0.000 OA
ATOM      2  C   UNL     1       1.913   8.849  18.319  0.00  0.00    +0.000 C 
ATOM      3  N   UNL     1       1.832   7.478  18.394  0.00  0.00    +0.000 N 
ATOM      4  H   UNL     1       0.943   7.015  18.249  0.00  0.00    +0.000 HD
ENDROOT
BRANCH   3   5
ATOM      5  C   UNL     1       2.923   6.645  18.858  0.00  0.00    +0.000 C 
ATOM      6  C   UNL     1       2.399   5.322  19.415  0.00  0.00    +0.000 A 
ATOM      7  C   UNL     1       1.586   5.111  20.518  0.00  0.00    +0.000 A 
ATOM      8  C   UNL     1       1.194   3.801  20.808  0.00  0.00    +0.000 A 
ATOM      9  C   UNL     1       1.622   2.728  20.008  0.00  0.00    +0.000 A 
ATOM     10  C   UNL     1       2.468   2.941  18.917  0.00  0.00    +0.000 A 
ATOM     11  C   UNL     1       2.859   4.239  18.631  0.00  0.00    +0.000 A 
ATOM     12  C   UNL     1       3.717   4.752  17.587  0.00  0.00    +0.000 A 
ATOM     13  C   UNL     1       4.429   4.087  16.602  0.00  0.00    +0.000 A 
ATOM     14  C   UNL     1       5.191   4.842  15.707  0.00  0.00    +0.000 A 
ATOM     15  C   UNL     1       5.236   6.242  15.805  0.00  0.00    +0.000 A 
ATOM     16  C   UNL     1       4.525   6.915  16.802  0.00  0.00    +0.000 A 
ATOM     17  C   UNL     1       3.770   6.161  17.687  0.00  0.00    +0.000 A 
ENDBRANCH   3   5
BRANCH   2  18
ATOM     18  C   UNL     1       0.590   9.549  17.986  0.00  0.00    +0.000 C 
BRANCH  18  19
ATOM     19  N   UNL     1       0.092  10.387  19.060  0.00  0.00    +0.000 N 
ATOM     20  C   UNL     1      -0.249   9.894  20.299  0.00  0.00    +0.000 C 
ATOM     21  O   UNL     1      -0.173   8.738  20.677  0.00  0.00    +0.000 OA
ATOM     22  C   UNL     1      -0.789  11.063  21.078  0.00  0.00    +0.000 C 
ATOM     23  C   UNL     1      -0.730  11.092  22.594  0.00  0.00    +0.000 C 
ATOM     24  C   UNL     1      -1.289  12.444  23.076  0.00  0.00    +0.000 C 
ATOM     25  C   UNL     1      -0.617  13.653  22.400  0.00  0.00    +0.000 C 
ATOM     26  C   UNL     1      -0.540  13.530  20.867  0.00  0.00    +0.000 C 
ATOM     27  C   UNL     1       0.065  12.187  20.516  0.00  0.00    +0.000 C 
ATOM     28  C   UNL     1       0.227  11.759  19.078  0.00  0.00    +0.000 C 
ATOM     29  O   UNL     1       0.598  12.483  18.169  0.00  0.00    +0.000 OA
ENDBRANCH  18  19
ENDBRANCH   2  18
TORSDOF 3
ENDMDL
MODEL 8
REMARK VINA RESULT:      -8.2      2.174      3.978
REMARK  Name = 
REMARK  3 active torsions:
REMARK  status: ('A' for Active; 'I' for Inactive)
REMARK    1  A    between atoms: C_2  and  C_3
REMARK    2  A    between atoms: C_3  and  N_4
REMARK    3  A    between atoms: N_15  and  C_16
REMARK                            x       y       z     vdW  Elec       q    Type
REMARK                         _______ _______ _______ _____ _____    ______ ____
ROOT
ATOM      1  O   UNL     1       0.196   7.279  20.914  0.00  0.00    +0.000 OA
ATOM      2  C   UNL     1       1.321   7.774  20.931  0.00  0.00    +0.000 C 
ATOM      3  N   UNL     1       2.395   7.214  20.278  0.00  0.00    +0.000 N 
ATOM      4  H   UNL     1       3.304   7.656  20.329  0.00  0.00    +0.000 HD
ENDROOT
BRANCH   3   5
ATOM      5  C   UNL     1       2.268   6.108  19.350  0.00  0.00    +0.000 C 
ATOM      6  C   UNL     1       3.420   6.105  18.347  0.00  0.00    +0.000 A 
ATOM      7  C   UNL     1       3.730   7.055  17.386  0.00  0.00    +0.000 A 
ATOM      8  C   UNL     1       4.873   6.856  16.606  0.00  0.00    +0.000 A 
ATOM      9  C   UNL     1       5.678   5.718  16.786  0.00  0.00    +0.000 A 
ATOM     10  C   UNL     1       5.343   4.746  17.733  0.00  0.00    +0.000 A 
ATOM     11  C   UNL     1       4.208   4.942  18.503  0.00  0.00    +0.000 A 
ATOM     12  C   UNL     1       3.624   4.119  19.538  0.00  0.00    +0.000 A 
ATOM     13  C   UNL     1       4.007   2.879  20.023  0.00  0.00    +0.000 A 
ATOM     14  C   UNL     1       3.249   2.302  21.044  0.00  0.00    +0.000 A 
ATOM     15  C   UNL     1       2.125   2.961  21.567  0.00  0.00    +0.000 A 
ATOM     16  C   UNL     1       1.733   4.208  21.074  0.00  0.00    +0.000 A 
ATOM     17  C   UNL     1       2.488   4.778  20.061  0.00  0.00    +0.000 A 
ENDBRANCH   3   5
BRANCH   2  18
ATOM     18  C   UNL     1       1.646   9.050  21.716  0.00  0.00    +0.000 C 
BRANCH  18  19
ATOM     19  N   UNL     1       0.604  10.056  21.642  0.00  0.00    +0.000 N 
ATOM     20  C   UNL     1      -0.188  10.396  22.714  0.00  0.00    +0.000 C 
ATOM     21  O   UNL     1      -0.130   9.944  23.845  0.00  0.00    +0.000 OA
ATOM     22  C   UNL     1      -1.181  11.402  22.197  0.00  0.00    +0.000 C 
ATOM     23  C   UNL     1      -1.819  12.423  23.120  0.00  0.00    +0.000 C 
ATOM     24  C   UNL     1      -2.719  13.346  22.277  0.00  0.00    +0.000 C 
ATOM     25  C   UNL     1      -1.991  13.963  21.069  0.00  0.00    +0.000 C 
ATOM     26  C   UNL     1      -1.212  12.930  20.233  0.00  0.00    +0.000 C 
ATOM     27  C   UNL     1      -0.332  12.118  21.160  0.00  0.00    +0.000 C 
ATOM     28  C   UNL     1       0.522  10.991  20.632  0.00  0.00    +0.000 C 
ATOM     29  O   UNL     1       1.158  11.022  19.592  0.00  0.00    +0.000 OA
ENDBRANCH  18  19
ENDBRANCH   2  18
TORSDOF 3
ENDMDL
MODEL 9
REMARK VINA RESULT:      -8.2      2.067      4.166
REMARK  Name = 
REMARK  3 active torsions:
REMARK  status: ('A' for Active; 'I' for Inactive)
REMARK    1  A    between atoms: C_2  and  C_3
REMARK    2  A    between atoms: C_3  and  N_4
REMARK    3  A    between atoms: N_15  and  C_16
REMARK                            x       y       z     vdW  Elec       q    Type
REMARK                         _______ _______ _______ _____ _____    ______ ____
ROOT
ATOM      1  O   UNL     1       1.175   8.622  17.591  0.00  0.00    +0.000 OA
ATOM      2  C   UNL     1       1.812   8.621  18.642  0.00  0.00    +0.000 C 
ATOM      3  N   UNL     1       2.349   7.480  19.190  0.00  0.00    +0.000 N 
ATOM      4  H   UNL     1       2.859   7.529  20.063  0.00  0.00    +0.000 HD
ENDROOT
BRANCH   3   5
ATOM      5  C   UNL     1       2.392   6.210  18.490  0.00  0.00    +0.000 C 
ATOM      6  C   UNL     1       3.773   5.972  17.881  0.00  0.00    +0.000 A 
ATOM      7  C   UNL     1       4.415   6.698  16.889  0.00  0.00    +0.000 A 
ATOM      8  C   UNL     1       5.709   6.313  16.524  0.00  0.00    +0.000 A 
ATOM      9  C   UNL     1       6.335   5.216  17.139  0.00  0.00    +0.000 A 
ATOM     10  C   UNL     1       5.671   4.467  18.115  0.00  0.00    +0.000 A 
ATOM     11  C   UNL     1       4.387   4.846  18.474  0.00  0.00    +0.000 A 
ATOM     12  C   UNL     1       3.473   4.267  19.432  0.00  0.00    +0.000 A 
ATOM     13  C   UNL     1       3.602   3.143  20.232  0.00  0.00    +0.000 A 
ATOM     14  C   UNL     1       2.545   2.807  21.082  0.00  0.00    +0.000 A 
ATOM     15  C   UNL     1       1.379   3.588  21.124  0.00  0.00    +0.000 A 
ATOM     16  C   UNL     1       1.244   4.719  20.313  0.00  0.00    +0.000 A 
ATOM     17  C   UNL     1       2.295   5.048  19.472  0.00  0.00    +0.000 A 
ENDBRANCH   3   5
BRANCH   2  18
ATOM     18  C   UNL     1       2.038   9.893  19.468  0.00  0.00    +0.000 C 
BRANCH  18  19
ATOM     19  N   UNL     1       0.842  10.366  20.139  0.00  0.00    +0.000 N 
ATOM     20  C   UNL     1       0.639  10.235  21.493  0.00  0.00    +0.000 C 
ATOM     21  O   UNL     1       1.402   9.744  22.307  0.00  0.00    +0.000 OA
ATOM     22  C   UNL     1      -0.741  10.772  21.762  0.00  0.00    +0.000 C 
ATOM     23  C   UNL     1      -1.115  11.334  23.121  0.00  0.00    +0.000 C 
ATOM     24  C   UNL     1      -2.558  11.866  23.047  0.00  0.00    +0.000 C 
ATOM     25  C   UNL     1      -2.784  12.846  21.881  0.00  0.00    +0.000 C 
ATOM     26  C   UNL     1      -2.249  12.324  20.534  0.00  0.00    +0.000 C 
ATOM     27  C   UNL     1      -0.815  11.875  20.720  0.00  0.00    +0.000 C 
ATOM     28  C   UNL     1      -0.035  11.271  19.578  0.00  0.00    +0.000 C 
ATOM     29  O   UNL     1      -0.060  11.668  18.425  0.00  0.00    +0.000 OA
ENDBRANCH  18  19
ENDBRANCH   2  18
TORSDOF 3
ENDMDL
