MODEL 1
REMARK VINA RESULT:      -8.1      0.000      0.000
REMARK  Name = 
REMARK  8 active torsions:
REMARK  status: ('A' for Active; 'I' for Inactive)
REMARK    1  A    between atoms: C_1  and  C_2
REMARK    2  A    between atoms: C_2  and  C_3
REMARK    3  A    between atoms: C_3  and  C_4
REMARK    4  A    between atoms: C_4  and  C_5
REMARK    5  A    between atoms: C_4  and  C_8
REMARK    6  A    between atoms: C_8  and  C_9
REMARK    7  A    between atoms: C_13  and  N_14
REMARK    8  A    between atoms: C_21  and  C_22
REMARK                            x       y       z     vdW  Elec       q    Type
REMARK                         _______ _______ _______ _____ _____    ______ ____
ROOT
ATOM      1  C   UNL     1       2.244   6.139  20.064  0.00  0.00    +0.000 A 
ATOM      2  C   UNL     1       1.072   5.472  20.450  0.00  0.00    +0.000 A 
ATOM      3  C   UNL     1       1.098   4.107  20.719  0.00  0.00    +0.000 A 
ATOM      4  C   UNL     1       2.254   3.377  20.483  0.00  0.00    +0.000 A 
ATOM      5  C   UNL     1       3.317   3.989  19.804  0.00  0.00    +0.000 A 
ATOM      6  C   UNL     1       3.384   5.385  19.766  0.00  0.00    +0.000 A 
ENDROOT
BRANCH   5   7
ATOM      7  N   UNL     1       3.965   3.263  18.718  0.00  0.00    +0.000 N 
ATOM      8  C   UNL     1       5.439   3.452  18.786  0.00  0.00    +0.000 C 
ATOM      9  C   UNL     1       5.657   4.625  17.881  0.00  0.00    +0.000 A 
ATOM     10  C   UNL     1       4.599   4.657  16.970  0.00  0.00    +0.000 A 
ATOM     11  C   UNL     1       4.396   5.703  16.090  0.00  0.00    +0.000 A 
ATOM     12  C   UNL     1       5.297   6.765  16.145  0.00  0.00    +0.000 A 
ATOM     13  C   UNL     1       6.366   6.752  17.062  0.00  0.00    +0.000 A 
ATOM     14  C   UNL     1       6.571   5.673  17.948  0.00  0.00    +0.000 A 
ATOM     15  C   UNL     1       3.589   3.665  17.409  0.00  0.00    +0.000 C 
ATOM     16  O   UNL     1       2.552   3.440  16.814  0.00  0.00    +0.000 OA
BRANCH  14  17
ATOM     17  C   UNL     1       7.686   5.746  18.960  0.00  0.00    +0.000 C 
ATOM     18  F   UNL     1       7.272   5.680  20.255  0.00  0.00    +0.000 F 
ATOM     19  F   UNL     1       8.581   4.731  18.810  0.00  0.00    +0.000 F 
ATOM     20  F   UNL     1       8.407   6.898  18.860  0.00  0.00    +0.000 F 
ENDBRANCH  14  17
ENDBRANCH   5   7
BRANCH   1  21
ATOM     21  C   UNL     1       2.254   7.633  19.858  0.00  0.00    +0.000 C 
BRANCH  21  22
ATOM     22  C   UNL     1       0.961   8.327  20.332  0.00  0.00    +0.000 C 
BRANCH  22  23
ATOM     23  C   UNL     1       0.673   9.499  19.418  0.00  0.00    +0.000 C 
ATOM     24  C   UNL     1       1.370   9.791  18.365  0.00  0.00    +0.000 C 
ATOM     25  N   UNL     1       2.005  10.037  17.421  0.00  0.00    +0.000 NA
ATOM     26  H   UNL     1       2.253   9.193  16.894  0.00  0.00    +0.000 HD
ENDBRANCH  22  23
BRANCH  22  27
ATOM     27  C   UNL     1       1.042   8.762  21.812  0.00  0.00    +0.000 C 
BRANCH  27  29
ATOM     28  C   UNL     1      -0.573  10.199  23.132  0.00  0.00    +0.000 C 
ATOM     29  C   UNL     1      -0.340   8.852  22.470  0.00  0.00    +0.000 C 
ENDBRANCH  27  29
ENDBRANCH  22  27
ENDBRANCH  21  22
ENDBRANCH   1  21
TORSDOF 7
ENDMDL
MODEL 2
REMARK VINA RESULT:      -8.1      3.239      4.675
REMARK  Name = 
REMARK  8 active torsions:
REMARK  status: ('A' for Active; 'I' for Inactive)
REMARK    1  A    between atoms: C_1  and  C_2
REMARK    2  A    between atoms: C_2  and  C_3
REMARK    3  A    between atoms: C_3  and  C_4
REMARK    4  A    between atoms: C_4  and  C_5
REMARK    5  A    between atoms: C_4  and  C_8
REMARK    6  A    between atoms: C_8  and  C_9
REMARK    7  A    between atoms: C_13  and  N_14
REMARK    8  A    between atoms: C_21  and  C_22
REMARK                            x       y       z     vdW  Elec       q    Type
REMARK                         _______ _______ _______ _____ _____    ______ ____
ROOT
ATOM      1  C   UNL     1       1.256   9.366  19.129  0.00  0.00    +0.000 A 
ATOM      2  C   UNL     1       0.863   8.762  20.332  0.00  0.00    +0.000 A 
ATOM      3  C   UNL     1       1.494   7.604  20.775  0.00  0.00    +0.000 A 
ATOM      4  C   UNL     1       2.427   6.971  19.966  0.00  0.00    +0.000 A 
ATOM      5  C   UNL     1       2.582   7.404  18.642  0.00  0.00    +0.000 A 
ATOM      6  C   UNL     1       2.148   8.687  18.291  0.00  0.00    +0.000 A 
ENDROOT
BRANCH   5   7
ATOM      7  N   UNL     1       2.630   6.406  17.580  0.00  0.00    +0.000 N 
ATOM      8  C   UNL     1       1.707   5.283  17.894  0.00  0.00    +0.000 C 
ATOM      9  C   UNL     1       2.605   4.309  18.593  0.00  0.00    +0.000 A 
ATOM     10  C   UNL     1       3.910   4.554  18.158  0.00  0.00    +0.000 A 
ATOM     11  C   UNL     1       5.016   3.944  18.720  0.00  0.00    +0.000 A 
ATOM     12  C   UNL     1       4.789   3.061  19.773  0.00  0.00    +0.000 A 
ATOM     13  C   UNL     1       3.480   2.808  20.229  0.00  0.00    +0.000 A 
ATOM     14  C   UNL     1       2.357   3.425  19.640  0.00  0.00    +0.000 A 
ATOM     15  C   UNL     1       3.899   5.806  17.366  0.00  0.00    +0.000 C 
ATOM     16  O   UNL     1       4.884   6.284  16.833  0.00  0.00    +0.000 OA
BRANCH  14  17
ATOM     17  C   UNL     1       0.986   3.177  20.216  0.00  0.00    +0.000 C 
ATOM     18  F   UNL     1       0.985   2.440  21.359  0.00  0.00    +0.000 F 
ATOM     19  F   UNL     1       0.344   4.336  20.527  0.00  0.00    +0.000 F 
ATOM     20  F   UNL     1       0.168   2.518  19.349  0.00  0.00    +0.000 F 
ENDBRANCH  14  17
ENDBRANCH   5   7
BRANCH   1  21
ATOM     21  C   UNL     1       0.646  10.669  18.679  0.00  0.00    +0.000 C 
BRANCH  21  22
ATOM     22  C   UNL     1      -0.784  10.895  19.211  0.00  0.00    +0.000 C 
BRANCH  22  23
ATOM     23  C   UNL     1      -1.770  10.310  18.223  0.00  0.00    +0.000 C 
ATOM     24  C   UNL     1      -2.124  10.887  17.118  0.00  0.00    +0.000 C 
ATOM     25  N   UNL     1      -2.427  11.417  16.127  0.00  0.00    +0.000 NA
ATOM     26  H   UNL     1      -1.622  11.844  15.657  0.00  0.00    +0.000 HD
ENDBRANCH  22  23
BRANCH  22  27
ATOM     27  C   UNL     1      -1.072  12.386  19.494  0.00  0.00    +0.000 C 
BRANCH  27  29
ATOM     28  C   UNL     1      -1.064  11.427  21.839  0.00  0.00    +0.000 C 
ATOM     29  C   UNL     1      -1.198  12.682  20.993  0.00  0.00    +0.000 C 
ENDBRANCH  27  29
ENDBRANCH  22  27
ENDBRANCH  21  22
ENDBRANCH   1  21
TORSDOF 7
ENDMDL
MODEL 3
REMARK VINA RESULT:      -7.9      2.670      4.162
REMARK  Name = 
REMARK  8 active torsions:
REMARK  status: ('A' for Active; 'I' for Inactive)
REMARK    1  A    between atoms: C_1  and  C_2
REMARK    2  A    between atoms: C_2  and  C_3
REMARK    3  A    between atoms: C_3  and  C_4
REMARK    4  A    between atoms: C_4  and  C_5
REMARK    5  A    between atoms: C_4  and  C_8
REMARK    6  A    between atoms: C_8  and  C_9
REMARK    7  A    between atoms: C_13  and  N_14
REMARK    8  A    between atoms: C_21  and  C_22
REMARK                            x       y       z     vdW  Elec       q    Type
REMARK                         _______ _______ _______ _____ _____    ______ ____
ROOT
ATOM      1  C   UNL     1       1.459   8.862  19.643  0.00  0.00    +0.000 A 
ATOM      2  C   UNL     1       2.045   9.208  18.418  0.00  0.00    +0.000 A 
ATOM      3  C   UNL     1       2.604   8.227  17.604  0.00  0.00    +0.000 A 
ATOM      4  C   UNL     1       2.697   6.920  18.062  0.00  0.00    +0.000 A 
ATOM      5  C   UNL     1       2.397   6.647  19.403  0.00  0.00    +0.000 A 
ATOM      6  C   UNL     1       1.616   7.557  20.124  0.00  0.00    +0.000 A 
ENDROOT
BRANCH   5   7
ATOM      7  N   UNL     1       3.309   5.804  20.167  0.00  0.00    +0.000 N 
ATOM      8  C   UNL     1       4.510   5.482  19.351  0.00  0.00    +0.000 C 
ATOM      9  C   UNL     1       4.134   4.178  18.719  0.00  0.00    +0.000 A 
ATOM     10  C   UNL     1       3.186   3.568  19.544  0.00  0.00    +0.000 A 
ATOM     11  C   UNL     1       2.501   2.423  19.184  0.00  0.00    +0.000 A 
ATOM     12  C   UNL     1       2.781   1.882  17.930  0.00  0.00    +0.000 A 
ATOM     13  C   UNL     1       3.729   2.489  17.082  0.00  0.00    +0.000 A 
ATOM     14  C   UNL     1       4.432   3.650  17.466  0.00  0.00    +0.000 A 
ATOM     15  C   UNL     1       2.780   4.551  20.576  0.00  0.00    +0.000 C 
ATOM     16  O   UNL     1       1.976   4.319  21.460  0.00  0.00    +0.000 OA
BRANCH  14  17
ATOM     17  C   UNL     1       5.378   4.300  16.489  0.00  0.00    +0.000 C 
ATOM     18  F   UNL     1       6.586   4.634  17.019  0.00  0.00    +0.000 F 
ATOM     19  F   UNL     1       5.654   3.493  15.428  0.00  0.00    +0.000 F 
ATOM     20  F   UNL     1       4.874   5.451  15.961  0.00  0.00    +0.000 F 
ENDBRANCH  14  17
ENDBRANCH   5   7
BRANCH   1  21
ATOM     21  C   UNL     1       0.768   9.898  20.493  0.00  0.00    +0.000 C 
BRANCH  21  22
ATOM     22  C   UNL     1      -0.117  10.866  19.684  0.00  0.00    +0.000 C 
BRANCH  22  23
ATOM     23  C   UNL     1      -0.464  12.056  20.554  0.00  0.00    +0.000 C 
ATOM     24  C   UNL     1      -0.583  12.005  21.843  0.00  0.00    +0.000 C 
ATOM     25  N   UNL     1      -0.683  11.943  23.001  0.00  0.00    +0.000 NA
ATOM     26  H   UNL     1       0.052  11.364  23.420  0.00  0.00    +0.000 HD
ENDBRANCH  22  23
BRANCH  22  27
ATOM     27  C   UNL     1      -1.382  10.174  19.130  0.00  0.00    +0.000 C 
BRANCH  27  29
ATOM     28  C   UNL     1      -2.793  10.047  17.029  0.00  0.00    +0.000 C 
ATOM     29  C   UNL     1      -1.385  10.101  17.599  0.00  0.00    +0.000 C 
ENDBRANCH  27  29
ENDBRANCH  22  27
ENDBRANCH  21  22
ENDBRANCH   1  21
TORSDOF 7
ENDMDL
MODEL 4
REMARK VINA RESULT:      -7.9      1.999      3.002
REMARK  Name = 
REMARK  8 active torsions:
REMARK  status: ('A' for Active; 'I' for Inactive)
REMARK    1  A    between atoms: C_1  and  C_2
REMARK    2  A    between atoms: C_2  and  C_3
REMARK    3  A    between atoms: C_3  and  C_4
REMARK    4  A    between atoms: C_4  and  C_5
REMARK    5  A    between atoms: C_4  and  C_8
REMARK    6  A    between atoms: C_8  and  C_9
REMARK    7  A    between atoms: C_13  and  N_14
REMARK    8  A    between atoms: C_21  and  C_22
REMARK                            x       y       z     vdW  Elec       q    Type
REMARK                         _______ _______ _______ _____ _____    ______ ____
ROOT
ATOM      1  C   UNL     1       1.989   7.297  19.775  0.00  0.00    +0.000 A 
ATOM      2  C   UNL     1       2.465   8.166  18.783  0.00  0.00    +0.000 A 
ATOM      3  C   UNL     1       3.081   7.658  17.642  0.00  0.00    +0.000 A 
ATOM      4  C   UNL     1       3.339   6.299  17.543  0.00  0.00    +0.000 A 
ATOM      5  C   UNL     1       3.146   5.486  18.668  0.00  0.00    +0.000 A 
ATOM      6  C   UNL     1       2.313   5.938  19.697  0.00  0.00    +0.000 A 
ENDROOT
BRANCH   5   7
ATOM      7  N   UNL     1       4.185   4.528  19.028  0.00  0.00    +0.000 N 
ATOM      8  C   UNL     1       5.492   5.223  19.169  0.00  0.00    +0.000 C 
ATOM      9  C   UNL     1       6.088   5.073  17.803  0.00  0.00    +0.000 A 
ATOM     10  C   UNL     1       5.518   3.942  17.217  0.00  0.00    +0.000 A 
ATOM     11  C   UNL     1       5.721   3.598  15.893  0.00  0.00    +0.000 A 
ATOM     12  C   UNL     1       6.526   4.443  15.132  0.00  0.00    +0.000 A 
ATOM     13  C   UNL     1       7.104   5.592  15.706  0.00  0.00    +0.000 A 
ATOM     14  C   UNL     1       6.900   5.927  17.061  0.00  0.00    +0.000 A 
ATOM     15  C   UNL     1       4.406   3.489  18.086  0.00  0.00    +0.000 C 
ATOM     16  O   UNL     1       3.716   2.513  17.857  0.00  0.00    +0.000 OA
BRANCH  14  17
ATOM     17  C   UNL     1       7.480   7.209  17.604  0.00  0.00    +0.000 C 
ATOM     18  F   UNL     1       6.553   8.153  17.919  0.00  0.00    +0.000 F 
ATOM     19  F   UNL     1       8.197   7.005  18.743  0.00  0.00    +0.000 F 
ATOM     20  F   UNL     1       8.335   7.807  16.727  0.00  0.00    +0.000 F 
ENDBRANCH  14  17
ENDBRANCH   5   7
BRANCH   1  21
ATOM     21  C   UNL     1       1.239   7.825  20.973  0.00  0.00    +0.000 C 
BRANCH  21  22
ATOM     22  C   UNL     1       0.902   9.326  20.874  0.00  0.00    +0.000 C 
BRANCH  22  23
ATOM     23  C   UNL     1       0.862   9.910  22.270  0.00  0.00    +0.000 C 
ATOM     24  C   UNL     1      -0.229  10.175  22.918  0.00  0.00    +0.000 C 
ATOM     25  N   UNL     1      -1.218  10.404  23.487  0.00  0.00    +0.000 NA
ATOM     26  H   UNL     1      -1.914   9.661  23.363  0.00  0.00    +0.000 HD
ENDBRANCH  22  23
BRANCH  22  27
ATOM     27  C   UNL     1      -0.416   9.579  20.110  0.00  0.00    +0.000 C 
BRANCH  27  29
ATOM     28  C   UNL     1      -1.398  10.215  17.863  0.00  0.00    +0.000 C 
ATOM     29  C   UNL     1      -0.188  10.303  18.778  0.00  0.00    +0.000 C 
ENDBRANCH  27  29
ENDBRANCH  22  27
ENDBRANCH  21  22
ENDBRANCH   1  21
TORSDOF 7
ENDMDL
MODEL 5
REMARK VINA RESULT:      -7.8      3.931      7.764
REMARK  Name = 
REMARK  8 active torsions:
REMARK  status: ('A' for Active; 'I' for Inactive)
REMARK    1  A    between atoms: C_1  and  C_2
REMARK    2  A    between atoms: C_2  and  C_3
REMARK    3  A    between atoms: C_3  and  C_4
REMARK    4  A    between atoms: C_4  and  C_5
REMARK    5  A    between atoms: C_4  and  C_8
REMARK    6  A    between atoms: C_8  and  C_9
REMARK    7  A    between atoms: C_13  and  N_14
REMARK    8  A    between atoms: C_21  and  C_22
REMARK                            x       y       z     vdW  Elec       q    Type
REMARK                         _______ _______ _______ _____ _____    ______ ____
ROOT
ATOM      1  C   UNL     1       6.131   4.249  14.909  0.00  0.00    +0.000 A 
ATOM      2  C   UNL     1       6.417   5.433  15.604  0.00  0.00    +0.000 A 
ATOM      3  C   UNL     1       6.025   5.580  16.932  0.00  0.00    +0.000 A 
ATOM      4  C   UNL     1       5.238   4.607  17.532  0.00  0.00    +0.000 A 
ATOM      5  C   UNL     1       4.698   3.585  16.739  0.00  0.00    +0.000 A 
ATOM      6  C   UNL     1       5.283   3.306  15.500  0.00  0.00    +0.000 A 
ENDROOT
BRANCH   5   7
ATOM      7  N   UNL     1       3.289   3.245  16.900  0.00  0.00    +0.000 N 
ATOM      8  C   UNL     1       2.471   4.485  16.976  0.00  0.00    +0.000 C 
ATOM      9  C   UNL     1       2.387   4.728  18.451  0.00  0.00    +0.000 A 
ATOM     10  C   UNL     1       2.557   3.499  19.091  0.00  0.00    +0.000 A 
ATOM     11  C   UNL     1       2.697   3.377  20.461  0.00  0.00    +0.000 A 
ATOM     12  C   UNL     1       2.674   4.552  21.210  0.00  0.00    +0.000 A 
ATOM     13  C   UNL     1       2.509   5.801  20.580  0.00  0.00    +0.000 A 
ATOM     14  C   UNL     1       2.355   5.913  19.182  0.00  0.00    +0.000 A 
ATOM     15  C   UNL     1       2.972   2.507  18.070  0.00  0.00    +0.000 C 
ATOM     16  O   UNL     1       3.185   1.333  18.308  0.00  0.00    +0.000 OA
BRANCH  14  17
ATOM     17  C   UNL     1       2.259   7.280  18.554  0.00  0.00    +0.000 C 
ATOM     18  F   UNL     1       1.309   7.385  17.586  0.00  0.00    +0.000 F 
ATOM     19  F   UNL     1       1.959   8.244  19.467  0.00  0.00    +0.000 F 
ATOM     20  F   UNL     1       3.427   7.669  17.970  0.00  0.00    +0.000 F 
ENDBRANCH  14  17
ENDBRANCH   5   7
BRANCH   1  21
ATOM     21  C   UNL     1       6.628   4.037  13.501  0.00  0.00    +0.000 C 
BRANCH  21  22
ATOM     22  C   UNL     1       5.691   3.161  12.645  0.00  0.00    +0.000 C 
BRANCH  22  23
ATOM     23  C   UNL     1       6.521   2.407  11.628  0.00  0.00    +0.000 C 
ATOM     24  C   UNL     1       6.384   1.145  11.368  0.00  0.00    +0.000 C 
ATOM     25  N   UNL     1       6.245   0.011  11.143  0.00  0.00    +0.000 NA
ATOM     26  H   UNL     1       5.255  -0.254  11.102  0.00  0.00    +0.000 HD
ENDBRANCH  22  23
BRANCH  22  27
ATOM     27  C   UNL     1       4.575   3.989  11.971  0.00  0.00    +0.000 C 
BRANCH  27  29
ATOM     28  C   UNL     1       3.126   4.031   9.892  0.00  0.00    +0.000 C 
ATOM     29  C   UNL     1       3.761   3.164  10.968  0.00  0.00    +0.000 C 
ENDBRANCH  27  29
ENDBRANCH  22  27
ENDBRANCH  21  22
ENDBRANCH   1  21
TORSDOF 7
ENDMDL
MODEL 6
REMARK VINA RESULT:      -7.8      4.609      8.184
REMARK  Name = 
REMARK  8 active torsions:
REMARK  status: ('A' for Active; 'I' for Inactive)
REMARK    1  A    between atoms: C_1  and  C_2
REMARK    2  A    between atoms: C_2  and  C_3
REMARK    3  A    between atoms: C_3  and  C_4
REMARK    4  A    between atoms: C_4  and  C_5
REMARK    5  A    between atoms: C_4  and  C_8
REMARK    6  A    between atoms: C_8  and  C_9
REMARK    7  A    between atoms: C_13  and  N_14
REMARK    8  A    between atoms: C_21  and  C_22
REMARK                            x       y       z     vdW  Elec       q    Type
REMARK                         _______ _______ _______ _____ _____    ______ ____
ROOT
ATOM      1  C   UNL     1       2.200   6.822  19.363  0.00  0.00    +0.000 A 
ATOM      2  C   UNL     1       2.235   7.349  18.064  0.00  0.00    +0.000 A 
ATOM      3  C   UNL     1       2.014   8.707  17.851  0.00  0.00    +0.000 A 
ATOM      4  C   UNL     1       1.634   9.520  18.909  0.00  0.00    +0.000 A 
ATOM      5  C   UNL     1       1.298   8.928  20.134  0.00  0.00    +0.000 A 
ATOM      6  C   UNL     1       1.752   7.634  20.410  0.00  0.00    +0.000 A 
ENDROOT
BRANCH   5   7
ATOM      7  N   UNL     1       0.083   9.365  20.813  0.00  0.00    +0.000 N 
ATOM      8  C   UNL     1      -1.077   9.281  19.887  0.00  0.00    +0.000 C 
ATOM      9  C   UNL     1      -1.130  10.660  19.307  0.00  0.00    +0.000 A 
ATOM     10  C   UNL     1      -0.535  11.526  20.227  0.00  0.00    +0.000 A 
ATOM     11  C   UNL     1      -0.268  12.854  19.946  0.00  0.00    +0.000 A 
ATOM     12  C   UNL     1      -0.609  13.317  18.676  0.00  0.00    +0.000 A 
ATOM     13  C   UNL     1      -1.204  12.454  17.734  0.00  0.00    +0.000 A 
ATOM     14  C   UNL     1      -1.483  11.105  18.035  0.00  0.00    +0.000 A 
ATOM     15  C   UNL     1       0.098  10.704  21.284  0.00  0.00    +0.000 C 
ATOM     16  O   UNL     1       0.688  11.164  22.244  0.00  0.00    +0.000 OA
BRANCH  14  17
ATOM     17  C   UNL     1      -2.050  10.208  16.965  0.00  0.00    +0.000 C 
ATOM     18  F   UNL     1      -3.207   9.583  17.313  0.00  0.00    +0.000 F 
ATOM     19  F   UNL     1      -2.332  10.890  15.821  0.00  0.00    +0.000 F 
ATOM     20  F   UNL     1      -1.187   9.216  16.605  0.00  0.00    +0.000 F 
ENDBRANCH  14  17
ENDBRANCH   5   7
BRANCH   1  21
ATOM     21  C   UNL     1       2.527   5.373  19.621  0.00  0.00    +0.000 C 
BRANCH  21  22
ATOM     22  C   UNL     1       1.330   4.425  19.401  0.00  0.00    +0.000 C 
BRANCH  22  23
ATOM     23  C   UNL     1       1.093   3.635  20.670  0.00  0.00    +0.000 C 
ATOM     24  C   UNL     1       2.022   3.012  21.325  0.00  0.00    +0.000 C 
ATOM     25  N   UNL     1       2.869   2.461  21.903  0.00  0.00    +0.000 NA
ATOM     26  H   UNL     1       3.725   3.021  21.956  0.00  0.00    +0.000 HD
ENDBRANCH  22  23
BRANCH  22  27
ATOM     27  C   UNL     1       1.536   3.500  18.181  0.00  0.00    +0.000 C 
BRANCH  27  29
ATOM     28  C   UNL     1       3.526   1.939  18.023  0.00  0.00    +0.000 C 
ATOM     29  C   UNL     1       3.015   3.354  17.802  0.00  0.00    +0.000 C 
ENDBRANCH  27  29
ENDBRANCH  22  27
ENDBRANCH  21  22
ENDBRANCH   1  21
TORSDOF 7
ENDMDL
MODEL 7
REMARK VINA RESULT:      -7.8      3.315      4.695
REMARK  Name = 
REMARK  8 active torsions:
REMARK  status: ('A' for Active; 'I' for Inactive)
REMARK    1  A    between atoms: C_1  and  C_2
REMARK    2  A    between atoms: C_2  and  C_3
REMARK    3  A    between atoms: C_3  and  C_4
REMARK    4  A    between atoms: C_4  and  C_5
REMARK    5  A    between atoms: C_4  and  C_8
REMARK    6  A    between atoms: C_8  and  C_9
REMARK    7  A    between atoms: C_13  and  N_14
REMARK    8  A    between atoms: C_21  and  C_22
REMARK                            x       y       z     vdW  Elec       q    Type
REMARK                         _______ _______ _______ _____ _____    ______ ____
ROOT
ATOM      1  C   UNL     1       1.569   8.938  18.675  0.00  0.00    +0.000 A 
ATOM      2  C   UNL     1       1.282   8.481  19.969  0.00  0.00    +0.000 A 
ATOM      3  C   UNL     1       1.977   7.399  20.502  0.00  0.00    +0.000 A 
ATOM      4  C   UNL     1       2.866   6.690  19.707  0.00  0.00    +0.000 A 
ATOM      5  C   UNL     1       2.912   6.958  18.332  0.00  0.00    +0.000 A 
ATOM      6  C   UNL     1       2.417   8.178  17.861  0.00  0.00    +0.000 A 
ENDROOT
BRANCH   5   7
ATOM      7  N   UNL     1       2.912   5.837  17.400  0.00  0.00    +0.000 N 
ATOM      8  C   UNL     1       1.884   4.840  17.802  0.00  0.00    +0.000 C 
ATOM      9  C   UNL     1       2.669   3.889  18.652  0.00  0.00    +0.000 A 
ATOM     10  C   UNL     1       4.004   3.971  18.252  0.00  0.00    +0.000 A 
ATOM     11  C   UNL     1       5.033   3.347  18.932  0.00  0.00    +0.000 A 
ATOM     12  C   UNL     1       4.693   2.620  20.072  0.00  0.00    +0.000 A 
ATOM     13  C   UNL     1       3.351   2.532  20.493  0.00  0.00    +0.000 A 
ATOM     14  C   UNL     1       2.308   3.163  19.784  0.00  0.00    +0.000 A 
ATOM     15  C   UNL     1       4.131   5.114  17.317  0.00  0.00    +0.000 C 
ATOM     16  O   UNL     1       5.171   5.441  16.777  0.00  0.00    +0.000 OA
BRANCH  14  17
ATOM     17  C   UNL     1       0.901   3.100  20.322  0.00  0.00    +0.000 C 
ATOM     18  F   UNL     1       0.318   4.315  20.508  0.00  0.00    +0.000 F 
ATOM     19  F   UNL     1       0.066   2.416  19.493  0.00  0.00    +0.000 F 
ATOM     20  F   UNL     1       0.832   2.467  21.527  0.00  0.00    +0.000 F 
ENDBRANCH  14  17
ENDBRANCH   5   7
BRANCH   1  21
ATOM     21  C   UNL     1       0.891  10.164  18.117  0.00  0.00    +0.000 C 
BRANCH  21  22
ATOM     22  C   UNL     1      -0.524  10.396  18.686  0.00  0.00    +0.000 C 
BRANCH  22  23
ATOM     23  C   UNL     1      -1.528  10.279  17.560  0.00  0.00    +0.000 C 
ATOM     24  C   UNL     1      -2.507  11.106  17.367  0.00  0.00    +0.000 C 
ATOM     25  N   UNL     1      -3.380  11.860  17.208  0.00  0.00    +0.000 NA
ATOM     26  H   UNL     1      -3.081  12.830  17.355  0.00  0.00    +0.000 HD
ENDBRANCH  22  23
BRANCH  22  27
ATOM     27  C   UNL     1      -0.642  11.750  19.420  0.00  0.00    +0.000 C 
BRANCH  27  29
ATOM     28  C   UNL     1      -2.180  12.479  21.296  0.00  0.00    +0.000 C 
ATOM     29  C   UNL     1      -1.020  11.583  20.896  0.00  0.00    +0.000 C 
ENDBRANCH  27  29
ENDBRANCH  22  27
ENDBRANCH  21  22
ENDBRANCH   1  21
TORSDOF 7
ENDMDL
MODEL 8
REMARK VINA RESULT:      -7.8      3.516      7.125
REMARK  Name = 
REMARK  8 active torsions:
REMARK  status: ('A' for Active; 'I' for Inactive)
REMARK    1  A    between atoms: C_1  and  C_2
REMARK    2  A    between atoms: C_2  and  C_3
REMARK    3  A    between atoms: C_3  and  C_4
REMARK    4  A    between atoms: C_4  and  C_5
REMARK    5  A    between atoms: C_4  and  C_8
REMARK    6  A    between atoms: C_8  and  C_9
REMARK    7  A    between atoms: C_13  and  N_14
REMARK    8  A    between atoms: C_21  and  C_22
REMARK                            x       y       z     vdW  Elec       q    Type
REMARK                         _______ _______ _______ _____ _____    ______ ____
ROOT
ATOM      1  C   UNL     1       5.799   4.548  16.161  0.00  0.00    +0.000 A 
ATOM      2  C   UNL     1       6.303   5.039  17.374  0.00  0.00    +0.000 A 
ATOM      3  C   UNL     1       5.899   4.477  18.581  0.00  0.00    +0.000 A 
ATOM      4  C   UNL     1       4.900   3.514  18.596  0.00  0.00    +0.000 A 
ATOM      5  C   UNL     1       4.185   3.259  17.417  0.00  0.00    +0.000 A 
ATOM      6  C   UNL     1       4.746   3.626  16.190  0.00  0.00    +0.000 A 
ENDROOT
BRANCH   5   7
ATOM      7  N   UNL     1       2.731   3.174  17.484  0.00  0.00    +0.000 N 
ATOM      8  C   UNL     1       2.131   4.509  17.219  0.00  0.00    +0.000 C 
ATOM      9  C   UNL     1       1.973   5.074  18.596  0.00  0.00    +0.000 A 
ATOM     10  C   UNL     1       1.884   3.999  19.484  0.00  0.00    +0.000 A 
ATOM     11  C   UNL     1       1.894   4.156  20.858  0.00  0.00    +0.000 A 
ATOM     12  C   UNL     1       2.011   5.455  21.349  0.00  0.00    +0.000 A 
ATOM     13  C   UNL     1       2.108   6.550  20.468  0.00  0.00    +0.000 A 
ATOM     14  C   UNL     1       2.085   6.379  19.067  0.00  0.00    +0.000 A 
ATOM     15  C   UNL     1       2.204   2.761  18.736  0.00  0.00    +0.000 C 
ATOM     16  O   UNL     1       2.197   1.647  19.226  0.00  0.00    +0.000 OA
BRANCH  14  17
ATOM     17  C   UNL     1       2.270   7.577  18.171  0.00  0.00    +0.000 C 
ATOM     18  F   UNL     1       1.299   7.727  17.230  0.00  0.00    +0.000 F 
ATOM     19  F   UNL     1       2.284   8.744  18.872  0.00  0.00    +0.000 F 
ATOM     20  F   UNL     1       3.448   7.539  17.486  0.00  0.00    +0.000 F 
ENDBRANCH  14  17
ENDBRANCH   5   7
BRANCH   1  21
ATOM     21  C   UNL     1       6.294   5.084  14.841  0.00  0.00    +0.000 C 
BRANCH  21  22
ATOM     22  C   UNL     1       6.323   4.025  13.720  0.00  0.00    +0.000 C 
BRANCH  22  23
ATOM     23  C   UNL     1       7.346   4.439  12.684  0.00  0.00    +0.000 C 
ATOM     24  C   UNL     1       8.245   5.352  12.871  0.00  0.00    +0.000 C 
ATOM     25  N   UNL     1       9.049   6.174  13.058  0.00  0.00    +0.000 NA
ATOM     26  H   UNL     1       9.460   6.103  13.994  0.00  0.00    +0.000 HD
ENDBRANCH  22  23
BRANCH  22  27
ATOM     27  C   UNL     1       4.929   3.803  13.092  0.00  0.00    +0.000 C 
BRANCH  27  29
ATOM     28  C   UNL     1       3.739   3.262  10.922  0.00  0.00    +0.000 C 
ATOM     29  C   UNL     1       5.006   3.081  11.742  0.00  0.00    +0.000 C 
ENDBRANCH  27  29
ENDBRANCH  22  27
ENDBRANCH  21  22
ENDBRANCH   1  21
TORSDOF 7
ENDMDL
MODEL 9
REMARK VINA RESULT:      -7.8      2.325      3.780
REMARK  Name = 
REMARK  8 active torsions:
REMARK  status: ('A' for Active; 'I' for Inactive)
REMARK    1  A    between atoms: C_1  and  C_2
REMARK    2  A    between atoms: C_2  and  C_3
REMARK    3  A    between atoms: C_3  and  C_4
REMARK    4  A    between atoms: C_4  and  C_5
REMARK    5  A    between atoms: C_4  and  C_8
REMARK    6  A    between atoms: C_8  and  C_9
REMARK    7  A    between atoms: C_13  and  N_14
REMARK    8  A    between atoms: C_21  and  C_22
REMARK                            x       y       z     vdW  Elec       q    Type
REMARK                         _______ _______ _______ _____ _____    ______ ____
ROOT
ATOM      1  C   UNL     1       1.604   9.299  19.434  0.00  0.00    +0.000 A 
ATOM      2  C   UNL     1       2.145   9.508  18.157  0.00  0.00    +0.000 A 
ATOM      3  C   UNL     1       2.548   8.426  17.380  0.00  0.00    +0.000 A 
ATOM      4  C   UNL     1       2.532   7.146  17.916  0.00  0.00    +0.000 A 
ATOM      5  C   UNL     1       2.290   6.986  19.287  0.00  0.00    +0.000 A 
ATOM      6  C   UNL     1       1.655   8.016  19.989  0.00  0.00    +0.000 A 
ENDROOT
BRANCH   5   7
ATOM      7  N   UNL     1       3.156   6.096  20.052  0.00  0.00    +0.000 N 
ATOM      8  C   UNL     1       4.344   5.720  19.241  0.00  0.00    +0.000 C 
ATOM      9  C   UNL     1       3.907   4.438  18.602  0.00  0.00    +0.000 A 
ATOM     10  C   UNL     1       2.927   3.872  19.420  0.00  0.00    +0.000 A 
ATOM     11  C   UNL     1       2.188   2.763  19.051  0.00  0.00    +0.000 A 
ATOM     12  C   UNL     1       2.447   2.214  17.796  0.00  0.00    +0.000 A 
ATOM     13  C   UNL     1       3.429   2.776  16.956  0.00  0.00    +0.000 A 
ATOM     14  C   UNL     1       4.185   3.901  17.347  0.00  0.00    +0.000 A 
ATOM     15  C   UNL     1       2.564   4.870  20.454  0.00  0.00    +0.000 C 
ATOM     16  O   UNL     1       1.745   4.674  21.332  0.00  0.00    +0.000 OA
BRANCH  14  17
ATOM     17  C   UNL     1       5.168   4.507  16.378  0.00  0.00    +0.000 C 
ATOM     18  F   UNL     1       4.870   5.780  16.001  0.00  0.00    +0.000 F 
ATOM     19  F   UNL     1       6.427   4.564  16.893  0.00  0.00    +0.000 F 
ATOM     20  F   UNL     1       5.269   3.793  15.222  0.00  0.00    +0.000 F 
ENDBRANCH  14  17
ENDBRANCH   5   7
BRANCH   1  21
ATOM     21  C   UNL     1       1.080  10.453  20.252  0.00  0.00    +0.000 C 
BRANCH  21  22
ATOM     22  C   UNL     1      -0.433  10.366  20.537  0.00  0.00    +0.000 C 
BRANCH  22  23
ATOM     23  C   UNL     1      -1.180  10.360  19.221  0.00  0.00    +0.000 C 
ATOM     24  C   UNL     1      -1.224  11.365  18.403  0.00  0.00    +0.000 C 
ATOM     25  N   UNL     1      -1.251  12.276  17.679  0.00  0.00    +0.000 NA
ATOM     26  H   UNL     1      -0.334  12.729  17.598  0.00  0.00    +0.000 HD
ENDBRANCH  22  23
BRANCH  22  27
ATOM     27  C   UNL     1      -0.917  11.502  21.465  0.00  0.00    +0.000 C 
BRANCH  27  29
ATOM     28  C   UNL     1      -0.619   9.612  23.125  0.00  0.00    +0.000 C 
ATOM     29  C   UNL     1      -0.914  11.092  22.942  0.00  0.00    +0.000 C 
ENDBRANCH  27  29
ENDBRANCH  22  27
ENDBRANCH  21  22
ENDBRANCH   1  21
TORSDOF 7
ENDMDL
