MODEL 1
REMARK VINA RESULT:      -8.4      0.000      0.000
REMARK  Name = 
REMARK  5 active torsions:
REMARK  status: ('A' for Active; 'I' for Inactive)
REMARK    1  A    between atoms: C_2  and  C_4
REMARK    2  A    between atoms: C_4  and  C_5
REMARK    3  A    between atoms: N_13  and  C_14
REMARK    4  A    between atoms: C_14  and  C_15
REMARK    5  A    between atoms: C_17  and  C_18
REMARK                            x       y       z     vdW  Elec       q    Type
REMARK                         _______ _______ _______ _____ _____    ______ ____
ROOT
ATOM      1  C   UNL     1       3.709   4.013  18.163  0.00  0.00    +0.000 C 
ATOM      2  C   UNL     1       4.069   4.059  19.661  0.00  0.00    +0.000 C 
ATOM      3  C   UNL     1       2.789   4.516  20.319  0.00  0.00    +0.000 C 
ATOM      4  N   UNL     1       2.296   5.596  19.455  0.00  0.00    +0.000 NA
ATOM      5  C   UNL     1       2.664   5.180  18.073  0.00  0.00    +0.000 C 
ENDROOT
BRANCH   1   6
ATOM      6  C   UNL     1       4.955   4.190  17.283  0.00  0.00    +0.000 A 
ATOM      7  C   UNL     1       4.883   4.077  15.884  0.00  0.00    +0.000 A 
ATOM      8  C   UNL     1       6.005   4.305  15.083  0.00  0.00    +0.000 A 
ATOM      9  C   UNL     1       7.231   4.615  15.665  0.00  0.00    +0.000 A 
ATOM     10  C   UNL     1       7.342   4.671  17.050  0.00  0.00    +0.000 A 
ATOM     11  C   UNL     1       6.218   4.453  17.850  0.00  0.00    +0.000 A 
ENDBRANCH   1   6
BRANCH   1  13
ATOM     12  N   UNL     1       3.584   1.518  18.001  0.00  0.00    +0.000 N 
ATOM     13  C   UNL     1       2.977   2.713  17.741  0.00  0.00    +0.000 C 
ATOM     14  O   UNL     1       1.909   2.702  17.130  0.00  0.00    +0.000 OA
ATOM     15  H   UNL     1       3.116   0.696  17.640  0.00  0.00    +0.000 HD
ATOM     16  H   UNL     1       4.556   1.428  18.252  0.00  0.00    +0.000 HD
ENDBRANCH   1  13
BRANCH   4  17
ATOM     17  C   UNL     1       2.879   6.924  19.765  0.00  0.00    +0.000 C 
BRANCH  17  18
ATOM     18  C   UNL     1       2.131   8.054  19.147  0.00  0.00    +0.000 A 
ATOM     19  N   UNL     1       1.039   8.648  19.572  0.00  0.00    +0.000 NA
ATOM     20  C   UNL     1       0.729   9.478  18.520  0.00  0.00    +0.000 A 
ATOM     21  N   UNL     1       1.630   9.460  17.524  0.00  0.00    +0.000 NA
ATOM     22  O   UNL     1       2.559   8.504  17.935  0.00  0.00    +0.000 OA
BRANCH  20  23
ATOM     23  C   UNL     1      -0.516  10.236  18.488  0.00  0.00    +0.000 A 
ATOM     24  C   UNL     1      -0.840  11.128  19.520  0.00  0.00    +0.000 A 
ATOM     25  C   UNL     1      -2.006  11.895  19.456  0.00  0.00    +0.000 A 
ATOM     26  C   UNL     1      -2.856  11.783  18.357  0.00  0.00    +0.000 A 
ATOM     27  C   UNL     1      -2.541  10.894  17.329  0.00  0.00    +0.000 A 
ATOM     28 BR   UNL     1      -3.676  10.762  15.824  0.00  0.00    +0.000 Br
ATOM     29  C   UNL     1      -1.383  10.115  17.392  0.00  0.00    +0.000 A 
ENDBRANCH  20  23
ENDBRANCH  17  18
ENDBRANCH   4  17
TORSDOF 5
ENDMDL
MODEL 2
REMARK VINA RESULT:      -8.3      1.063      1.686
REMARK  Name = 
REMARK  5 active torsions:
REMARK  status: ('A' for Active; 'I' for Inactive)
REMARK    1  A    between atoms: C_2  and  C_4
REMARK    2  A    between atoms: C_4  and  C_5
REMARK    3  A    between atoms: N_13  and  C_14
REMARK    4  A    between atoms: C_14  and  C_15
REMARK    5  A    between atoms: C_17  and  C_18
REMARK                            x       y       z     vdW  Elec       q    Type
REMARK                         _______ _______ _______ _____ _____    ______ ____
ROOT
ATOM      1  C   UNL     1       3.693   4.144  18.152  0.00  0.00    +0.000 C 
ATOM      2  C   UNL     1       4.032   4.191  19.655  0.00  0.00    +0.000 C 
ATOM      3  C   UNL     1       2.739   4.636  20.296  0.00  0.00    +0.000 C 
ATOM      4  N   UNL     1       2.250   5.713  19.427  0.00  0.00    +0.000 NA
ATOM      5  C   UNL     1       2.641   5.303  18.049  0.00  0.00    +0.000 C 
ENDROOT
BRANCH   1   6
ATOM      6  C   UNL     1       4.950   4.333  17.290  0.00  0.00    +0.000 A 
ATOM      7  C   UNL     1       6.200   4.607  17.871  0.00  0.00    +0.000 A 
ATOM      8  C   UNL     1       7.352   4.712  17.088  0.00  0.00    +0.000 A 
ATOM      9  C   UNL     1       7.275   4.582  15.705  0.00  0.00    +0.000 A 
ATOM     10  C   UNL     1       6.041   4.372  15.100  0.00  0.00    +0.000 A 
ATOM     11  C   UNL     1       4.890   4.258  15.884  0.00  0.00    +0.000 A 
ENDBRANCH   1   6
BRANCH   1  13
ATOM     12  N   UNL     1       3.608   1.651  17.947  0.00  0.00    +0.000 N 
ATOM     13  C   UNL     1       2.978   2.840  17.717  0.00  0.00    +0.000 C 
ATOM     14  O   UNL     1       1.902   2.821  17.120  0.00  0.00    +0.000 OA
ATOM     15  H   UNL     1       3.150   0.827  17.577  0.00  0.00    +0.000 HD
ATOM     16  H   UNL     1       4.586   1.573  18.183  0.00  0.00    +0.000 HD
ENDBRANCH   1  13
BRANCH   4  17
ATOM     17  C   UNL     1       2.817   7.045  19.748  0.00  0.00    +0.000 C 
BRANCH  17  18
ATOM     18  C   UNL     1       2.071   8.171  19.120  0.00  0.00    +0.000 A 
ATOM     19  N   UNL     1       0.936   8.715  19.494  0.00  0.00    +0.000 NA
ATOM     20  C   UNL     1       0.662   9.569  18.451  0.00  0.00    +0.000 A 
ATOM     21  N   UNL     1       1.624   9.613  17.513  0.00  0.00    +0.000 NA
ATOM     22  O   UNL     1       2.557   8.674  17.952  0.00  0.00    +0.000 OA
BRANCH  20  23
ATOM     23  C   UNL     1      -0.603  10.287  18.364  0.00  0.00    +0.000 A 
ATOM     24  C   UNL     1      -1.542   9.968  17.372  0.00  0.00    +0.000 A 
ATOM     25  C   UNL     1      -2.777  10.619  17.329  0.00  0.00    +0.000 A 
ATOM     26  C   UNL     1      -3.089  11.590  18.279  0.00  0.00    +0.000 A 
ATOM     27  C   UNL     1      -2.157  11.914  19.265  0.00  0.00    +0.000 A 
ATOM     28 BR   UNL     1      -2.589  13.209  20.572  0.00  0.00    +0.000 Br
ATOM     29  C   UNL     1      -0.915  11.277  19.308  0.00  0.00    +0.000 A 
ENDBRANCH  20  23
ENDBRANCH  17  18
ENDBRANCH   4  17
TORSDOF 5
ENDMDL
MODEL 3
REMARK VINA RESULT:      -8.2      2.734      4.200
REMARK  Name = 
REMARK  5 active torsions:
REMARK  status: ('A' for Active; 'I' for Inactive)
REMARK    1  A    between atoms: C_2  and  C_4
REMARK    2  A    between atoms: C_4  and  C_5
REMARK    3  A    between atoms: N_13  and  C_14
REMARK    4  A    between atoms: C_14  and  C_15
REMARK    5  A    between atoms: C_17  and  C_18
REMARK                            x       y       z     vdW  Elec       q    Type
REMARK                         _______ _______ _______ _____ _____    ______ ____
ROOT
ATOM      1  C   UNL     1       3.874   5.107  18.610  0.00  0.00    +0.000 C 
ATOM      2  C   UNL     1       3.854   5.233  17.073  0.00  0.00    +0.000 C 
ATOM      3  C   UNL     1       4.452   6.598  16.822  0.00  0.00    +0.000 C 
ATOM      4  N   UNL     1       3.823   7.464  17.827  0.00  0.00    +0.000 NA
ATOM      5  C   UNL     1       3.665   6.603  19.032  0.00  0.00    +0.000 C 
ENDROOT
BRANCH   1   6
ATOM      6  C   UNL     1       2.789   4.138  19.104  0.00  0.00    +0.000 A 
ATOM      7  C   UNL     1       2.409   4.095  20.456  0.00  0.00    +0.000 A 
ATOM      8  C   UNL     1       1.376   3.260  20.889  0.00  0.00    +0.000 A 
ATOM      9  C   UNL     1       0.726   2.423  19.987  0.00  0.00    +0.000 A 
ATOM     10  C   UNL     1       1.126   2.401  18.656  0.00  0.00    +0.000 A 
ATOM     11  C   UNL     1       2.152   3.244  18.221  0.00  0.00    +0.000 A 
ENDBRANCH   1   6
BRANCH   1  13
ATOM     12  N   UNL     1       5.569   3.335  19.111  0.00  0.00    +0.000 N 
ATOM     13  C   UNL     1       5.244   4.659  19.178  0.00  0.00    +0.000 C 
ATOM     14  O   UNL     1       6.028   5.422  19.742  0.00  0.00    +0.000 OA
ATOM     15  H   UNL     1       6.434   3.067  19.564  0.00  0.00    +0.000 HD
ATOM     16  H   UNL     1       4.901   2.605  18.914  0.00  0.00    +0.000 HD
ENDBRANCH   1  13
BRANCH   4  17
ATOM     17  C   UNL     1       2.510   8.010  17.409  0.00  0.00    +0.000 C 
BRANCH  17  18
ATOM     18  C   UNL     1       1.991   9.064  18.325  0.00  0.00    +0.000 A 
ATOM     19  N   UNL     1       1.365   8.922  19.471  0.00  0.00    +0.000 NA
ATOM     20  C   UNL     1       0.983  10.212  19.758  0.00  0.00    +0.000 A 
ATOM     21  N   UNL     1       1.422  11.123  18.873  0.00  0.00    +0.000 NA
ATOM     22  O   UNL     1       2.084  10.358  17.912  0.00  0.00    +0.000 OA
BRANCH  20  23
ATOM     23  C   UNL     1       0.114  10.518  20.888  0.00  0.00    +0.000 A 
ATOM     24  C   UNL     1       0.127   9.718  22.039  0.00  0.00    +0.000 A 
ATOM     25  C   UNL     1      -0.665  10.048  23.141  0.00  0.00    +0.000 A 
ATOM     26  C   UNL     1      -1.474  11.184  23.105  0.00  0.00    +0.000 A 
ATOM     27  C   UNL     1      -1.494  11.980  21.961  0.00  0.00    +0.000 A 
ATOM     28 BR   UNL     1      -2.566  13.535  21.920  0.00  0.00    +0.000 Br
ATOM     29  C   UNL     1      -0.714  11.649  20.850  0.00  0.00    +0.000 A 
ENDBRANCH  20  23
ENDBRANCH  17  18
ENDBRANCH   4  17
TORSDOF 5
ENDMDL
MODEL 4
REMARK VINA RESULT:      -8.1      2.048      2.491
REMARK  Name = 
REMARK  5 active torsions:
REMARK  status: ('A' for Active; 'I' for Inactive)
REMARK    1  A    between atoms: C_2  and  C_4
REMARK    2  A    between atoms: C_4  and  C_5
REMARK    3  A    between atoms: N_13  and  C_14
REMARK    4  A    between atoms: C_14  and  C_15
REMARK    5  A    between atoms: C_17  and  C_18
REMARK                            x       y       z     vdW  Elec       q    Type
REMARK                         _______ _______ _______ _____ _____    ______ ____
ROOT
ATOM      1  C   UNL     1       3.779   4.043  18.106  0.00  0.00    +0.000 C 
ATOM      2  C   UNL     1       4.176   4.296  19.574  0.00  0.00    +0.000 C 
ATOM      3  C   UNL     1       2.874   4.695  20.229  0.00  0.00    +0.000 C 
ATOM      4  N   UNL     1       2.248   5.614  19.271  0.00  0.00    +0.000 NA
ATOM      5  C   UNL     1       2.618   5.083  17.930  0.00  0.00    +0.000 C 
ENDROOT
BRANCH   1   6
ATOM      6  C   UNL     1       4.975   4.243  17.162  0.00  0.00    +0.000 A 
ATOM      7  C   UNL     1       4.833   4.129  15.769  0.00  0.00    +0.000 A 
ATOM      8  C   UNL     1       5.907   4.377  14.911  0.00  0.00    +0.000 A 
ATOM      9  C   UNL     1       7.156   4.708  15.429  0.00  0.00    +0.000 A 
ATOM     10  C   UNL     1       7.338   4.766  16.806  0.00  0.00    +0.000 A 
ATOM     11  C   UNL     1       6.260   4.528  17.664  0.00  0.00    +0.000 A 
ENDBRANCH   1   6
BRANCH   1  13
ATOM     12  N   UNL     1       3.924   1.546  18.191  0.00  0.00    +0.000 N 
ATOM     13  C   UNL     1       3.175   2.638  17.859  0.00  0.00    +0.000 C 
ATOM     14  O   UNL     1       2.082   2.452  17.326  0.00  0.00    +0.000 OA
ATOM     15  H   UNL     1       3.532   0.646  17.941  0.00  0.00    +0.000 HD
ATOM     16  H   UNL     1       4.913   1.585  18.383  0.00  0.00    +0.000 HD
ENDBRANCH   1  13
BRANCH   4  17
ATOM     17  C   UNL     1       2.698   7.020  19.409  0.00  0.00    +0.000 C 
BRANCH  17  18
ATOM     18  C   UNL     1       1.656   7.920  19.977  0.00  0.00    +0.000 A 
ATOM     19  N   UNL     1       1.190   9.048  19.491  0.00  0.00    +0.000 NA
ATOM     20  C   UNL     1       0.396   9.504  20.517  0.00  0.00    +0.000 A 
ATOM     21  N   UNL     1       0.308   8.659  21.558  0.00  0.00    +0.000 NA
ATOM     22  O   UNL     1       1.156   7.609  21.204  0.00  0.00    +0.000 OA
BRANCH  20  23
ATOM     23  C   UNL     1      -0.218  10.826  20.478  0.00  0.00    +0.000 A 
ATOM     24  C   UNL     1      -0.683  11.365  19.270  0.00  0.00    +0.000 A 
ATOM     25  C   UNL     1      -1.322  12.607  19.248  0.00  0.00    +0.000 A 
ATOM     26  C   UNL     1      -1.509  13.319  20.432  0.00  0.00    +0.000 A 
ATOM     27  C   UNL     1      -1.044  12.788  21.636  0.00  0.00    +0.000 A 
ATOM     28 BR   UNL     1      -1.321  13.737  23.246  0.00  0.00    +0.000 Br
ATOM     29  C   UNL     1      -0.393  11.553  21.665  0.00  0.00    +0.000 A 
ENDBRANCH  20  23
ENDBRANCH  17  18
ENDBRANCH   4  17
TORSDOF 5
ENDMDL
MODEL 5
REMARK VINA RESULT:      -8.1      2.052      2.362
REMARK  Name = 
REMARK  5 active torsions:
REMARK  status: ('A' for Active; 'I' for Inactive)
REMARK    1  A    between atoms: C_2  and  C_4
REMARK    2  A    between atoms: C_4  and  C_5
REMARK    3  A    between atoms: N_13  and  C_14
REMARK    4  A    between atoms: C_14  and  C_15
REMARK    5  A    between atoms: C_17  and  C_18
REMARK                            x       y       z     vdW  Elec       q    Type
REMARK                         _______ _______ _______ _____ _____    ______ ____
ROOT
ATOM      1  C   UNL     1       3.781   4.065  18.066  0.00  0.00    +0.000 C 
ATOM      2  C   UNL     1       4.179   4.405  19.516  0.00  0.00    +0.000 C 
ATOM      3  C   UNL     1       2.871   4.802  20.159  0.00  0.00    +0.000 C 
ATOM      4  N   UNL     1       2.215   5.653  19.159  0.00  0.00    +0.000 NA
ATOM      5  C   UNL     1       2.591   5.062  17.845  0.00  0.00    +0.000 C 
ENDROOT
BRANCH   1   6
ATOM      6  C   UNL     1       4.966   4.247  17.105  0.00  0.00    +0.000 A 
ATOM      7  C   UNL     1       4.803   4.128  15.715  0.00  0.00    +0.000 A 
ATOM      8  C   UNL     1       5.868   4.361  14.841  0.00  0.00    +0.000 A 
ATOM      9  C   UNL     1       7.127   4.681  15.340  0.00  0.00    +0.000 A 
ATOM     10  C   UNL     1       7.329   4.744  16.714  0.00  0.00    +0.000 A 
ATOM     11  C   UNL     1       6.261   4.521  17.587  0.00  0.00    +0.000 A 
ENDBRANCH   1   6
BRANCH   1  13
ATOM     12  N   UNL     1       3.989   1.581  18.291  0.00  0.00    +0.000 N 
ATOM     13  C   UNL     1       3.214   2.633  17.897  0.00  0.00    +0.000 C 
ATOM     14  O   UNL     1       2.128   2.390  17.372  0.00  0.00    +0.000 OA
ATOM     15  H   UNL     1       3.621   0.659  18.091  0.00  0.00    +0.000 HD
ATOM     16  H   UNL     1       4.977   1.656  18.483  0.00  0.00    +0.000 HD
ENDBRANCH   1  13
BRANCH   4  17
ATOM     17  C   UNL     1       2.628   7.076  19.221  0.00  0.00    +0.000 C 
BRANCH  17  18
ATOM     18  C   UNL     1       1.684   7.931  19.994  0.00  0.00    +0.000 A 
ATOM     19  N   UNL     1       1.261   9.144  19.721  0.00  0.00    +0.000 NA
ATOM     20  C   UNL     1       0.565   9.475  20.859  0.00  0.00    +0.000 A 
ATOM     21  N   UNL     1       0.491   8.484  21.764  0.00  0.00    +0.000 NA
ATOM     22  O   UNL     1       1.245   7.459  21.193  0.00  0.00    +0.000 OA
BRANCH  20  23
ATOM     23  C   UNL     1       0.036  10.818  21.067  0.00  0.00    +0.000 A 
ATOM     24  C   UNL     1      -0.535  11.181  22.296  0.00  0.00    +0.000 A 
ATOM     25  C   UNL     1      -0.987  12.485  22.509  0.00  0.00    +0.000 A 
ATOM     26  C   UNL     1      -0.868  13.440  21.501  0.00  0.00    +0.000 A 
ATOM     27  C   UNL     1      -0.305  13.083  20.276  0.00  0.00    +0.000 A 
ATOM     28 BR   UNL     1      -0.115  14.383  18.918  0.00  0.00    +0.000 Br
ATOM     29  C   UNL     1       0.138  11.778  20.050  0.00  0.00    +0.000 A 
ENDBRANCH  20  23
ENDBRANCH  17  18
ENDBRANCH   4  17
TORSDOF 5
ENDMDL
MODEL 6
REMARK VINA RESULT:      -8.0      1.620      1.928
REMARK  Name = 
REMARK  5 active torsions:
REMARK  status: ('A' for Active; 'I' for Inactive)
REMARK    1  A    between atoms: C_2  and  C_4
REMARK    2  A    between atoms: C_4  and  C_5
REMARK    3  A    between atoms: N_13  and  C_14
REMARK    4  A    between atoms: C_14  and  C_15
REMARK    5  A    between atoms: C_17  and  C_18
REMARK                            x       y       z     vdW  Elec       q    Type
REMARK                         _______ _______ _______ _____ _____    ______ ____
ROOT
ATOM      1  C   UNL     1       3.689   4.196  18.159  0.00  0.00    +0.000 C 
ATOM      2  C   UNL     1       3.990   4.336  19.665  0.00  0.00    +0.000 C 
ATOM      3  C   UNL     1       2.687   4.837  20.242  0.00  0.00    +0.000 C 
ATOM      4  N   UNL     1       2.235   5.861  19.292  0.00  0.00    +0.000 NA
ATOM      5  C   UNL     1       2.655   5.358  17.955  0.00  0.00    +0.000 C 
ENDROOT
BRANCH   1   6
ATOM      6  C   UNL     1       4.970   4.314  17.320  0.00  0.00    +0.000 A 
ATOM      7  C   UNL     1       4.934   4.229  15.918  0.00  0.00    +0.000 A 
ATOM      8  C   UNL     1       6.092   4.404  15.155  0.00  0.00    +0.000 A 
ATOM      9  C   UNL     1       7.315   4.631  15.778  0.00  0.00    +0.000 A 
ATOM     10  C   UNL     1       7.387   4.657  17.167  0.00  0.00    +0.000 A 
ATOM     11  C   UNL     1       6.228   4.492  17.929  0.00  0.00    +0.000 A 
ENDBRANCH   1   6
BRANCH   1  13
ATOM     12  N   UNL     1       3.632   1.699  17.994  0.00  0.00    +0.000 N 
ATOM     13  C   UNL     1       2.968   2.874  17.791  0.00  0.00    +0.000 C 
ATOM     14  O   UNL     1       1.854   2.829  17.270  0.00  0.00    +0.000 OA
ATOM     15  H   UNL     1       3.164   0.863  17.667  0.00  0.00    +0.000 HD
ATOM     16  H   UNL     1       4.625   1.640  18.164  0.00  0.00    +0.000 HD
ENDBRANCH   1  13
BRANCH   4  17
ATOM     17  C   UNL     1       2.811   7.204  19.540  0.00  0.00    +0.000 C 
BRANCH  17  18
ATOM     18  C   UNL     1       1.902   8.318  19.149  0.00  0.00    +0.000 A 
ATOM     19  N   UNL     1       1.217   9.130  19.921  0.00  0.00    +0.000 NA
ATOM     20  C   UNL     1       0.443   9.814  19.014  0.00  0.00    +0.000 A 
ATOM     21  N   UNL     1       0.693   9.498  17.732  0.00  0.00    +0.000 NA
ATOM     22  O   UNL     1       1.657   8.494  17.822  0.00  0.00    +0.000 OA
BRANCH  20  23
ATOM     23  C   UNL     1      -0.603  10.735  19.443  0.00  0.00    +0.000 A 
ATOM     24  C   UNL     1      -1.673  11.051  18.593  0.00  0.00    +0.000 A 
ATOM     25  C   UNL     1      -2.702  11.888  19.031  0.00  0.00    +0.000 A 
ATOM     26  C   UNL     1      -2.677  12.411  20.323  0.00  0.00    +0.000 A 
ATOM     27  C   UNL     1      -1.614  12.102  21.171  0.00  0.00    +0.000 A 
ATOM     28 BR   UNL     1      -1.591  12.785  22.932  0.00  0.00    +0.000 Br
ATOM     29  C   UNL     1      -0.573  11.276  20.737  0.00  0.00    +0.000 A 
ENDBRANCH  20  23
ENDBRANCH  17  18
ENDBRANCH   4  17
TORSDOF 5
ENDMDL
MODEL 7
REMARK VINA RESULT:      -7.9      2.747      4.129
REMARK  Name = 
REMARK  5 active torsions:
REMARK  status: ('A' for Active; 'I' for Inactive)
REMARK    1  A    between atoms: C_2  and  C_4
REMARK    2  A    between atoms: C_4  and  C_5
REMARK    3  A    between atoms: N_13  and  C_14
REMARK    4  A    between atoms: C_14  and  C_15
REMARK    5  A    between atoms: C_17  and  C_18
REMARK                            x       y       z     vdW  Elec       q    Type
REMARK                         _______ _______ _______ _____ _____    ______ ____
ROOT
ATOM      1  C   UNL     1       4.326   5.102  18.531  0.00  0.00    +0.000 C 
ATOM      2  C   UNL     1       4.112   5.029  17.006  0.00  0.00    +0.000 C 
ATOM      3  C   UNL     1       4.589   6.375  16.517  0.00  0.00    +0.000 C 
ATOM      4  N   UNL     1       4.035   7.334  17.481  0.00  0.00    +0.000 NA
ATOM      5  C   UNL     1       4.079   6.629  18.792  0.00  0.00    +0.000 C 
ENDROOT
BRANCH   1   6
ATOM      6  C   UNL     1       3.371   4.155  19.275  0.00  0.00    +0.000 A 
ATOM      7  C   UNL     1       3.112   2.859  18.800  0.00  0.00    +0.000 A 
ATOM      8  C   UNL     1       2.296   1.978  19.515  0.00  0.00    +0.000 A 
ATOM      9  C   UNL     1       1.693   2.387  20.701  0.00  0.00    +0.000 A 
ATOM     10  C   UNL     1       1.884   3.686  21.159  0.00  0.00    +0.000 A 
ATOM     11  C   UNL     1       2.708   4.563  20.449  0.00  0.00    +0.000 A 
ENDBRANCH   1   6
BRANCH   1  13
ATOM     12  N   UNL     1       6.522   3.950  18.194  0.00  0.00    +0.000 N 
ATOM     13  C   UNL     1       5.780   4.794  18.969  0.00  0.00    +0.000 C 
ATOM     14  O   UNL     1       6.281   5.220  20.009  0.00  0.00    +0.000 OA
ATOM     15  H   UNL     1       7.438   3.708  18.554  0.00  0.00    +0.000 HD
ATOM     16  H   UNL     1       6.129   3.353  17.483  0.00  0.00    +0.000 HD
ENDBRANCH   1  13
BRANCH   4  17
ATOM     17  C   UNL     1       2.650   7.761  17.172  0.00  0.00    +0.000 C 
BRANCH  17  18
ATOM     18  C   UNL     1       2.128   8.793  18.109  0.00  0.00    +0.000 A 
ATOM     19  N   UNL     1       1.612   8.632  19.306  0.00  0.00    +0.000 NA
ATOM     20  C   UNL     1       1.156   9.895  19.603  0.00  0.00    +0.000 A 
ATOM     21  N   UNL     1       1.448  10.815  18.668  0.00  0.00    +0.000 NA
ATOM     22  O   UNL     1       2.085  10.080  17.668  0.00  0.00    +0.000 OA
BRANCH  20  23
ATOM     23  C   UNL     1       0.362  10.160  20.796  0.00  0.00    +0.000 A 
ATOM     24  C   UNL     1       0.476   9.342  21.930  0.00  0.00    +0.000 A 
ATOM     25  C   UNL     1      -0.244   9.635  23.090  0.00  0.00    +0.000 A 
ATOM     26  C   UNL     1      -1.080  10.749  23.132  0.00  0.00    +0.000 A 
ATOM     27  C   UNL     1      -1.200  11.564  22.006  0.00  0.00    +0.000 A 
ATOM     28 BR   UNL     1      -2.309  13.092  22.070  0.00  0.00    +0.000 Br
ATOM     29  C   UNL     1      -0.493  11.271  20.837  0.00  0.00    +0.000 A 
ENDBRANCH  20  23
ENDBRANCH  17  18
ENDBRANCH   4  17
TORSDOF 5
ENDMDL
MODEL 8
REMARK VINA RESULT:      -7.9      5.180      7.390
REMARK  Name = 
REMARK  5 active torsions:
REMARK  status: ('A' for Active; 'I' for Inactive)
REMARK    1  A    between atoms: C_2  and  C_4
REMARK    2  A    between atoms: C_4  and  C_5
REMARK    3  A    between atoms: N_13  and  C_14
REMARK    4  A    between atoms: C_14  and  C_15
REMARK    5  A    between atoms: C_17  and  C_18
REMARK                            x       y       z     vdW  Elec       q    Type
REMARK                         _______ _______ _______ _____ _____    ______ ____
ROOT
ATOM      1  C   UNL     1       4.134   3.830  18.392  0.00  0.00    +0.000 C 
ATOM      2  C   UNL     1       3.821   3.809  16.882  0.00  0.00    +0.000 C 
ATOM      3  C   UNL     1       5.182   3.681  16.240  0.00  0.00    +0.000 C 
ATOM      4  N   UNL     1       6.032   4.611  16.992  0.00  0.00    +0.000 NA
ATOM      5  C   UNL     1       5.533   4.541  18.394  0.00  0.00    +0.000 C 
ENDROOT
BRANCH   1   6
ATOM      6  C   UNL     1       3.036   4.561  19.180  0.00  0.00    +0.000 A 
ATOM      7  C   UNL     1       1.919   3.873  19.684  0.00  0.00    +0.000 A 
ATOM      8  C   UNL     1       0.958   4.528  20.457  0.00  0.00    +0.000 A 
ATOM      9  C   UNL     1       1.072   5.891  20.712  0.00  0.00    +0.000 A 
ATOM     10  C   UNL     1       2.135   6.607  20.172  0.00  0.00    +0.000 A 
ATOM     11  C   UNL     1       3.102   5.950  19.407  0.00  0.00    +0.000 A 
ENDBRANCH   1   6
BRANCH   1  13
ATOM     12  N   UNL     1       5.113   2.308  20.121  0.00  0.00    +0.000 N 
ATOM     13  C   UNL     1       4.338   2.421  19.003  0.00  0.00    +0.000 C 
ATOM     14  O   UNL     1       3.889   1.391  18.501  0.00  0.00    +0.000 OA
ATOM     15  H   UNL     1       5.291   1.366  20.444  0.00  0.00    +0.000 HD
ATOM     16  H   UNL     1       5.729   3.036  20.449  0.00  0.00    +0.000 HD
ENDBRANCH   1  13
BRANCH   4  17
ATOM     17  C   UNL     1       5.977   6.007  16.496  0.00  0.00    +0.000 C 
BRANCH  17  18
ATOM     18  C   UNL     1       6.826   6.946  17.281  0.00  0.00    +0.000 A 
ATOM     19  N   UNL     1       6.898   8.255  17.198  0.00  0.00    +0.000 NA
ATOM     20  C   UNL     1       7.957   8.544  18.027  0.00  0.00    +0.000 A 
ATOM     21  N   UNL     1       8.466   7.472  18.658  0.00  0.00    +0.000 NA
ATOM     22  O   UNL     1       7.720   6.406  18.154  0.00  0.00    +0.000 OA
BRANCH  20  23
ATOM     23  C   UNL     1       8.504   9.892  18.126  0.00  0.00    +0.000 A 
ATOM     24  C   UNL     1       7.910  10.959  17.437  0.00  0.00    +0.000 A 
ATOM     25  C   UNL     1       8.402  12.258  17.582  0.00  0.00    +0.000 A 
ATOM     26  C   UNL     1       9.488  12.504  18.421  0.00  0.00    +0.000 A 
ATOM     27  C   UNL     1      10.085  11.446  19.105  0.00  0.00    +0.000 A 
ATOM     28 BR   UNL     1      11.538  11.781  20.265  0.00  0.00    +0.000 Br
ATOM     29  C   UNL     1       9.607  10.142  18.956  0.00  0.00    +0.000 A 
ENDBRANCH  20  23
ENDBRANCH  17  18
ENDBRANCH   4  17
TORSDOF 5
ENDMDL
MODEL 9
REMARK VINA RESULT:      -7.9      1.935      2.320
REMARK  Name = 
REMARK  5 active torsions:
REMARK  status: ('A' for Active; 'I' for Inactive)
REMARK    1  A    between atoms: C_2  and  C_4
REMARK    2  A    between atoms: C_4  and  C_5
REMARK    3  A    between atoms: N_13  and  C_14
REMARK    4  A    between atoms: C_14  and  C_15
REMARK    5  A    between atoms: C_17  and  C_18
REMARK                            x       y       z     vdW  Elec       q    Type
REMARK                         _______ _______ _______ _____ _____    ______ ____
ROOT
ATOM      1  C   UNL     1       3.586   4.506  18.218  0.00  0.00    +0.000 C 
ATOM      2  C   UNL     1       3.839   5.115  19.612  0.00  0.00    +0.000 C 
ATOM      3  C   UNL     1       2.505   5.718  19.983  0.00  0.00    +0.000 C 
ATOM      4  N   UNL     1       2.048   6.381  18.756  0.00  0.00    +0.000 NA
ATOM      5  C   UNL     1       2.522   5.508  17.647  0.00  0.00    +0.000 C 
ENDROOT
BRANCH   1   6
ATOM      6  C   UNL     1       4.886   4.410  17.407  0.00  0.00    +0.000 A 
ATOM      7  C   UNL     1       4.872   4.077  16.041  0.00  0.00    +0.000 A 
ATOM      8  C   UNL     1       6.051   4.057  15.292  0.00  0.00    +0.000 A 
ATOM      9  C   UNL     1       7.272   4.333  15.898  0.00  0.00    +0.000 A 
ATOM     10  C   UNL     1       7.321   4.604  17.260  0.00  0.00    +0.000 A 
ATOM     11  C   UNL     1       6.141   4.635  18.008  0.00  0.00    +0.000 A 
ENDBRANCH   1   6
BRANCH   1  13
ATOM     12  N   UNL     1       3.528   2.125  18.988  0.00  0.00    +0.000 N 
ATOM     13  C   UNL     1       2.918   3.109  18.263  0.00  0.00    +0.000 C 
ATOM     14  O   UNL     1       1.902   2.820  17.632  0.00  0.00    +0.000 OA
ATOM     15  H   UNL     1       3.108   1.206  18.929  0.00  0.00    +0.000 HD
ATOM     16  H   UNL     1       4.479   2.182  19.317  0.00  0.00    +0.000 HD
ENDBRANCH   1  13
BRANCH   4  17
ATOM     17  C   UNL     1       2.574   7.757  18.588  0.00  0.00    +0.000 C 
BRANCH  17  18
ATOM     18  C   UNL     1       1.578   8.814  18.921  0.00  0.00    +0.000 A 
ATOM     19  N   UNL     1       1.263   9.306  20.098  0.00  0.00    +0.000 NA
ATOM     20  C   UNL     1       0.182  10.103  19.803  0.00  0.00    +0.000 A 
ATOM     21  N   UNL     1      -0.109  10.166  18.492  0.00  0.00    +0.000 NA
ATOM     22  O   UNL     1       0.813   9.300  17.906  0.00  0.00    +0.000 OA
BRANCH  20  23
ATOM     23  C   UNL     1      -0.603  10.743  20.851  0.00  0.00    +0.000 A 
ATOM     24  C   UNL     1      -0.546  10.281  22.173  0.00  0.00    +0.000 A 
ATOM     25  C   UNL     1      -1.256  10.934  23.184  0.00  0.00    +0.000 A 
ATOM     26  C   UNL     1      -2.023  12.058  22.885  0.00  0.00    +0.000 A 
ATOM     27  C   UNL     1      -2.086  12.520  21.570  0.00  0.00    +0.000 A 
ATOM     28 BR   UNL     1      -3.102  14.061  21.167  0.00  0.00    +0.000 Br
ATOM     29  C   UNL     1      -1.390  11.865  20.551  0.00  0.00    +0.000 A 
ENDBRANCH  20  23
ENDBRANCH  17  18
ENDBRANCH   4  17
TORSDOF 5
ENDMDL
