MODEL 1
REMARK VINA RESULT:      -9.2      0.000      0.000
REMARK  Name = 
REMARK  8 active torsions:
REMARK  status: ('A' for Active; 'I' for Inactive)
REMARK    1  A    between atoms: C_1  and  C_2
REMARK    2  A    between atoms: C_6  and  C_7
REMARK    3  A    between atoms: C_7  and  C_8
REMARK    4  A    between atoms: C_8  and  C_9
REMARK    5  A    between atoms: C_13  and  C_14
REMARK    6  A    between atoms: C_14  and  C_15
REMARK    7  A    between atoms: C_15  and  C_16
REMARK    8  A    between atoms: N_20  and  C_21
REMARK                            x       y       z     vdW  Elec       q    Type
REMARK                         _______ _______ _______ _____ _____    ______ ____
ROOT
ATOM      1  C   UNL     1       2.316   7.471  18.783  0.00  0.00    +0.000 A 
ATOM      2  C   UNL     1       1.871   7.447  20.105  0.00  0.00    +0.000 A 
ATOM      3  C   UNL     1       1.839   6.244  20.808  0.00  0.00    +0.000 A 
ATOM      4  C   UNL     1       2.288   5.062  20.210  0.00  0.00    +0.000 A 
ATOM      5  C   UNL     1       2.769   5.041  18.891  0.00  0.00    +0.000 A 
ATOM      6  C   UNL     1       2.719   6.259  18.199  0.00  0.00    +0.000 A 
ENDROOT
BRANCH   5   7
ATOM      7  C   UNL     1       3.408   3.747  18.199  0.00  0.00    +0.000 C 
ATOM      8  C   UNL     1       2.381   2.853  17.450  0.00  0.00    +0.000 C 
ATOM      9  O   UNL     1       2.999   1.651  17.971  0.00  0.00    +0.000 OA
ATOM     10  C   UNL     1       3.599   2.443  19.038  0.00  0.00    +0.000 C 
BRANCH   7  11
ATOM     11  C   UNL     1       4.661   4.093  17.377  0.00  0.00    +0.000 C 
BRANCH  11  12
ATOM     12  C   UNL     1       5.728   4.770  18.176  0.00  0.00    +0.000 A 
ATOM     13  N   UNL     1       6.164   4.408  19.368  0.00  0.00    +0.000 NA
ATOM     14  N   UNL     1       7.169   5.271  19.742  0.00  0.00    +0.000 NA
ATOM     15  C   UNL     1       7.327   6.140  18.772  0.00  0.00    +0.000 A 
ATOM     16  N   UNL     1       6.439   5.873  17.776  0.00  0.00    +0.000 N 
ATOM     17  C   UNL     1       6.300   6.611  16.552  0.00  0.00    +0.000 C 
ENDBRANCH  11  12
ENDBRANCH   7  11
ENDBRANCH   5   7
BRANCH   1  18
ATOM     18  C   UNL     1       2.413   8.794  18.039  0.00  0.00    +0.000 C 
BRANCH  18  19
ATOM     19  C   UNL     1       1.037   9.310  17.611  0.00  0.00    +0.000 C 
BRANCH  19  25
ATOM     20  C   UNL     1       1.501  12.902  20.840  0.00  0.00    +0.000 C 
ATOM     21  C   UNL     1       0.590  12.114  19.948  0.00  0.00    +0.000 A 
ATOM     22  C   UNL     1      -0.767  12.408  19.854  0.00  0.00    +0.000 A 
ATOM     23  C   UNL     1      -1.578  11.651  19.003  0.00  0.00    +0.000 A 
ATOM     24  C   UNL     1      -1.003  10.594  18.288  0.00  0.00    +0.000 A 
ATOM     25  C   UNL     1       0.381  10.383  18.431  0.00  0.00    +0.000 A 
ATOM     26  N   UNL     1       1.169  11.119  19.244  0.00  0.00    +0.000 NA
ATOM     27  C   UNL     1      -1.825   9.755  17.333  0.00  0.00    +0.000 C 
ATOM     28  C   UNL     1      -3.329   9.867  17.556  0.00  0.00    +0.000 C 
ATOM     29  C   UNL     1      -3.727  11.328  17.690  0.00  0.00    +0.000 C 
ATOM     30  C   UNL     1      -3.056  11.947  18.915  0.00  0.00    +0.000 C 
ENDBRANCH  19  25
ENDBRANCH  18  19
ENDBRANCH   1  18
TORSDOF 6
ENDMDL
MODEL 2
REMARK VINA RESULT:      -9.0      1.219      2.474
REMARK  Name = 
REMARK  8 active torsions:
REMARK  status: ('A' for Active; 'I' for Inactive)
REMARK    1  A    between atoms: C_1  and  C_2
REMARK    2  A    between atoms: C_6  and  C_7
REMARK    3  A    between atoms: C_7  and  C_8
REMARK    4  A    between atoms: C_8  and  C_9
REMARK    5  A    between atoms: C_13  and  C_14
REMARK    6  A    between atoms: C_14  and  C_15
REMARK    7  A    between atoms: C_15  and  C_16
REMARK    8  A    between atoms: N_20  and  C_21
REMARK                            x       y       z     vdW  Elec       q    Type
REMARK                         _______ _______ _______ _____ _____    ______ ____
ROOT
ATOM      1  C   UNL     1       2.065   7.497  18.692  0.00  0.00    +0.000 A 
ATOM      2  C   UNL     1       1.775   7.538  20.056  0.00  0.00    +0.000 A 
ATOM      3  C   UNL     1       1.868   6.379  20.824  0.00  0.00    +0.000 A 
ATOM      4  C   UNL     1       2.289   5.178  20.245  0.00  0.00    +0.000 A 
ATOM      5  C   UNL     1       2.616   5.092  18.882  0.00  0.00    +0.000 A 
ATOM      6  C   UNL     1       2.444   6.265  18.134  0.00  0.00    +0.000 A 
ENDROOT
BRANCH   5   7
ATOM      7  C   UNL     1       3.219   3.779  18.195  0.00  0.00    +0.000 C 
ATOM      8  C   UNL     1       2.156   2.703  17.836  0.00  0.00    +0.000 C 
ATOM      9  O   UNL     1       3.023   1.643  18.309  0.00  0.00    +0.000 OA
ATOM     10  C   UNL     1       3.765   2.622  19.093  0.00  0.00    +0.000 C 
BRANCH   7  11
ATOM     11  C   UNL     1       4.183   4.121  17.046  0.00  0.00    +0.000 C 
BRANCH  11  12
ATOM     12  C   UNL     1       5.589   4.353  17.498  0.00  0.00    +0.000 A 
ATOM     13  N   UNL     1       5.995   4.523  18.742  0.00  0.00    +0.000 NA
ATOM     14  N   UNL     1       7.362   4.675  18.735  0.00  0.00    +0.000 NA
ATOM     15  C   UNL     1       7.763   4.595  17.489  0.00  0.00    +0.000 A 
ATOM     16  N   UNL     1       6.687   4.404  16.678  0.00  0.00    +0.000 N 
ATOM     17  C   UNL     1       6.722   4.277  15.248  0.00  0.00    +0.000 C 
ENDBRANCH  11  12
ENDBRANCH   7  11
ENDBRANCH   5   7
BRANCH   1  18
ATOM     18  C   UNL     1       2.029   8.775  17.869  0.00  0.00    +0.000 C 
BRANCH  18  19
ATOM     19  C   UNL     1       1.583   9.978  18.704  0.00  0.00    +0.000 C 
BRANCH  19  25
ATOM     20  C   UNL     1      -2.639   9.859  16.317  0.00  0.00    +0.000 C 
ATOM     21  C   UNL     1      -1.869  10.366  17.499  0.00  0.00    +0.000 A 
ATOM     22  C   UNL     1      -2.469  11.162  18.469  0.00  0.00    +0.000 A 
ATOM     23  C   UNL     1      -1.714  11.607  19.559  0.00  0.00    +0.000 A 
ATOM     24  C   UNL     1      -0.360  11.260  19.626  0.00  0.00    +0.000 A 
ATOM     25  C   UNL     1       0.157  10.434  18.611  0.00  0.00    +0.000 A 
ATOM     26  N   UNL     1      -0.573   9.995  17.562  0.00  0.00    +0.000 NA
ATOM     27  C   UNL     1       0.503  11.691  20.794  0.00  0.00    +0.000 C 
ATOM     28  C   UNL     1      -0.086  12.844  21.598  0.00  0.00    +0.000 C 
ATOM     29  C   UNL     1      -1.550  12.573  21.901  0.00  0.00    +0.000 C 
ATOM     30  C   UNL     1      -2.351  12.493  20.602  0.00  0.00    +0.000 C 
ENDBRANCH  19  25
ENDBRANCH  18  19
ENDBRANCH   1  18
TORSDOF 6
ENDMDL
MODEL 3
REMARK VINA RESULT:      -8.9      1.678      2.077
REMARK  Name = 
REMARK  8 active torsions:
REMARK  status: ('A' for Active; 'I' for Inactive)
REMARK    1  A    between atoms: C_1  and  C_2
REMARK    2  A    between atoms: C_6  and  C_7
REMARK    3  A    between atoms: C_7  and  C_8
REMARK    4  A    between atoms: C_8  and  C_9
REMARK    5  A    between atoms: C_13  and  C_14
REMARK    6  A    between atoms: C_14  and  C_15
REMARK    7  A    between atoms: C_15  and  C_16
REMARK    8  A    between atoms: N_20  and  C_21
REMARK                            x       y       z     vdW  Elec       q    Type
REMARK                         _______ _______ _______ _____ _____    ______ ____
ROOT
ATOM      1  C   UNL     1       2.306   7.419  18.680  0.00  0.00    +0.000 A 
ATOM      2  C   UNL     1       1.876   7.426  20.006  0.00  0.00    +0.000 A 
ATOM      3  C   UNL     1       1.869   6.244  20.745  0.00  0.00    +0.000 A 
ATOM      4  C   UNL     1       2.328   5.052  20.176  0.00  0.00    +0.000 A 
ATOM      5  C   UNL     1       2.795   4.999  18.853  0.00  0.00    +0.000 A 
ATOM      6  C   UNL     1       2.721   6.195  18.127  0.00  0.00    +0.000 A 
ENDROOT
BRANCH   5   7
ATOM      7  C   UNL     1       3.444   3.694  18.192  0.00  0.00    +0.000 C 
ATOM      8  C   UNL     1       2.411   2.718  17.563  0.00  0.00    +0.000 C 
ATOM      9  O   UNL     1       3.114   1.573  18.107  0.00  0.00    +0.000 OA
ATOM     10  C   UNL     1       3.745   2.449  19.086  0.00  0.00    +0.000 C 
BRANCH   7  11
ATOM     11  C   UNL     1       4.625   4.042  17.271  0.00  0.00    +0.000 C 
BRANCH  11  12
ATOM     12  C   UNL     1       5.734   4.761  17.971  0.00  0.00    +0.000 A 
ATOM     13  N   UNL     1       6.356   4.367  19.066  0.00  0.00    +0.000 NA
ATOM     14  N   UNL     1       7.330   5.291  19.368  0.00  0.00    +0.000 NA
ATOM     15  C   UNL     1       7.284   6.229  18.452  0.00  0.00    +0.000 A 
ATOM     16  N   UNL     1       6.293   5.945  17.563  0.00  0.00    +0.000 N 
ATOM     17  C   UNL     1       5.930   6.742  16.424  0.00  0.00    +0.000 C 
ENDBRANCH  11  12
ENDBRANCH   7  11
ENDBRANCH   5   7
BRANCH   1  18
ATOM     18  C   UNL     1       2.377   8.720  17.896  0.00  0.00    +0.000 C 
BRANCH  18  19
ATOM     19  C   UNL     1       1.147   9.598  18.136  0.00  0.00    +0.000 C 
BRANCH  19  25
ATOM     20  C   UNL     1       3.176  14.005  18.099  0.00  0.00    +0.000 C 
ATOM     21  C   UNL     1       2.265  13.038  18.794  0.00  0.00    +0.000 A 
ATOM     22  C   UNL     1       1.592  13.386  19.961  0.00  0.00    +0.000 A 
ATOM     23  C   UNL     1       0.746  12.455  20.572  0.00  0.00    +0.000 A 
ATOM     24  C   UNL     1       0.624  11.182  20.004  0.00  0.00    +0.000 A 
ATOM     25  C   UNL     1       1.327  10.926  18.812  0.00  0.00    +0.000 A 
ATOM     26  N   UNL     1       2.136  11.827  18.214  0.00  0.00    +0.000 NA
ATOM     27  C   UNL     1      -0.295  10.140  20.605  0.00  0.00    +0.000 C 
ATOM     28  C   UNL     1      -0.693  10.432  22.048  0.00  0.00    +0.000 C 
ATOM     29  C   UNL     1      -1.130  11.881  22.184  0.00  0.00    +0.000 C 
ATOM     30  C   UNL     1       0.033  12.816  21.853  0.00  0.00    +0.000 C 
ENDBRANCH  19  25
ENDBRANCH  18  19
ENDBRANCH   1  18
TORSDOF 6
ENDMDL
MODEL 4
REMARK VINA RESULT:      -8.9      3.165      8.882
REMARK  Name = 
REMARK  8 active torsions:
REMARK  status: ('A' for Active; 'I' for Inactive)
REMARK    1  A    between atoms: C_1  and  C_2
REMARK    2  A    between atoms: C_6  and  C_7
REMARK    3  A    between atoms: C_7  and  C_8
REMARK    4  A    between atoms: C_8  and  C_9
REMARK    5  A    between atoms: C_13  and  C_14
REMARK    6  A    between atoms: C_14  and  C_15
REMARK    7  A    between atoms: C_15  and  C_16
REMARK    8  A    between atoms: N_20  and  C_21
REMARK                            x       y       z     vdW  Elec       q    Type
REMARK                         _______ _______ _______ _____ _____    ______ ____
ROOT
ATOM      1  C   UNL     1       1.648   8.660  18.883  0.00  0.00    +0.000 A 
ATOM      2  C   UNL     1       1.743   8.146  20.176  0.00  0.00    +0.000 A 
ATOM      3  C   UNL     1       0.887   8.607  21.175  0.00  0.00    +0.000 A 
ATOM      4  C   UNL     1      -0.096   9.557  20.881  0.00  0.00    +0.000 A 
ATOM      5  C   UNL     1      -0.247  10.086  19.589  0.00  0.00    +0.000 A 
ATOM      6  C   UNL     1       0.678   9.644  18.633  0.00  0.00    +0.000 A 
ENDROOT
BRANCH   5   7
ATOM      7  C   UNL     1      -1.428  11.080  19.169  0.00  0.00    +0.000 C 
ATOM      8  C   UNL     1      -0.982  12.243  18.238  0.00  0.00    +0.000 C 
ATOM      9  O   UNL     1      -1.795  13.187  18.976  0.00  0.00    +0.000 OA
ATOM     10  C   UNL     1      -1.803  12.270  20.109  0.00  0.00    +0.000 C 
BRANCH   7  11
ATOM     11  C   UNL     1      -2.672  10.320  18.676  0.00  0.00    +0.000 C 
BRANCH  11  12
ATOM     12  C   UNL     1      -2.871  10.402  17.196  0.00  0.00    +0.000 A 
ATOM     13  N   UNL     1      -2.133   9.817  16.272  0.00  0.00    +0.000 NA
ATOM     14  N   UNL     1      -2.665  10.117  15.038  0.00  0.00    +0.000 NA
ATOM     15  C   UNL     1      -3.717  10.876  15.235  0.00  0.00    +0.000 A 
ATOM     16  N   UNL     1      -3.878  11.090  16.569  0.00  0.00    +0.000 N 
ATOM     17  C   UNL     1      -4.913  11.880  17.176  0.00  0.00    +0.000 C 
ENDBRANCH  11  12
ENDBRANCH   7  11
ENDBRANCH   5   7
BRANCH   1  18
ATOM     18  C   UNL     1       2.537   8.107  17.779  0.00  0.00    +0.000 C 
BRANCH  18  19
ATOM     19  C   UNL     1       3.606   7.159  18.329  0.00  0.00    +0.000 C 
BRANCH  19  25
ATOM     20  C   UNL     1       6.152   4.746  14.978  0.00  0.00    +0.000 C 
ATOM     21  C   UNL     1       5.090   4.699  16.034  0.00  0.00    +0.000 A 
ATOM     22  C   UNL     1       4.436   3.514  16.354  0.00  0.00    +0.000 A 
ATOM     23  C   UNL     1       3.456   3.515  17.352  0.00  0.00    +0.000 A 
ATOM     24  C   UNL     1       3.139   4.724  17.983  0.00  0.00    +0.000 A 
ATOM     25  C   UNL     1       3.867   5.869  17.608  0.00  0.00    +0.000 A 
ATOM     26  N   UNL     1       4.821   5.868  16.652  0.00  0.00    +0.000 NA
ATOM     27  C   UNL     1       2.105   4.784  19.087  0.00  0.00    +0.000 C 
ATOM     28  C   UNL     1       1.177   3.576  19.125  0.00  0.00    +0.000 C 
ATOM     29  C   UNL     1       1.988   2.294  19.025  0.00  0.00    +0.000 C 
ATOM     30  C   UNL     1       2.723   2.238  17.686  0.00  0.00    +0.000 C 
ENDBRANCH  19  25
ENDBRANCH  18  19
ENDBRANCH   1  18
TORSDOF 6
ENDMDL
MODEL 5
REMARK VINA RESULT:      -8.8      2.360      4.123
REMARK  Name = 
REMARK  8 active torsions:
REMARK  status: ('A' for Active; 'I' for Inactive)
REMARK    1  A    between atoms: C_1  and  C_2
REMARK    2  A    between atoms: C_6  and  C_7
REMARK    3  A    between atoms: C_7  and  C_8
REMARK    4  A    between atoms: C_8  and  C_9
REMARK    5  A    between atoms: C_13  and  C_14
REMARK    6  A    between atoms: C_14  and  C_15
REMARK    7  A    between atoms: C_15  and  C_16
REMARK    8  A    between atoms: N_20  and  C_21
REMARK                            x       y       z     vdW  Elec       q    Type
REMARK                         _______ _______ _______ _____ _____    ______ ____
ROOT
ATOM      1  C   UNL     1       1.098   9.612  19.170  0.00  0.00    +0.000 A 
ATOM      2  C   UNL     1       0.827   9.540  20.536  0.00  0.00    +0.000 A 
ATOM      3  C   UNL     1       1.176   8.398  21.257  0.00  0.00    +0.000 A 
ATOM      4  C   UNL     1       1.833   7.337  20.627  0.00  0.00    +0.000 A 
ATOM      5  C   UNL     1       2.150   7.374  19.259  0.00  0.00    +0.000 A 
ATOM      6  C   UNL     1       1.720   8.511  18.560  0.00  0.00    +0.000 A 
ENDROOT
BRANCH   5   7
ATOM      7  C   UNL     1       3.006   6.246  18.516  0.00  0.00    +0.000 C 
ATOM      8  C   UNL     1       4.206   5.708  19.345  0.00  0.00    +0.000 C 
ATOM      9  O   UNL     1       5.060   5.718  18.175  0.00  0.00    +0.000 OA
ATOM     10  C   UNL     1       4.153   6.668  17.542  0.00  0.00    +0.000 C 
BRANCH   7  11
ATOM     11  C   UNL     1       2.113   5.148  17.914  0.00  0.00    +0.000 C 
BRANCH  11  12
ATOM     12  C   UNL     1       1.851   4.013  18.852  0.00  0.00    +0.000 A 
ATOM     13  N   UNL     1       1.008   4.014  19.867  0.00  0.00    +0.000 NA
ATOM     14  N   UNL     1       1.041   2.771  20.458  0.00  0.00    +0.000 NA
ATOM     15  C   UNL     1       1.901   2.039  19.792  0.00  0.00    +0.000 A 
ATOM     16  N   UNL     1       2.441   2.777  18.785  0.00  0.00    +0.000 N 
ATOM     17  C   UNL     1       3.429   2.325  17.845  0.00  0.00    +0.000 C 
ENDBRANCH  11  12
ENDBRANCH   7  11
ENDBRANCH   5   7
BRANCH   1  18
ATOM     18  C   UNL     1       0.778  10.884  18.399  0.00  0.00    +0.000 C 
BRANCH  18  19
ATOM     19  C   UNL     1      -0.434  11.614  18.982  0.00  0.00    +0.000 C 
BRANCH  19  25
ATOM     20  C   UNL     1      -2.968   9.979  15.181  0.00  0.00    +0.000 C 
ATOM     21  C   UNL     1      -2.990  10.657  16.517  0.00  0.00    +0.000 A 
ATOM     22  C   UNL     1      -4.184  11.056  17.109  0.00  0.00    +0.000 A 
ATOM     23  C   UNL     1      -4.158  11.679  18.361  0.00  0.00    +0.000 A 
ATOM     24  C   UNL     1      -2.920  11.911  18.972  0.00  0.00    +0.000 A 
ATOM     25  C   UNL     1      -1.766  11.454  18.309  0.00  0.00    +0.000 A 
ATOM     26  N   UNL     1      -1.790  10.844  17.104  0.00  0.00    +0.000 NA
ATOM     27  C   UNL     1      -2.830  12.558  20.338  0.00  0.00    +0.000 C 
ATOM     28  C   UNL     1      -4.096  13.301  20.750  0.00  0.00    +0.000 C 
ATOM     29  C   UNL     1      -5.315  12.432  20.492  0.00  0.00    +0.000 C 
ATOM     30  C   UNL     1      -5.447  12.139  18.998  0.00  0.00    +0.000 C 
ENDBRANCH  19  25
ENDBRANCH  18  19
ENDBRANCH   1  18
TORSDOF 6
ENDMDL
MODEL 6
REMARK VINA RESULT:      -8.8      3.131      8.855
REMARK  Name = 
REMARK  8 active torsions:
REMARK  status: ('A' for Active; 'I' for Inactive)
REMARK    1  A    between atoms: C_1  and  C_2
REMARK    2  A    between atoms: C_6  and  C_7
REMARK    3  A    between atoms: C_7  and  C_8
REMARK    4  A    between atoms: C_8  and  C_9
REMARK    5  A    between atoms: C_13  and  C_14
REMARK    6  A    between atoms: C_14  and  C_15
REMARK    7  A    between atoms: C_15  and  C_16
REMARK    8  A    between atoms: N_20  and  C_21
REMARK                            x       y       z     vdW  Elec       q    Type
REMARK                         _______ _______ _______ _____ _____    ______ ____
ROOT
ATOM      1  C   UNL     1       1.618   8.754  19.238  0.00  0.00    +0.000 A 
ATOM      2  C   UNL     1       1.448   8.153  20.485  0.00  0.00    +0.000 A 
ATOM      3  C   UNL     1       0.554   8.696  21.406  0.00  0.00    +0.000 A 
ATOM      4  C   UNL     1      -0.208   9.821  21.074  0.00  0.00    +0.000 A 
ATOM      5  C   UNL     1      -0.091  10.446  19.821  0.00  0.00    +0.000 A 
ATOM      6  C   UNL     1       0.868   9.907  18.953  0.00  0.00    +0.000 A 
ENDROOT
BRANCH   5   7
ATOM      7  C   UNL     1      -1.022  11.656  19.344  0.00  0.00    +0.000 C 
ATOM      8  C   UNL     1      -0.403  12.529  18.217  0.00  0.00    +0.000 C 
ATOM      9  O   UNL     1      -0.863  13.743  18.860  0.00  0.00    +0.000 OA
ATOM     10  C   UNL     1      -0.976  13.013  20.117  0.00  0.00    +0.000 C 
BRANCH   7  11
ATOM     11  C   UNL     1      -2.464  11.198  19.066  0.00  0.00    +0.000 C 
BRANCH  11  12
ATOM     12  C   UNL     1      -2.714  10.858  17.632  0.00  0.00    +0.000 A 
ATOM     13  N   UNL     1      -1.927  10.147  16.846  0.00  0.00    +0.000 NA
ATOM     14  N   UNL     1      -2.531  10.037  15.614  0.00  0.00    +0.000 NA
ATOM     15  C   UNL     1      -3.672  10.681  15.673  0.00  0.00    +0.000 A 
ATOM     16  N   UNL     1      -3.825  11.219  16.913  0.00  0.00    +0.000 N 
ATOM     17  C   UNL     1      -4.943  12.003  17.359  0.00  0.00    +0.000 C 
ENDBRANCH  11  12
ENDBRANCH   7  11
ENDBRANCH   5   7
BRANCH   1  18
ATOM     18  C   UNL     1       2.543   8.122  18.210  0.00  0.00    +0.000 C 
BRANCH  18  19
ATOM     19  C   UNL     1       2.188   6.656  17.947  0.00  0.00    +0.000 C 
BRANCH  19  25
ATOM     20  C   UNL     1       6.664   4.819  17.588  0.00  0.00    +0.000 C 
ATOM     21  C   UNL     1       5.303   4.720  18.209  0.00  0.00    +0.000 A 
ATOM     22  C   UNL     1       5.000   3.733  19.140  0.00  0.00    +0.000 A 
ATOM     23  C   UNL     1       3.719   3.682  19.699  0.00  0.00    +0.000 A 
ATOM     24  C   UNL     1       2.764   4.617  19.280  0.00  0.00    +0.000 A 
ATOM     25  C   UNL     1       3.167   5.592  18.349  0.00  0.00    +0.000 A 
ATOM     26  N   UNL     1       4.407   5.649  17.815  0.00  0.00    +0.000 NA
ATOM     27  C   UNL     1       1.369   4.629  19.867  0.00  0.00    +0.000 C 
ATOM     28  C   UNL     1       0.988   3.330  20.569  0.00  0.00    +0.000 C 
ATOM     29  C   UNL     1       2.109   2.892  21.496  0.00  0.00    +0.000 C 
ATOM     30  C   UNL     1       3.375   2.598  20.691  0.00  0.00    +0.000 C 
ENDBRANCH  19  25
ENDBRANCH  18  19
ENDBRANCH   1  18
TORSDOF 6
ENDMDL
MODEL 7
REMARK VINA RESULT:      -8.7      2.145      3.801
REMARK  Name = 
REMARK  8 active torsions:
REMARK  status: ('A' for Active; 'I' for Inactive)
REMARK    1  A    between atoms: C_1  and  C_2
REMARK    2  A    between atoms: C_6  and  C_7
REMARK    3  A    between atoms: C_7  and  C_8
REMARK    4  A    between atoms: C_8  and  C_9
REMARK    5  A    between atoms: C_13  and  C_14
REMARK    6  A    between atoms: C_14  and  C_15
REMARK    7  A    between atoms: C_15  and  C_16
REMARK    8  A    between atoms: N_20  and  C_21
REMARK                            x       y       z     vdW  Elec       q    Type
REMARK                         _______ _______ _______ _____ _____    ______ ____
ROOT
ATOM      1  C   UNL     1       2.262   7.901  18.438  0.00  0.00    +0.000 A 
ATOM      2  C   UNL     1       1.970   7.632  19.775  0.00  0.00    +0.000 A 
ATOM      3  C   UNL     1       2.495   6.496  20.388  0.00  0.00    +0.000 A 
ATOM      4  C   UNL     1       3.346   5.640  19.683  0.00  0.00    +0.000 A 
ATOM      5  C   UNL     1       3.690   5.883  18.343  0.00  0.00    +0.000 A 
ATOM      6  C   UNL     1       3.086   6.998  17.746  0.00  0.00    +0.000 A 
ENDROOT
BRANCH   5   7
ATOM      7  C   UNL     1       4.753   5.008  17.527  0.00  0.00    +0.000 C 
ATOM      8  C   UNL     1       6.035   4.653  18.330  0.00  0.00    +0.000 C 
ATOM      9  O   UNL     1       6.870   4.925  17.178  0.00  0.00    +0.000 OA
ATOM     10  C   UNL     1       5.793   5.724  16.607  0.00  0.00    +0.000 C 
BRANCH   7  11
ATOM     11  C   UNL     1       4.094   3.807  16.827  0.00  0.00    +0.000 C 
BRANCH  11  12
ATOM     12  C   UNL     1       2.905   3.272  17.559  0.00  0.00    +0.000 A 
ATOM     13  N   UNL     1       1.640   3.557  17.314  0.00  0.00    +0.000 NA
ATOM     14  N   UNL     1       0.857   2.837  18.186  0.00  0.00    +0.000 NA
ATOM     15  C   UNL     1       1.658   2.127  18.945  0.00  0.00    +0.000 A 
ATOM     16  N   UNL     1       2.950   2.375  18.595  0.00  0.00    +0.000 N 
ATOM     17  C   UNL     1       4.113   1.793  19.204  0.00  0.00    +0.000 C 
ENDBRANCH  11  12
ENDBRANCH   7  11
ENDBRANCH   5   7
BRANCH   1  18
ATOM     18  C   UNL     1       1.744   9.176  17.789  0.00  0.00    +0.000 C 
BRANCH  18  19
ATOM     19  C   UNL     1       1.079  10.104  18.808  0.00  0.00    +0.000 C 
BRANCH  19  25
ATOM     20  C   UNL     1      -2.934   9.800  16.098  0.00  0.00    +0.000 C 
ATOM     21  C   UNL     1      -2.265  10.386  17.305  0.00  0.00    +0.000 A 
ATOM     22  C   UNL     1      -2.945  11.235  18.172  0.00  0.00    +0.000 A 
ATOM     23  C   UNL     1      -2.284  11.753  19.289  0.00  0.00    +0.000 A 
ATOM     24  C   UNL     1      -0.938  11.423  19.488  0.00  0.00    +0.000 A 
ATOM     25  C   UNL     1      -0.337  10.541  18.571  0.00  0.00    +0.000 A 
ATOM     26  N   UNL     1      -0.978  10.031  17.496  0.00  0.00    +0.000 NA
ATOM     27  C   UNL     1      -0.176  11.933  20.692  0.00  0.00    +0.000 C 
ATOM     28  C   UNL     1      -0.832  13.129  21.373  0.00  0.00    +0.000 C 
ATOM     29  C   UNL     1      -2.315  12.864  21.572  0.00  0.00    +0.000 C 
ATOM     30  C   UNL     1      -3.007  12.696  20.220  0.00  0.00    +0.000 C 
ENDBRANCH  19  25
ENDBRANCH  18  19
ENDBRANCH   1  18
TORSDOF 6
ENDMDL
MODEL 8
REMARK VINA RESULT:      -8.7      2.885      8.434
REMARK  Name = 
REMARK  8 active torsions:
REMARK  status: ('A' for Active; 'I' for Inactive)
REMARK    1  A    between atoms: C_1  and  C_2
REMARK    2  A    between atoms: C_6  and  C_7
REMARK    3  A    between atoms: C_7  and  C_8
REMARK    4  A    between atoms: C_8  and  C_9
REMARK    5  A    between atoms: C_13  and  C_14
REMARK    6  A    between atoms: C_14  and  C_15
REMARK    7  A    between atoms: C_15  and  C_16
REMARK    8  A    between atoms: N_20  and  C_21
REMARK                            x       y       z     vdW  Elec       q    Type
REMARK                         _______ _______ _______ _____ _____    ______ ____
ROOT
ATOM      1  C   UNL     1       1.392   8.851  19.202  0.00  0.00    +0.000 A 
ATOM      2  C   UNL     1       1.363   8.374  20.512  0.00  0.00    +0.000 A 
ATOM      3  C   UNL     1       0.601   9.030  21.477  0.00  0.00    +0.000 A 
ATOM      4  C   UNL     1      -0.170  10.144  21.132  0.00  0.00    +0.000 A 
ATOM      5  C   UNL     1      -0.195  10.646  19.821  0.00  0.00    +0.000 A 
ATOM      6  C   UNL     1       0.639   9.998  18.899  0.00  0.00    +0.000 A 
ENDROOT
BRANCH   5   7
ATOM      7  C   UNL     1      -1.150  11.838  19.344  0.00  0.00    +0.000 C 
ATOM      8  C   UNL     1      -2.316  12.150  20.324  0.00  0.00    +0.000 C 
ATOM      9  O   UNL     1      -3.244  12.299  19.222  0.00  0.00    +0.000 OA
ATOM     10  C   UNL     1      -2.339  11.531  18.378  0.00  0.00    +0.000 C 
BRANCH   7  11
ATOM     11  C   UNL     1      -0.350  13.075  18.902  0.00  0.00    +0.000 C 
BRANCH  11  12
ATOM     12  C   UNL     1       0.768  13.424  19.831  0.00  0.00    +0.000 A 
ATOM     13  N   UNL     1       0.651  13.813  21.087  0.00  0.00    +0.000 NA
ATOM     14  N   UNL     1       1.913  14.006  21.600  0.00  0.00    +0.000 NA
ATOM     15  C   UNL     1       2.774  13.730  20.649  0.00  0.00    +0.000 A 
ATOM     16  N   UNL     1       2.102  13.372  19.521  0.00  0.00    +0.000 N 
ATOM     17  C   UNL     1       2.699  13.009  18.265  0.00  0.00    +0.000 C 
ENDBRANCH  11  12
ENDBRANCH   7  11
ENDBRANCH   5   7
BRANCH   1  18
ATOM     18  C   UNL     1       2.170   8.095  18.135  0.00  0.00    +0.000 C 
BRANCH  18  19
ATOM     19  C   UNL     1       3.145   7.087  18.748  0.00  0.00    +0.000 C 
BRANCH  19  25
ATOM     20  C   UNL     1       5.917   5.122  15.285  0.00  0.00    +0.000 C 
ATOM     21  C   UNL     1       4.855   4.916  16.323  0.00  0.00    +0.000 A 
ATOM     22  C   UNL     1       4.306   3.660  16.560  0.00  0.00    +0.000 A 
ATOM     23  C   UNL     1       3.323   3.513  17.544  0.00  0.00    +0.000 A 
ATOM     24  C   UNL     1       2.896   4.647  18.245  0.00  0.00    +0.000 A 
ATOM     25  C   UNL     1       3.523   5.872  17.952  0.00  0.00    +0.000 A 
ATOM     26  N   UNL     1       4.480   6.015  17.009  0.00  0.00    +0.000 NA
ATOM     27  C   UNL     1       1.854   4.547  19.338  0.00  0.00    +0.000 C 
ATOM     28  C   UNL     1       1.035   3.262  19.289  0.00  0.00    +0.000 C 
ATOM     29  C   UNL     1       1.956   2.065  19.119  0.00  0.00    +0.000 C 
ATOM     30  C   UNL     1       2.703   2.158  17.789  0.00  0.00    +0.000 C 
ENDBRANCH  19  25
ENDBRANCH  18  19
ENDBRANCH   1  18
TORSDOF 6
ENDMDL
MODEL 9
REMARK VINA RESULT:      -8.6      1.109      1.463
REMARK  Name = 
REMARK  8 active torsions:
REMARK  status: ('A' for Active; 'I' for Inactive)
REMARK    1  A    between atoms: C_1  and  C_2
REMARK    2  A    between atoms: C_6  and  C_7
REMARK    3  A    between atoms: C_7  and  C_8
REMARK    4  A    between atoms: C_8  and  C_9
REMARK    5  A    between atoms: C_13  and  C_14
REMARK    6  A    between atoms: C_14  and  C_15
REMARK    7  A    between atoms: C_15  and  C_16
REMARK    8  A    between atoms: N_20  and  C_21
REMARK                            x       y       z     vdW  Elec       q    Type
REMARK                         _______ _______ _______ _____ _____    ______ ____
ROOT
ATOM      1  C   UNL     1       2.237   7.612  18.887  0.00  0.00    +0.000 A 
ATOM      2  C   UNL     1       1.739   7.613  20.189  0.00  0.00    +0.000 A 
ATOM      3  C   UNL     1       1.702   6.429  20.923  0.00  0.00    +0.000 A 
ATOM      4  C   UNL     1       2.198   5.241  20.376  0.00  0.00    +0.000 A 
ATOM      5  C   UNL     1       2.732   5.195  19.078  0.00  0.00    +0.000 A 
ATOM      6  C   UNL     1       2.688   6.393  18.353  0.00  0.00    +0.000 A 
ENDROOT
BRANCH   5   7
ATOM      7  C   UNL     1       3.424   3.896  18.449  0.00  0.00    +0.000 C 
ATOM      8  C   UNL     1       2.726   3.362  17.167  0.00  0.00    +0.000 C 
ATOM      9  O   UNL     1       2.869   1.994  17.621  0.00  0.00    +0.000 OA
ATOM     10  C   UNL     1       3.032   2.482  18.984  0.00  0.00    +0.000 C 
BRANCH   7  11
ATOM     11  C   UNL     1       4.947   4.063  18.316  0.00  0.00    +0.000 C 
BRANCH  11  12
ATOM     12  C   UNL     1       5.398   4.305  16.911  0.00  0.00    +0.000 A 
ATOM     13  N   UNL     1       5.545   3.395  15.967  0.00  0.00    +0.000 NA
ATOM     14  N   UNL     1       5.946   4.029  14.813  0.00  0.00    +0.000 NA
ATOM     15  C   UNL     1       6.035   5.311  15.076  0.00  0.00    +0.000 A 
ATOM     16  N   UNL     1       5.711   5.530  16.380  0.00  0.00    +0.000 N 
ATOM     17  C   UNL     1       5.701   6.804  17.042  0.00  0.00    +0.000 C 
ENDBRANCH  11  12
ENDBRANCH   7  11
ENDBRANCH   5   7
BRANCH   1  18
ATOM     18  C   UNL     1       2.340   8.916  18.111  0.00  0.00    +0.000 C 
BRANCH  18  19
ATOM     19  C   UNL     1       0.968   9.417  17.653  0.00  0.00    +0.000 C 
BRANCH  19  25
ATOM     20  C   UNL     1       1.294  12.998  20.910  0.00  0.00    +0.000 C 
ATOM     21  C   UNL     1       0.417  12.195  19.997  0.00  0.00    +0.000 A 
ATOM     22  C   UNL     1      -0.944  12.459  19.882  0.00  0.00    +0.000 A 
ATOM     23  C   UNL     1      -1.724  11.689  19.012  0.00  0.00    +0.000 A 
ATOM     24  C   UNL     1      -1.112  10.649  18.302  0.00  0.00    +0.000 A 
ATOM     25  C   UNL     1       0.274  10.469  18.467  0.00  0.00    +0.000 A 
ATOM     26  N   UNL     1       1.030  11.218  19.298  0.00  0.00    +0.000 NA
ATOM     27  C   UNL     1      -1.898   9.798  17.328  0.00  0.00    +0.000 C 
ATOM     28  C   UNL     1      -3.408   9.874  17.525  0.00  0.00    +0.000 C 
ATOM     29  C   UNL     1      -3.842  11.324  17.660  0.00  0.00    +0.000 C 
ATOM     30  C   UNL     1      -3.206  11.951  18.901  0.00  0.00    +0.000 C 
ENDBRANCH  19  25
ENDBRANCH  18  19
ENDBRANCH   1  18
TORSDOF 6
ENDMDL
