MODEL 1
REMARK VINA RESULT:      -9.5      0.000      0.000
REMARK  Name = 
REMARK  5 active torsions:
REMARK  status: ('A' for Active; 'I' for Inactive)
REMARK    1  A    between atoms: C_1  and  S_2
REMARK    2  A    between atoms: S_2  and  C_5
REMARK    3  A    between atoms: C_10  and  C_11
REMARK    4  A    between atoms: N_13  and  C_14
REMARK    5  A    between atoms: C_17  and  C_18
REMARK                            x       y       z     vdW  Elec       q    Type
REMARK                         _______ _______ _______ _____ _____    ______ ____
ROOT
ATOM      1  C   UNL     1       1.434   8.489  20.480  0.00  0.00    +0.000 A 
ATOM      2  C   UNL     1       1.139   9.690  19.830  0.00  0.00    +0.000 A 
ATOM      3  C   UNL     1       0.427  10.716  20.474  0.00  0.00    +0.000 A 
ATOM      4  C   UNL     1      -0.016  10.572  21.790  0.00  0.00    +0.000 A 
ATOM      5  C   UNL     1       0.262   9.354  22.436  0.00  0.00    +0.000 A 
ATOM      6  C   UNL     1       0.966   8.322  21.786  0.00  0.00    +0.000 A 
ENDROOT
BRANCH   4   7
ATOM      7  C   UNL     1      -0.736  11.677  22.453  0.00  0.00    +0.000 A 
ATOM      8  N   UNL     1      -0.252  12.863  22.794  0.00  0.00    +0.000 NA
ATOM      9  C   UNL     1      -1.280  13.539  23.421  0.00  0.00    +0.000 A 
ATOM     10  C   UNL     1      -1.327  14.824  23.986  0.00  0.00    +0.000 A 
ATOM     11  C   UNL     1      -2.521  15.254  24.590  0.00  0.00    +0.000 A 
ATOM     12  C   UNL     1      -3.646  14.426  24.626  0.00  0.00    +0.000 A 
ATOM     13  C   UNL     1      -3.622  13.152  24.055  0.00  0.00    +0.000 A 
ATOM     14  C   UNL     1      -2.423  12.754  23.465  0.00  0.00    +0.000 A 
ATOM     15  N   UNL     1      -2.058  11.598  22.830  0.00  0.00    +0.000 N 
ATOM     16  H   UNL     1      -2.663  10.809  22.683  0.00  0.00    +0.000 HD
ENDBRANCH   4   7
BRANCH   1  19
ATOM     17  C   UNL     1       2.476   7.326  18.533  0.00  0.00    +0.000 C 
ATOM     18  O   UNL     1       2.171   8.150  17.674  0.00  0.00    +0.000 OA
ATOM     19  N   UNL     1       2.178   7.436  19.884  0.00  0.00    +0.000 N 
ATOM     20  H   UNL     1       2.583   6.753  20.516  0.00  0.00    +0.000 HD
BRANCH  17  26
ATOM     21  C   UNL     1       5.401   5.235  17.364  0.00  0.00    +0.000 A 
ATOM     22  C   UNL     1       4.814   3.995  17.103  0.00  0.00    +0.000 A 
ATOM     23  C   UNL     1       3.445   3.827  17.325  0.00  0.00    +0.000 A 
ATOM     24  C   UNL     1       2.669   4.891  17.800  0.00  0.00    +0.000 A 
ATOM     25  F   UNL     1       1.360   4.679  18.002  0.00  0.00    +0.000 F 
ATOM     26  C   UNL     1       3.243   6.138  18.059  0.00  0.00    +0.000 A 
ATOM     27  C   UNL     1       4.630   6.296  17.848  0.00  0.00    +0.000 A 
BRANCH  21  29
ATOM     28  C   UNL     1       7.507   7.048  17.837  0.00  0.00    +0.000 C 
ATOM     29  S   UNL     1       7.153   5.459  17.133  0.00  0.00    +0.000 S 
ATOM     30  O   UNL     1       7.388   5.557  15.704  0.00  0.00    +0.000 OA
ATOM     31  O   UNL     1       7.809   4.442  17.929  0.00  0.00    +0.000 OA
ENDBRANCH  21  29
ENDBRANCH  17  26
ENDBRANCH   1  19
TORSDOF 4
ENDMDL
MODEL 2
REMARK VINA RESULT:      -9.4      0.967      1.308
REMARK  Name = 
REMARK  5 active torsions:
REMARK  status: ('A' for Active; 'I' for Inactive)
REMARK    1  A    between atoms: C_1  and  S_2
REMARK    2  A    between atoms: S_2  and  C_5
REMARK    3  A    between atoms: C_10  and  C_11
REMARK    4  A    between atoms: N_13  and  C_14
REMARK    5  A    between atoms: C_17  and  C_18
REMARK                            x       y       z     vdW  Elec       q    Type
REMARK                         _______ _______ _______ _____ _____    ______ ____
ROOT
ATOM      1  C   UNL     1       1.535   8.642  20.070  0.00  0.00    +0.000 A 
ATOM      2  C   UNL     1       1.408   8.587  21.461  0.00  0.00    +0.000 A 
ATOM      3  C   UNL     1       0.672   9.553  22.168  0.00  0.00    +0.000 A 
ATOM      4  C   UNL     1       0.041  10.608  21.506  0.00  0.00    +0.000 A 
ATOM      5  C   UNL     1       0.189  10.675  20.109  0.00  0.00    +0.000 A 
ATOM      6  C   UNL     1       0.935   9.713  19.402  0.00  0.00    +0.000 A 
ENDROOT
BRANCH   4   7
ATOM      7  C   UNL     1      -0.750  11.592  22.270  0.00  0.00    +0.000 A 
ATOM      8  N   UNL     1      -0.353  12.776  22.712  0.00  0.00    +0.000 NA
ATOM      9  C   UNL     1      -1.419  13.314  23.404  0.00  0.00    +0.000 A 
ATOM     10  C   UNL     1      -1.555  14.537  24.082  0.00  0.00    +0.000 A 
ATOM     11  C   UNL     1      -2.769  14.819  24.731  0.00  0.00    +0.000 A 
ATOM     12  C   UNL     1      -3.827  13.908  24.703  0.00  0.00    +0.000 A 
ATOM     13  C   UNL     1      -3.715  12.695  24.021  0.00  0.00    +0.000 A 
ATOM     14  C   UNL     1      -2.498  12.443  23.387  0.00  0.00    +0.000 A 
ATOM     15  N   UNL     1      -2.056  11.379  22.649  0.00  0.00    +0.000 N 
ATOM     16  H   UNL     1      -2.602  10.562  22.438  0.00  0.00    +0.000 HD
ENDBRANCH   4   7
BRANCH   1  19
ATOM     17  C   UNL     1       2.319   6.319  19.602  0.00  0.00    +0.000 C 
ATOM     18  O   UNL     1       1.753   5.768  20.543  0.00  0.00    +0.000 OA
ATOM     19  N   UNL     1       2.240   7.673  19.307  0.00  0.00    +0.000 N 
ATOM     20  H   UNL     1       2.654   7.994  18.437  0.00  0.00    +0.000 HD
BRANCH  17  26
ATOM     21  C   UNL     1       5.339   4.871  17.847  0.00  0.00    +0.000 A 
ATOM     22  C   UNL     1       4.784   3.880  17.036  0.00  0.00    +0.000 A 
ATOM     23  C   UNL     1       3.404   3.665  17.069  0.00  0.00    +0.000 A 
ATOM     24  C   UNL     1       2.586   4.436  17.902  0.00  0.00    +0.000 A 
ATOM     25  F   UNL     1       1.268   4.188  17.902  0.00  0.00    +0.000 F 
ATOM     26  C   UNL     1       3.129   5.435  18.714  0.00  0.00    +0.000 A 
ATOM     27  C   UNL     1       4.525   5.637  18.688  0.00  0.00    +0.000 A 
BRANCH  21  29
ATOM     28  C   UNL     1       7.309   6.854  17.479  0.00  0.00    +0.000 C 
ATOM     29  S   UNL     1       7.101   5.133  17.857  0.00  0.00    +0.000 S 
ATOM     30  O   UNL     1       7.653   4.377  16.749  0.00  0.00    +0.000 OA
ATOM     31  O   UNL     1       7.547   4.898  19.216  0.00  0.00    +0.000 OA
ENDBRANCH  21  29
ENDBRANCH  17  26
ENDBRANCH   1  19
TORSDOF 4
ENDMDL
MODEL 3
REMARK VINA RESULT:      -9.3      0.972      1.471
REMARK  Name = 
REMARK  5 active torsions:
REMARK  status: ('A' for Active; 'I' for Inactive)
REMARK    1  A    between atoms: C_1  and  S_2
REMARK    2  A    between atoms: S_2  and  C_5
REMARK    3  A    between atoms: C_10  and  C_11
REMARK    4  A    between atoms: N_13  and  C_14
REMARK    5  A    between atoms: C_17  and  C_18
REMARK                            x       y       z     vdW  Elec       q    Type
REMARK                         _______ _______ _______ _____ _____    ______ ____
ROOT
ATOM      1  C   UNL     1       1.440   8.663  19.933  0.00  0.00    +0.000 A 
ATOM      2  C   UNL     1       0.813   9.757  19.331  0.00  0.00    +0.000 A 
ATOM      3  C   UNL     1       0.076  10.685  20.085  0.00  0.00    +0.000 A 
ATOM      4  C   UNL     1      -0.059  10.547  21.469  0.00  0.00    +0.000 A 
ATOM      5  C   UNL     1       0.555   9.434  22.070  0.00  0.00    +0.000 A 
ATOM      6  C   UNL     1       1.283   8.498  21.312  0.00  0.00    +0.000 A 
ENDROOT
BRANCH   4   7
ATOM      7  C   UNL     1      -0.814  11.554  22.241  0.00  0.00    +0.000 A 
ATOM      8  N   UNL     1      -1.962  11.383  22.879  0.00  0.00    +0.000 NA
ATOM      9  C   UNL     1      -2.297  12.610  23.417  0.00  0.00    +0.000 A 
ATOM     10  C   UNL     1      -3.406  13.009  24.182  0.00  0.00    +0.000 A 
ATOM     11  C   UNL     1      -3.504  14.352  24.582  0.00  0.00    +0.000 A 
ATOM     12  C   UNL     1      -2.517  15.278  24.234  0.00  0.00    +0.000 A 
ATOM     13  C   UNL     1      -1.401  14.896  23.488  0.00  0.00    +0.000 A 
ATOM     14  C   UNL     1      -1.333  13.557  23.105  0.00  0.00    +0.000 A 
ATOM     15  N   UNL     1      -0.402  12.860  22.384  0.00  0.00    +0.000 N 
ATOM     16  H   UNL     1       0.441  13.253  22.004  0.00  0.00    +0.000 HD
ENDBRANCH   4   7
BRANCH   1  19
ATOM     17  C   UNL     1       2.376   6.380  19.560  0.00  0.00    +0.000 C 
ATOM     18  O   UNL     1       1.821   5.824  20.504  0.00  0.00    +0.000 OA
ATOM     19  N   UNL     1       2.222   7.716  19.219  0.00  0.00    +0.000 N 
ATOM     20  H   UNL     1       2.638   8.034  18.349  0.00  0.00    +0.000 HD
BRANCH  17  26
ATOM     21  C   UNL     1       5.537   4.991  18.018  0.00  0.00    +0.000 A 
ATOM     22  C   UNL     1       5.055   4.011  17.148  0.00  0.00    +0.000 A 
ATOM     23  C   UNL     1       3.679   3.783  17.069  0.00  0.00    +0.000 A 
ATOM     24  C   UNL     1       2.792   4.532  17.851  0.00  0.00    +0.000 A 
ATOM     25  F   UNL     1       1.480   4.273  17.744  0.00  0.00    +0.000 F 
ATOM     26  C   UNL     1       3.261   5.519  18.721  0.00  0.00    +0.000 A 
ATOM     27  C   UNL     1       4.653   5.733  18.807  0.00  0.00    +0.000 A 
BRANCH  21  29
ATOM     28  C   UNL     1       7.538   6.937  17.625  0.00  0.00    +0.000 C 
ATOM     29  S   UNL     1       7.290   5.267  18.169  0.00  0.00    +0.000 S 
ATOM     30  O   UNL     1       7.945   4.398  17.209  0.00  0.00    +0.000 OA
ATOM     31  O   UNL     1       7.601   5.187  19.582  0.00  0.00    +0.000 OA
ENDBRANCH  21  29
ENDBRANCH  17  26
ENDBRANCH   1  19
TORSDOF 4
ENDMDL
MODEL 4
REMARK VINA RESULT:      -9.2      0.331      1.104
REMARK  Name = 
REMARK  5 active torsions:
REMARK  status: ('A' for Active; 'I' for Inactive)
REMARK    1  A    between atoms: C_1  and  S_2
REMARK    2  A    between atoms: S_2  and  C_5
REMARK    3  A    between atoms: C_10  and  C_11
REMARK    4  A    between atoms: N_13  and  C_14
REMARK    5  A    between atoms: C_17  and  C_18
REMARK                            x       y       z     vdW  Elec       q    Type
REMARK                         _______ _______ _______ _____ _____    ______ ____
ROOT
ATOM      1  C   UNL     1       1.298   8.477  20.447  0.00  0.00    +0.000 A 
ATOM      2  C   UNL     1       0.663   9.485  19.718  0.00  0.00    +0.000 A 
ATOM      3  C   UNL     1      -0.042  10.518  20.357  0.00  0.00    +0.000 A 
ATOM      4  C   UNL     1      -0.136  10.575  21.750  0.00  0.00    +0.000 A 
ATOM      5  C   UNL     1       0.485   9.548  22.481  0.00  0.00    +0.000 A 
ATOM      6  C   UNL     1       1.182   8.506  21.840  0.00  0.00    +0.000 A 
ENDROOT
BRANCH   4   7
ATOM      7  C   UNL     1      -0.858  11.689  22.397  0.00  0.00    +0.000 A 
ATOM      8  N   UNL     1      -2.019  11.634  23.033  0.00  0.00    +0.000 NA
ATOM      9  C   UNL     1      -2.309  12.924  23.428  0.00  0.00    +0.000 A 
ATOM     10  C   UNL     1      -3.409  13.447  24.129  0.00  0.00    +0.000 A 
ATOM     11  C   UNL     1      -3.457  14.829  24.378  0.00  0.00    +0.000 A 
ATOM     12  C   UNL     1      -2.431  15.673  23.945  0.00  0.00    +0.000 A 
ATOM     13  C   UNL     1      -1.324  15.168  23.261  0.00  0.00    +0.000 A 
ATOM     14  C   UNL     1      -1.305  13.793  23.028  0.00  0.00    +0.000 A 
ATOM     15  N   UNL     1      -0.396  12.986  22.401  0.00  0.00    +0.000 N 
ATOM     16  H   UNL     1       0.466  13.303  21.992  0.00  0.00    +0.000 HD
ENDBRANCH   4   7
BRANCH   1  19
ATOM     17  C   UNL     1       2.543   7.433  18.553  0.00  0.00    +0.000 C 
ATOM     18  O   UNL     1       2.432   8.363  17.758  0.00  0.00    +0.000 OA
ATOM     19  N   UNL     1       2.049   7.430  19.850  0.00  0.00    +0.000 N 
ATOM     20  H   UNL     1       2.304   6.653  20.452  0.00  0.00    +0.000 HD
BRANCH  17  26
ATOM     21  C   UNL     1       5.433   5.302  17.366  0.00  0.00    +0.000 A 
ATOM     22  C   UNL     1       4.823   4.080  17.080  0.00  0.00    +0.000 A 
ATOM     23  C   UNL     1       3.449   3.936  17.290  0.00  0.00    +0.000 A 
ATOM     24  C   UNL     1       2.691   5.007  17.779  0.00  0.00    +0.000 A 
ATOM     25  F   UNL     1       1.377   4.818  17.969  0.00  0.00    +0.000 F 
ATOM     26  C   UNL     1       3.289   6.237  18.063  0.00  0.00    +0.000 A 
ATOM     27  C   UNL     1       4.680   6.371  17.863  0.00  0.00    +0.000 A 
BRANCH  21  29
ATOM     28  C   UNL     1       7.569   7.072  17.868  0.00  0.00    +0.000 C 
ATOM     29  S   UNL     1       7.190   5.495  17.150  0.00  0.00    +0.000 S 
ATOM     30  O   UNL     1       7.439   5.598  15.724  0.00  0.00    +0.000 OA
ATOM     31  O   UNL     1       7.821   4.460  17.944  0.00  0.00    +0.000 OA
ENDBRANCH  21  29
ENDBRANCH  17  26
ENDBRANCH   1  19
TORSDOF 4
ENDMDL
MODEL 5
REMARK VINA RESULT:      -9.2      1.423      1.864
REMARK  Name = 
REMARK  5 active torsions:
REMARK  status: ('A' for Active; 'I' for Inactive)
REMARK    1  A    between atoms: C_1  and  S_2
REMARK    2  A    between atoms: S_2  and  C_5
REMARK    3  A    between atoms: C_10  and  C_11
REMARK    4  A    between atoms: N_13  and  C_14
REMARK    5  A    between atoms: C_17  and  C_18
REMARK                            x       y       z     vdW  Elec       q    Type
REMARK                         _______ _______ _______ _____ _____    ______ ____
ROOT
ATOM      1  C   UNL     1       1.407   8.603  19.888  0.00  0.00    +0.000 A 
ATOM      2  C   UNL     1       1.073   8.497  21.241  0.00  0.00    +0.000 A 
ATOM      3  C   UNL     1       0.178   9.395  21.847  0.00  0.00    +0.000 A 
ATOM      4  C   UNL     1      -0.410  10.431  21.119  0.00  0.00    +0.000 A 
ATOM      5  C   UNL     1      -0.055  10.550  19.763  0.00  0.00    +0.000 A 
ATOM      6  C   UNL     1       0.850   9.657  19.159  0.00  0.00    +0.000 A 
ENDROOT
BRANCH   4   7
ATOM      7  C   UNL     1      -1.369  11.343  21.773  0.00  0.00    +0.000 A 
ATOM      8  N   UNL     1      -1.766  11.321  23.037  0.00  0.00    +0.000 NA
ATOM      9  C   UNL     1      -2.695  12.333  23.172  0.00  0.00    +0.000 A 
ATOM     10  C   UNL     1      -3.439  12.757  24.286  0.00  0.00    +0.000 A 
ATOM     11  C   UNL     1      -4.347  13.818  24.128  0.00  0.00    +0.000 A 
ATOM     12  C   UNL     1      -4.508  14.448  22.892  0.00  0.00    +0.000 A 
ATOM     13  C   UNL     1      -3.765  14.050  21.779  0.00  0.00    +0.000 A 
ATOM     14  C   UNL     1      -2.874  12.994  21.966  0.00  0.00    +0.000 A 
ATOM     15  N   UNL     1      -2.012  12.364  21.110  0.00  0.00    +0.000 N 
ATOM     16  H   UNL     1      -1.887  12.605  20.142  0.00  0.00    +0.000 HD
ENDBRANCH   4   7
BRANCH   1  19
ATOM     17  C   UNL     1       2.382   6.342  19.480  0.00  0.00    +0.000 C 
ATOM     18  O   UNL     1       1.698   5.724  20.293  0.00  0.00    +0.000 OA
ATOM     19  N   UNL     1       2.280   7.702  19.223  0.00  0.00    +0.000 N 
ATOM     20  H   UNL     1       2.815   8.078  18.446  0.00  0.00    +0.000 HD
BRANCH  17  26
ATOM     21  C   UNL     1       5.726   5.040  18.289  0.00  0.00    +0.000 A 
ATOM     22  C   UNL     1       5.370   4.127  17.296  0.00  0.00    +0.000 A 
ATOM     23  C   UNL     1       4.018   3.914  17.015  0.00  0.00    +0.000 A 
ATOM     24  C   UNL     1       3.031   4.613  17.720  0.00  0.00    +0.000 A 
ATOM     25  F   UNL     1       1.746   4.372  17.418  0.00  0.00    +0.000 F 
ATOM     26  C   UNL     1       3.374   5.535  18.712  0.00  0.00    +0.000 A 
ATOM     27  C   UNL     1       4.741   5.733  19.001  0.00  0.00    +0.000 A 
BRANCH  21  29
ATOM     28  C   UNL     1       7.818   6.921  18.097  0.00  0.00    +0.000 C 
ATOM     29  S   UNL     1       7.442   5.293  18.695  0.00  0.00    +0.000 S 
ATOM     30  O   UNL     1       8.213   4.353  17.905  0.00  0.00    +0.000 OA
ATOM     31  O   UNL     1       7.528   5.299  20.142  0.00  0.00    +0.000 OA
ENDBRANCH  21  29
ENDBRANCH  17  26
ENDBRANCH   1  19
TORSDOF 4
ENDMDL
MODEL 6
REMARK VINA RESULT:      -9.2      0.991      1.693
REMARK  Name = 
REMARK  5 active torsions:
REMARK  status: ('A' for Active; 'I' for Inactive)
REMARK    1  A    between atoms: C_1  and  S_2
REMARK    2  A    between atoms: S_2  and  C_5
REMARK    3  A    between atoms: C_10  and  C_11
REMARK    4  A    between atoms: N_13  and  C_14
REMARK    5  A    between atoms: C_17  and  C_18
REMARK                            x       y       z     vdW  Elec       q    Type
REMARK                         _______ _______ _______ _____ _____    ______ ____
ROOT
ATOM      1  C   UNL     1       1.542   8.608  19.990  0.00  0.00    +0.000 A 
ATOM      2  C   UNL     1       1.369   8.494  21.372  0.00  0.00    +0.000 A 
ATOM      3  C   UNL     1       0.609   9.427  22.095  0.00  0.00    +0.000 A 
ATOM      4  C   UNL     1      -0.004  10.509  21.459  0.00  0.00    +0.000 A 
ATOM      5  C   UNL     1       0.189  10.635  20.071  0.00  0.00    +0.000 A 
ATOM      6  C   UNL     1       0.961   9.705  19.348  0.00  0.00    +0.000 A 
ENDROOT
BRANCH   4   7
ATOM      7  C   UNL     1      -0.822  11.458  22.238  0.00  0.00    +0.000 A 
ATOM      8  N   UNL     1      -1.974  11.217  22.847  0.00  0.00    +0.000 NA
ATOM      9  C   UNL     1      -2.379  12.413  23.405  0.00  0.00    +0.000 A 
ATOM     10  C   UNL     1      -3.522  12.739  24.155  0.00  0.00    +0.000 A 
ATOM     11  C   UNL     1      -3.694  14.065  24.584  0.00  0.00    +0.000 A 
ATOM     12  C   UNL     1      -2.747  15.047  24.279  0.00  0.00    +0.000 A 
ATOM     13  C   UNL     1      -1.598  14.737  23.548  0.00  0.00    +0.000 A 
ATOM     14  C   UNL     1      -1.457  13.412  23.136  0.00  0.00    +0.000 A 
ATOM     15  N   UNL     1      -0.478  12.779  22.420  0.00  0.00    +0.000 N 
ATOM     16  H   UNL     1       0.352  13.222  22.067  0.00  0.00    +0.000 HD
ENDBRANCH   4   7
BRANCH   1  19
ATOM     17  C   UNL     1       2.453   6.333  19.520  0.00  0.00    +0.000 C 
ATOM     18  O   UNL     1       1.967   5.762  20.493  0.00  0.00    +0.000 OA
ATOM     19  N   UNL     1       2.274   7.673  19.210  0.00  0.00    +0.000 N 
ATOM     20  H   UNL     1       2.627   8.005  18.318  0.00  0.00    +0.000 HD
BRANCH  17  26
ATOM     21  C   UNL     1       5.466   5.092  17.601  0.00  0.00    +0.000 A 
ATOM     22  C   UNL     1       4.952   4.017  16.874  0.00  0.00    +0.000 A 
ATOM     23  C   UNL     1       3.605   3.675  17.020  0.00  0.00    +0.000 A 
ATOM     24  C   UNL     1       2.778   4.405  17.881  0.00  0.00    +0.000 A 
ATOM     25  F   UNL     1       1.494   4.035  17.992  0.00  0.00    +0.000 F 
ATOM     26  C   UNL     1       3.279   5.487  18.610  0.00  0.00    +0.000 A 
ATOM     27  C   UNL     1       4.644   5.817  18.470  0.00  0.00    +0.000 A 
BRANCH  21  29
ATOM     28  C   UNL     1       7.722   5.802  19.135  0.00  0.00    +0.000 C 
ATOM     29  S   UNL     1       7.190   5.517  17.467  0.00  0.00    +0.000 S 
ATOM     30  O   UNL     1       7.267   6.785  16.766  0.00  0.00    +0.000 OA
ATOM     31  O   UNL     1       7.868   4.342  16.958  0.00  0.00    +0.000 OA
ENDBRANCH  21  29
ENDBRANCH  17  26
ENDBRANCH   1  19
TORSDOF 4
ENDMDL
MODEL 7
REMARK VINA RESULT:      -9.1      0.725      1.693
REMARK  Name = 
REMARK  5 active torsions:
REMARK  status: ('A' for Active; 'I' for Inactive)
REMARK    1  A    between atoms: C_1  and  S_2
REMARK    2  A    between atoms: S_2  and  C_5
REMARK    3  A    between atoms: C_10  and  C_11
REMARK    4  A    between atoms: N_13  and  C_14
REMARK    5  A    between atoms: C_17  and  C_18
REMARK                            x       y       z     vdW  Elec       q    Type
REMARK                         _______ _______ _______ _____ _____    ______ ____
ROOT
ATOM      1  C   UNL     1       1.439   8.403  20.537  0.00  0.00    +0.000 A 
ATOM      2  C   UNL     1       1.142   8.407  21.902  0.00  0.00    +0.000 A 
ATOM      3  C   UNL     1       0.416   9.455  22.492  0.00  0.00    +0.000 A 
ATOM      4  C   UNL     1      -0.036  10.537  21.733  0.00  0.00    +0.000 A 
ATOM      5  C   UNL     1       0.282  10.543  20.364  0.00  0.00    +0.000 A 
ATOM      6  C   UNL     1       1.020   9.498  19.776  0.00  0.00    +0.000 A 
ENDROOT
BRANCH   4   7
ATOM      7  C   UNL     1      -0.824  11.610  22.372  0.00  0.00    +0.000 A 
ATOM      8  N   UNL     1      -1.962  11.485  23.039  0.00  0.00    +0.000 NA
ATOM      9  C   UNL     1      -2.338  12.760  23.411  0.00  0.00    +0.000 A 
ATOM     10  C   UNL     1      -3.458  13.218  24.127  0.00  0.00    +0.000 A 
ATOM     11  C   UNL     1      -3.603  14.598  24.345  0.00  0.00    +0.000 A 
ATOM     12  C   UNL     1      -2.653  15.504  23.866  0.00  0.00    +0.000 A 
ATOM     13  C   UNL     1      -1.528  15.066  23.166  0.00  0.00    +0.000 A 
ATOM     14  C   UNL     1      -1.412  13.690  22.965  0.00  0.00    +0.000 A 
ATOM     15  N   UNL     1      -0.460  12.937  22.335  0.00  0.00    +0.000 N 
ATOM     16  H   UNL     1       0.366  13.306  21.896  0.00  0.00    +0.000 HD
ENDBRANCH   4   7
BRANCH   1  19
ATOM     17  C   UNL     1       2.470   7.317  18.541  0.00  0.00    +0.000 C 
ATOM     18  O   UNL     1       2.233   8.211  17.733  0.00  0.00    +0.000 OA
ATOM     19  N   UNL     1       2.142   7.353  19.889  0.00  0.00    +0.000 N 
ATOM     20  H   UNL     1       2.493   6.608  20.483  0.00  0.00    +0.000 HD
BRANCH  17  26
ATOM     21  C   UNL     1       5.238   5.227  17.035  0.00  0.00    +0.000 A 
ATOM     22  C   UNL     1       4.648   3.968  16.913  0.00  0.00    +0.000 A 
ATOM     23  C   UNL     1       3.330   3.786  17.342  0.00  0.00    +0.000 A 
ATOM     24  C   UNL     1       2.609   4.856  17.884  0.00  0.00    +0.000 A 
ATOM     25  F   UNL     1       1.349   4.631  18.286  0.00  0.00    +0.000 F 
ATOM     26  C   UNL     1       3.186   6.123  18.006  0.00  0.00    +0.000 A 
ATOM     27  C   UNL     1       4.522   6.295  17.585  0.00  0.00    +0.000 A 
BRANCH  21  29
ATOM     28  C   UNL     1       7.000   4.906  14.858  0.00  0.00    +0.000 C 
ATOM     29  S   UNL     1       6.931   5.470  16.538  0.00  0.00    +0.000 S 
ATOM     30  O   UNL     1       7.745   4.568  17.331  0.00  0.00    +0.000 OA
ATOM     31  O   UNL     1       7.167   6.900  16.558  0.00  0.00    +0.000 OA
ENDBRANCH  21  29
ENDBRANCH  17  26
ENDBRANCH   1  19
TORSDOF 4
ENDMDL
MODEL 8
REMARK VINA RESULT:      -8.9      0.837      1.245
REMARK  Name = 
REMARK  5 active torsions:
REMARK  status: ('A' for Active; 'I' for Inactive)
REMARK    1  A    between atoms: C_1  and  S_2
REMARK    2  A    between atoms: S_2  and  C_5
REMARK    3  A    between atoms: C_10  and  C_11
REMARK    4  A    between atoms: N_13  and  C_14
REMARK    5  A    between atoms: C_17  and  C_18
REMARK                            x       y       z     vdW  Elec       q    Type
REMARK                         _______ _______ _______ _____ _____    ______ ____
ROOT
ATOM      1  C   UNL     1       1.344   8.457  20.476  0.00  0.00    +0.000 A 
ATOM      2  C   UNL     1       0.722   8.398  21.725  0.00  0.00    +0.000 A 
ATOM      3  C   UNL     1      -0.083   9.449  22.194  0.00  0.00    +0.000 A 
ATOM      4  C   UNL     1      -0.292  10.597  21.425  0.00  0.00    +0.000 A 
ATOM      5  C   UNL     1       0.352  10.664  20.177  0.00  0.00    +0.000 A 
ATOM      6  C   UNL     1       1.169   9.615  19.713  0.00  0.00    +0.000 A 
ENDROOT
BRANCH   4   7
ATOM      7  C   UNL     1      -1.167  11.674  21.928  0.00  0.00    +0.000 A 
ATOM      8  N   UNL     1      -1.303  12.896  21.437  0.00  0.00    +0.000 NA
ATOM      9  C   UNL     1      -2.196  13.552  22.260  0.00  0.00    +0.000 A 
ATOM     10  C   UNL     1      -2.698  14.864  22.215  0.00  0.00    +0.000 A 
ATOM     11  C   UNL     1      -3.594  15.279  23.214  0.00  0.00    +0.000 A 
ATOM     12  C   UNL     1      -3.987  14.409  24.234  0.00  0.00    +0.000 A 
ATOM     13  C   UNL     1      -3.510  13.098  24.285  0.00  0.00    +0.000 A 
ATOM     14  C   UNL     1      -2.622  12.715  23.280  0.00  0.00    +0.000 A 
ATOM     15  N   UNL     1      -1.976  11.534  23.034  0.00  0.00    +0.000 N 
ATOM     16  H   UNL     1      -2.069  10.703  23.591  0.00  0.00    +0.000 HD
ENDBRANCH   4   7
BRANCH   1  19
ATOM     17  C   UNL     1       2.449   7.231  18.603  0.00  0.00    +0.000 C 
ATOM     18  O   UNL     1       2.107   7.985  17.696  0.00  0.00    +0.000 OA
ATOM     19  N   UNL     1       2.141   7.408  19.945  0.00  0.00    +0.000 N 
ATOM     20  H   UNL     1       2.578   6.785  20.617  0.00  0.00    +0.000 HD
BRANCH  17  26
ATOM     21  C   UNL     1       5.514   5.138  17.880  0.00  0.00    +0.000 A 
ATOM     22  C   UNL     1       4.971   3.938  17.418  0.00  0.00    +0.000 A 
ATOM     23  C   UNL     1       3.583   3.796  17.353  0.00  0.00    +0.000 A 
ATOM     24  C   UNL     1       2.745   4.847  17.744  0.00  0.00    +0.000 A 
ATOM     25  F   UNL     1       1.418   4.662  17.669  0.00  0.00    +0.000 F 
ATOM     26  C   UNL     1       3.276   6.056  18.202  0.00  0.00    +0.000 A 
ATOM     27  C   UNL     1       4.679   6.186  18.280  0.00  0.00    +0.000 A 
BRANCH  21  29
ATOM     28  C   UNL     1       7.597   7.011  17.566  0.00  0.00    +0.000 C 
ATOM     29  S   UNL     1       7.280   5.324  18.015  0.00  0.00    +0.000 S 
ATOM     30  O   UNL     1       7.880   4.485  16.995  0.00  0.00    +0.000 OA
ATOM     31  O   UNL     1       7.610   5.148  19.415  0.00  0.00    +0.000 OA
ENDBRANCH  21  29
ENDBRANCH  17  26
ENDBRANCH   1  19
TORSDOF 4
ENDMDL
MODEL 9
REMARK VINA RESULT:      -8.9      1.244      1.761
REMARK  Name = 
REMARK  5 active torsions:
REMARK  status: ('A' for Active; 'I' for Inactive)
REMARK    1  A    between atoms: C_1  and  S_2
REMARK    2  A    between atoms: S_2  and  C_5
REMARK    3  A    between atoms: C_10  and  C_11
REMARK    4  A    between atoms: N_13  and  C_14
REMARK    5  A    between atoms: C_17  and  C_18
REMARK                            x       y       z     vdW  Elec       q    Type
REMARK                         _______ _______ _______ _____ _____    ______ ____
ROOT
ATOM      1  C   UNL     1       1.464   8.784  19.597  0.00  0.00    +0.000 A 
ATOM      2  C   UNL     1       1.308   8.862  20.983  0.00  0.00    +0.000 A 
ATOM      3  C   UNL     1       0.497   9.844  21.575  0.00  0.00    +0.000 A 
ATOM      4  C   UNL     1      -0.185  10.783  20.798  0.00  0.00    +0.000 A 
ATOM      5  C   UNL     1      -0.010  10.717  19.404  0.00  0.00    +0.000 A 
ATOM      6  C   UNL     1       0.812   9.740  18.812  0.00  0.00    +0.000 A 
ENDROOT
BRANCH   4   7
ATOM      7  C   UNL     1      -1.055  11.786  21.444  0.00  0.00    +0.000 A 
ATOM      8  N   UNL     1      -2.211  12.256  20.998  0.00  0.00    +0.000 NA
ATOM      9  C   UNL     1      -2.630  13.198  21.916  0.00  0.00    +0.000 A 
ATOM     10  C   UNL     1      -3.777  14.009  21.944  0.00  0.00    +0.000 A 
ATOM     11  C   UNL     1      -3.940  14.913  23.007  0.00  0.00    +0.000 A 
ATOM     12  C   UNL     1      -2.985  15.005  24.024  0.00  0.00    +0.000 A 
ATOM     13  C   UNL     1      -1.848  14.196  24.019  0.00  0.00    +0.000 A 
ATOM     14  C   UNL     1      -1.714  13.310  22.951  0.00  0.00    +0.000 A 
ATOM     15  N   UNL     1      -0.746  12.395  22.639  0.00  0.00    +0.000 N 
ATOM     16  H   UNL     1       0.073  12.216  23.194  0.00  0.00    +0.000 HD
ENDBRANCH   4   7
BRANCH   1  19
ATOM     17  C   UNL     1       2.375   6.473  19.362  0.00  0.00    +0.000 C 
ATOM     18  O   UNL     1       1.795   5.974  20.323  0.00  0.00    +0.000 OA
ATOM     19  N   UNL     1       2.246   7.791  18.949  0.00  0.00    +0.000 N 
ATOM     20  H   UNL     1       2.683   8.058  18.072  0.00  0.00    +0.000 HD
BRANCH  17  26
ATOM     21  C   UNL     1       5.545   4.975  17.946  0.00  0.00    +0.000 A 
ATOM     22  C   UNL     1       5.068   3.949  17.129  0.00  0.00    +0.000 A 
ATOM     23  C   UNL     1       3.691   3.726  17.045  0.00  0.00    +0.000 A 
ATOM     24  C   UNL     1       2.799   4.525  17.770  0.00  0.00    +0.000 A 
ATOM     25  F   UNL     1       1.487   4.269  17.662  0.00  0.00    +0.000 F 
ATOM     26  C   UNL     1       3.264   5.559  18.587  0.00  0.00    +0.000 A 
ATOM     27  C   UNL     1       4.657   5.768  18.678  0.00  0.00    +0.000 A 
BRANCH  21  29
ATOM     28  C   UNL     1       7.548   6.924  17.580  0.00  0.00    +0.000 C 
ATOM     29  S   UNL     1       7.298   5.248  18.103  0.00  0.00    +0.000 S 
ATOM     30  O   UNL     1       7.955   4.390  17.135  0.00  0.00    +0.000 OA
ATOM     31  O   UNL     1       7.607   5.151  19.516  0.00  0.00    +0.000 OA
ENDBRANCH  21  29
ENDBRANCH  17  26
ENDBRANCH   1  19
TORSDOF 4
ENDMDL
