MODEL 1
REMARK VINA RESULT:      -8.5      0.000      0.000
REMARK  Name = 
REMARK  4 active torsions:
REMARK  status: ('A' for Active; 'I' for Inactive)
REMARK    1  A    between atoms: C_1  and  C_2
REMARK    2  A    between atoms: C_4  and  C_5
REMARK    3  A    between atoms: C_9  and  C_10
REMARK    4  A    between atoms: C_10  and  O_12
REMARK                            x       y       z     vdW  Elec       q    Type
REMARK                         _______ _______ _______ _____ _____    ______ ____
ROOT
ATOM      1  C   UNL     1       5.240   4.114  18.890  0.00  0.00    +0.000 C 
ATOM      2  O   UNL     1       5.679   3.014  19.236  0.00  0.00    +0.000 OA
ATOM      3  N   UNL     1       4.021   4.559  19.437  0.00  0.00    +0.000 N 
ATOM      4  C   UNL     1       3.511   3.813  20.615  0.00  0.00    +0.000 C 
ATOM      5  C   UNL     1       2.234   4.508  21.080  0.00  0.00    +0.000 C 
ATOM      6  C   UNL     1       2.292   5.793  20.310  0.00  0.00    +0.000 A 
ATOM      7  C   UNL     1       1.507   6.920  20.516  0.00  0.00    +0.000 A 
ATOM      8  C   UNL     1       1.649   7.990  19.637  0.00  0.00    +0.000 A 
ATOM      9  C   UNL     1       2.491   7.873  18.526  0.00  0.00    +0.000 A 
ATOM     10  C   UNL     1       3.244   6.710  18.315  0.00  0.00    +0.000 A 
ATOM     11  C   UNL     1       3.230   5.716  19.277  0.00  0.00    +0.000 A 
ENDROOT
BRANCH   1  15
ATOM     12  C   UNL     1       8.198   8.031  18.236  0.00  0.00    +0.000 C 
ATOM     13  C   UNL     1       7.565   6.789  17.687  0.00  0.00    +0.000 A 
ATOM     14  C   UNL     1       6.948   5.884  18.523  0.00  0.00    +0.000 A 
ATOM     15  C   UNL     1       6.088   4.935  17.971  0.00  0.00    +0.000 A 
ATOM     16  C   UNL     1       6.131   4.706  16.562  0.00  0.00    +0.000 A 
ATOM     17  C   UNL     1       5.476   3.662  15.850  0.00  0.00    +0.000 A 
ATOM     18  C   UNL     1       5.696   3.451  14.486  0.00  0.00    +0.000 A 
ATOM     19  C   UNL     1       6.537   4.303  13.786  0.00  0.00    +0.000 A 
ATOM     20  C   UNL     1       7.128   5.375  14.454  0.00  0.00    +0.000 A 
ATOM     21  C   UNL     1       6.942   5.587  15.814  0.00  0.00    +0.000 A 
ATOM     22  N   UNL     1       7.573   6.639  16.353  0.00  0.00    +0.000 NA
ENDBRANCH   1  15
BRANCH   5  23
ATOM     23  C   UNL     1       1.028   3.660  20.736  0.00  0.00    +0.000 C 
ATOM     24  O   UNL     1       0.349   3.855  19.733  0.00  0.00    +0.000 OA
BRANCH  23  25
ATOM     25  O   UNL     1       0.723   2.674  21.614  0.00  0.00    +0.000 OA
ATOM     26  H   UNL     1       1.402   2.515  22.300  0.00  0.00    +0.000 HD
ENDBRANCH  23  25
ENDBRANCH   5  23
TORSDOF 3
ENDMDL
MODEL 2
REMARK VINA RESULT:      -7.2      0.965      2.739
REMARK  Name = 
REMARK  4 active torsions:
REMARK  status: ('A' for Active; 'I' for Inactive)
REMARK    1  A    between atoms: C_1  and  C_2
REMARK    2  A    between atoms: C_4  and  C_5
REMARK    3  A    between atoms: C_9  and  C_10
REMARK    4  A    between atoms: C_10  and  O_12
REMARK                            x       y       z     vdW  Elec       q    Type
REMARK                         _______ _______ _______ _____ _____    ______ ____
ROOT
ATOM      1  C   UNL     1       4.677   3.339  18.358  0.00  0.00    +0.000 C 
ATOM      2  O   UNL     1       5.098   2.192  18.528  0.00  0.00    +0.000 OA
ATOM      3  N   UNL     1       3.702   3.840  19.242  0.00  0.00    +0.000 N 
ATOM      4  C   UNL     1       3.477   3.067  20.489  0.00  0.00    +0.000 C 
ATOM      5  C   UNL     1       2.445   3.826  21.319  0.00  0.00    +0.000 C 
ATOM      6  C   UNL     1       2.398   5.146  20.609  0.00  0.00    +0.000 A 
ATOM      7  C   UNL     1       1.801   6.314  21.067  0.00  0.00    +0.000 A 
ATOM      8  C   UNL     1       1.786   7.419  20.220  0.00  0.00    +0.000 A 
ATOM      9  C   UNL     1       2.271   7.305  18.913  0.00  0.00    +0.000 A 
ATOM     10  C   UNL     1       2.832   6.103  18.459  0.00  0.00    +0.000 A 
ATOM     11  C   UNL     1       3.001   5.059  19.351  0.00  0.00    +0.000 A 
ENDROOT
BRANCH   1  15
ATOM     12  C   UNL     1       5.377   4.076  13.512  0.00  0.00    +0.000 C 
ATOM     13  C   UNL     1       5.578   4.529  14.926  0.00  0.00    +0.000 A 
ATOM     14  C   UNL     1       4.863   3.958  15.957  0.00  0.00    +0.000 A 
ATOM     15  C   UNL     1       5.304   4.147  17.267  0.00  0.00    +0.000 A 
ATOM     16  C   UNL     1       6.254   5.181  17.530  0.00  0.00    +0.000 A 
ATOM     17  C   UNL     1       6.673   5.644  18.809  0.00  0.00    +0.000 A 
ATOM     18  C   UNL     1       7.509   6.755  18.950  0.00  0.00    +0.000 A 
ATOM     19  C   UNL     1       7.987   7.404  17.822  0.00  0.00    +0.000 A 
ATOM     20  C   UNL     1       7.645   6.917  16.561  0.00  0.00    +0.000 A 
ATOM     21  C   UNL     1       6.795   5.830  16.399  0.00  0.00    +0.000 A 
ATOM     22  N   UNL     1       6.522   5.460  15.140  0.00  0.00    +0.000 NA
ENDBRANCH   1  15
BRANCH   5  23
ATOM     23  C   UNL     1       1.121   3.090  21.299  0.00  0.00    +0.000 C 
ATOM     24  O   UNL     1       0.756   2.367  22.219  0.00  0.00    +0.000 OA
BRANCH  23  25
ATOM     25  O   UNL     1       0.362   3.261  20.191  0.00  0.00    +0.000 OA
ATOM     26  H   UNL     1       0.831   3.103  19.347  0.00  0.00    +0.000 HD
ENDBRANCH  23  25
ENDBRANCH   5  23
TORSDOF 3
ENDMDL
MODEL 3
REMARK VINA RESULT:      -7.1      2.163      6.575
REMARK  Name = 
REMARK  4 active torsions:
REMARK  status: ('A' for Active; 'I' for Inactive)
REMARK    1  A    between atoms: C_1  and  C_2
REMARK    2  A    between atoms: C_4  and  C_5
REMARK    3  A    between atoms: C_9  and  C_10
REMARK    4  A    between atoms: C_10  and  O_12
REMARK                            x       y       z     vdW  Elec       q    Type
REMARK                         _______ _______ _______ _____ _____    ______ ____
ROOT
ATOM      1  C   UNL     1       3.253   4.275  17.314  0.00  0.00    +0.000 C 
ATOM      2  O   UNL     1       2.461   3.776  16.510  0.00  0.00    +0.000 OA
ATOM      3  N   UNL     1       4.488   4.753  16.839  0.00  0.00    +0.000 N 
ATOM      4  C   UNL     1       4.623   4.900  15.368  0.00  0.00    +0.000 C 
ATOM      5  C   UNL     1       6.000   5.496  15.090  0.00  0.00    +0.000 C 
ATOM      6  C   UNL     1       6.421   5.936  16.460  0.00  0.00    +0.000 A 
ATOM      7  C   UNL     1       7.494   6.761  16.775  0.00  0.00    +0.000 A 
ATOM      8  C   UNL     1       7.778   6.985  18.118  0.00  0.00    +0.000 A 
ATOM      9  C   UNL     1       7.056   6.308  19.108  0.00  0.00    +0.000 A 
ATOM     10  C   UNL     1       6.004   5.448  18.766  0.00  0.00    +0.000 A 
ATOM     11  C   UNL     1       5.612   5.356  17.443  0.00  0.00    +0.000 A 
ENDROOT
BRANCH   1  15
ATOM     12  C   UNL     1       2.136   2.109  21.625  0.00  0.00    +0.000 C 
ATOM     13  C   UNL     1       2.327   3.360  20.823  0.00  0.00    +0.000 A 
ATOM     14  C   UNL     1       2.938   3.321  19.588  0.00  0.00    +0.000 A 
ATOM     15  C   UNL     1       2.797   4.412  18.732  0.00  0.00    +0.000 A 
ATOM     16  C   UNL     1       2.329   5.651  19.268  0.00  0.00    +0.000 A 
ATOM     17  C   UNL     1       2.301   6.908  18.603  0.00  0.00    +0.000 A 
ATOM     18  C   UNL     1       1.947   8.085  19.269  0.00  0.00    +0.000 A 
ATOM     19  C   UNL     1       1.567   8.033  20.601  0.00  0.00    +0.000 A 
ATOM     20  C   UNL     1       1.518   6.798  21.247  0.00  0.00    +0.000 A 
ATOM     21  C   UNL     1       1.890   5.621  20.610  0.00  0.00    +0.000 A 
ATOM     22  N   UNL     1       1.819   4.495  21.333  0.00  0.00    +0.000 NA
ENDBRANCH   1  15
BRANCH   5  23
ATOM     23  C   UNL     1       6.911   4.443  14.495  0.00  0.00    +0.000 C 
ATOM     24  O   UNL     1       8.054   4.691  14.127  0.00  0.00    +0.000 OA
BRANCH  23  25
ATOM     25  O   UNL     1       6.383   3.202  14.372  0.00  0.00    +0.000 OA
ATOM     26  H   UNL     1       6.462   2.811  13.479  0.00  0.00    +0.000 HD
ENDBRANCH  23  25
ENDBRANCH   5  23
TORSDOF 3
ENDMDL
MODEL 4
REMARK VINA RESULT:      -6.9      1.326      1.597
REMARK  Name = 
REMARK  4 active torsions:
REMARK  status: ('A' for Active; 'I' for Inactive)
REMARK    1  A    between atoms: C_1  and  C_2
REMARK    2  A    between atoms: C_4  and  C_5
REMARK    3  A    between atoms: C_9  and  C_10
REMARK    4  A    between atoms: C_10  and  O_12
REMARK                            x       y       z     vdW  Elec       q    Type
REMARK                         _______ _______ _______ _____ _____    ______ ____
ROOT
ATOM      1  C   UNL     1       4.723   3.153  17.247  0.00  0.00    +0.000 C 
ATOM      2  O   UNL     1       4.895   1.960  16.983  0.00  0.00    +0.000 OA
ATOM      3  N   UNL     1       3.655   3.512  18.090  0.00  0.00    +0.000 N 
ATOM      4  C   UNL     1       3.003   2.410  18.842  0.00  0.00    +0.000 C 
ATOM      5  C   UNL     1       1.935   3.033  19.737  0.00  0.00    +0.000 C 
ATOM      6  C   UNL     1       2.282   4.489  19.651  0.00  0.00    +0.000 A 
ATOM      7  C   UNL     1       1.790   5.509  20.456  0.00  0.00    +0.000 A 
ATOM      8  C   UNL     1       2.165   6.817  20.164  0.00  0.00    +0.000 A 
ATOM      9  C   UNL     1       2.936   7.084  19.027  0.00  0.00    +0.000 A 
ATOM     10  C   UNL     1       3.388   6.043  18.205  0.00  0.00    +0.000 A 
ATOM     11  C   UNL     1       3.157   4.734  18.588  0.00  0.00    +0.000 A 
ENDROOT
BRANCH   1  15
ATOM     12  C   UNL     1       7.747   6.987  18.069  0.00  0.00    +0.000 C 
ATOM     13  C   UNL     1       7.227   5.933  17.141  0.00  0.00    +0.000 A 
ATOM     14  C   UNL     1       6.468   4.885  17.617  0.00  0.00    +0.000 A 
ATOM     15  C   UNL     1       5.725   4.127  16.713  0.00  0.00    +0.000 A 
ATOM     16  C   UNL     1       6.026   4.227  15.321  0.00  0.00    +0.000 A 
ATOM     17  C   UNL     1       5.514   3.404  14.279  0.00  0.00    +0.000 A 
ATOM     18  C   UNL     1       5.982   3.504  12.966  0.00  0.00    +0.000 A 
ATOM     19  C   UNL     1       6.936   4.458  12.647  0.00  0.00    +0.000 A 
ATOM     20  C   UNL     1       7.393   5.321  13.641  0.00  0.00    +0.000 A 
ATOM     21  C   UNL     1       6.960   5.221  14.957  0.00  0.00    +0.000 A 
ATOM     22  N   UNL     1       7.480   6.094  15.832  0.00  0.00    +0.000 NA
ENDBRANCH   1  15
BRANCH   5  23
ATOM     23  C   UNL     1       0.557   2.715  19.198  0.00  0.00    +0.000 C 
ATOM     24  O   UNL     1       0.381   1.995  18.221  0.00  0.00    +0.000 OA
BRANCH  23  25
ATOM     25  O   UNL     1      -0.483   3.290  19.848  0.00  0.00    +0.000 OA
ATOM     26  H   UNL     1      -1.103   3.783  19.272  0.00  0.00    +0.000 HD
ENDBRANCH  23  25
ENDBRANCH   5  23
TORSDOF 3
ENDMDL
MODEL 5
REMARK VINA RESULT:      -6.8      3.543      5.803
REMARK  Name = 
REMARK  4 active torsions:
REMARK  status: ('A' for Active; 'I' for Inactive)
REMARK    1  A    between atoms: C_1  and  C_2
REMARK    2  A    between atoms: C_4  and  C_5
REMARK    3  A    between atoms: C_9  and  C_10
REMARK    4  A    between atoms: C_10  and  O_12
REMARK                            x       y       z     vdW  Elec       q    Type
REMARK                         _______ _______ _______ _____ _____    ______ ____
ROOT
ATOM      1  C   UNL     1       2.501   7.988  17.958  0.00  0.00    +0.000 C 
ATOM      2  O   UNL     1       2.811   8.229  16.788  0.00  0.00    +0.000 OA
ATOM      3  N   UNL     1       1.761   8.948  18.674  0.00  0.00    +0.000 N 
ATOM      4  C   UNL     1       1.149  10.042  17.879  0.00  0.00    +0.000 C 
ATOM      5  C   UNL     1       0.343  10.912  18.840  0.00  0.00    +0.000 C 
ATOM      6  C   UNL     1       0.308  10.053  20.068  0.00  0.00    +0.000 A 
ATOM      7  C   UNL     1      -0.494  10.237  21.188  0.00  0.00    +0.000 A 
ATOM      8  C   UNL     1      -0.318   9.380  22.269  0.00  0.00    +0.000 A 
ATOM      9  C   UNL     1       0.711   8.431  22.250  0.00  0.00    +0.000 A 
ATOM     10  C   UNL     1       1.535   8.290  21.124  0.00  0.00    +0.000 A 
ATOM     11  C   UNL     1       1.253   9.026  19.987  0.00  0.00    +0.000 A 
ENDROOT
BRANCH   1  15
ATOM     12  C   UNL     1       1.218   4.012  20.617  0.00  0.00    +0.000 C 
ATOM     13  C   UNL     1       2.209   4.705  19.732  0.00  0.00    +0.000 A 
ATOM     14  C   UNL     1       1.857   5.840  19.034  0.00  0.00    +0.000 A 
ATOM     15  C   UNL     1       2.866   6.643  18.503  0.00  0.00    +0.000 A 
ATOM     16  C   UNL     1       4.186   6.109  18.397  0.00  0.00    +0.000 A 
ATOM     17  C   UNL     1       5.290   6.698  17.719  0.00  0.00    +0.000 A 
ATOM     18  C   UNL     1       6.503   6.022  17.564  0.00  0.00    +0.000 A 
ATOM     19  C   UNL     1       6.665   4.763  18.121  0.00  0.00    +0.000 A 
ATOM     20  C   UNL     1       5.618   4.203  18.852  0.00  0.00    +0.000 A 
ATOM     21  C   UNL     1       4.396   4.848  18.996  0.00  0.00    +0.000 A 
ATOM     22  N   UNL     1       3.456   4.208  19.706  0.00  0.00    +0.000 NA
ENDBRANCH   1  15
BRANCH   5  23
ATOM     23  C   UNL     1       1.048  12.235  19.056  0.00  0.00    +0.000 C 
ATOM     24  O   UNL     1       1.583  12.531  20.119  0.00  0.00    +0.000 OA
BRANCH  23  25
ATOM     25  O   UNL     1       1.040  13.092  18.007  0.00  0.00    +0.000 OA
ATOM     26  H   UNL     1       1.453  13.961  18.187  0.00  0.00    +0.000 HD
ENDBRANCH  23  25
ENDBRANCH   5  23
TORSDOF 3
ENDMDL
MODEL 6
REMARK VINA RESULT:      -6.7      7.904     10.004
REMARK  Name = 
REMARK  4 active torsions:
REMARK  status: ('A' for Active; 'I' for Inactive)
REMARK    1  A    between atoms: C_1  and  C_2
REMARK    2  A    between atoms: C_4  and  C_5
REMARK    3  A    between atoms: C_9  and  C_10
REMARK    4  A    between atoms: C_10  and  O_12
REMARK                            x       y       z     vdW  Elec       q    Type
REMARK                         _______ _______ _______ _____ _____    ______ ____
ROOT
ATOM      1  C   UNL     1      -0.579  10.373  18.492  0.00  0.00    +0.000 C 
ATOM      2  O   UNL     1       0.310   9.731  17.926  0.00  0.00    +0.000 OA
ATOM      3  N   UNL     1      -1.848  10.447  17.887  0.00  0.00    +0.000 N 
ATOM      4  C   UNL     1      -2.111   9.500  16.775  0.00  0.00    +0.000 C 
ATOM      5  C   UNL     1      -3.555   9.706  16.328  0.00  0.00    +0.000 C 
ATOM      6  C   UNL     1      -4.099  10.547  17.443  0.00  0.00    +0.000 A 
ATOM      7  C   UNL     1      -5.436  10.840  17.685  0.00  0.00    +0.000 A 
ATOM      8  C   UNL     1      -5.738  11.716  18.724  0.00  0.00    +0.000 A 
ATOM      9  C   UNL     1      -4.707  12.350  19.425  0.00  0.00    +0.000 A 
ATOM     10  C   UNL     1      -3.364  12.070  19.136  0.00  0.00    +0.000 A 
ATOM     11  C   UNL     1      -3.066  11.077  18.221  0.00  0.00    +0.000 A 
ENDROOT
BRANCH   1  15
ATOM     12  C   UNL     1      -0.377   9.818  23.408  0.00  0.00    +0.000 C 
ATOM     13  C   UNL     1      -0.105  10.652  22.194  0.00  0.00    +0.000 A 
ATOM     14  C   UNL     1      -0.179  10.104  20.931  0.00  0.00    +0.000 A 
ATOM     15  C   UNL     1      -0.260  10.957  19.831  0.00  0.00    +0.000 A 
ATOM     16  C   UNL     1       0.074  12.335  20.004  0.00  0.00    +0.000 A 
ATOM     17  C   UNL     1       0.232  13.307  18.975  0.00  0.00    +0.000 A 
ATOM     18  C   UNL     1       0.693  14.598  19.248  0.00  0.00    +0.000 A 
ATOM     19  C   UNL     1       0.963  14.969  20.556  0.00  0.00    +0.000 A 
ATOM     20  C   UNL     1       0.742  14.052  21.583  0.00  0.00    +0.000 A 
ATOM     21  C   UNL     1       0.308  12.757  21.330  0.00  0.00    +0.000 A 
ATOM     22  N   UNL     1       0.146  11.957  22.393  0.00  0.00    +0.000 NA
ENDBRANCH   1  15
BRANCH   5  23
ATOM     23  C   UNL     1      -3.587  10.403  14.984  0.00  0.00    +0.000 C 
ATOM     24  O   UNL     1      -2.865  11.357  14.719  0.00  0.00    +0.000 OA
BRANCH  23  25
ATOM     25  O   UNL     1      -4.479   9.922  14.085  0.00  0.00    +0.000 OA
ATOM     26  H   UNL     1      -5.161  10.565  13.802  0.00  0.00    +0.000 HD
ENDBRANCH  23  25
ENDBRANCH   5  23
TORSDOF 3
ENDMDL
MODEL 7
REMARK VINA RESULT:      -6.6      7.678     10.773
REMARK  Name = 
REMARK  4 active torsions:
REMARK  status: ('A' for Active; 'I' for Inactive)
REMARK    1  A    between atoms: C_1  and  C_2
REMARK    2  A    between atoms: C_4  and  C_5
REMARK    3  A    between atoms: C_9  and  C_10
REMARK    4  A    between atoms: C_10  and  O_12
REMARK                            x       y       z     vdW  Elec       q    Type
REMARK                         _______ _______ _______ _____ _____    ______ ____
ROOT
ATOM      1  C   UNL     1      -2.426  11.342  18.051  0.00  0.00    +0.000 C 
ATOM      2  O   UNL     1      -2.290  10.954  16.888  0.00  0.00    +0.000 OA
ATOM      3  N   UNL     1      -3.709  11.720  18.492  0.00  0.00    +0.000 N 
ATOM      4  C   UNL     1      -4.849  11.335  17.624  0.00  0.00    +0.000 C 
ATOM      5  C   UNL     1      -6.130  11.775  18.327  0.00  0.00    +0.000 C 
ATOM      6  C   UNL     1      -5.624  12.100  19.700  0.00  0.00    +0.000 A 
ATOM      7  C   UNL     1      -6.392  12.327  20.836  0.00  0.00    +0.000 A 
ATOM      8  C   UNL     1      -5.739  12.704  22.006  0.00  0.00    +0.000 A 
ATOM      9  C   UNL     1      -4.360  12.940  21.991  0.00  0.00    +0.000 A 
ATOM     10  C   UNL     1      -3.611  12.744  20.823  0.00  0.00    +0.000 A 
ATOM     11  C   UNL     1      -4.231  12.209  19.708  0.00  0.00    +0.000 A 
ENDROOT
BRANCH   1  15
ATOM     12  C   UNL     1       0.365   8.831  21.280  0.00  0.00    +0.000 C 
ATOM     13  C   UNL     1       0.151  10.053  20.440  0.00  0.00    +0.000 A 
ATOM     14  C   UNL     1      -0.816  10.072  19.457  0.00  0.00    +0.000 A 
ATOM     15  C   UNL     1      -1.221  11.301  18.936  0.00  0.00    +0.000 A 
ATOM     16  C   UNL     1      -0.408  12.450  19.175  0.00  0.00    +0.000 A 
ATOM     17  C   UNL     1      -0.554  13.733  18.575  0.00  0.00    +0.000 A 
ATOM     18  C   UNL     1       0.383  14.751  18.781  0.00  0.00    +0.000 A 
ATOM     19  C   UNL     1       1.461  14.533  19.624  0.00  0.00    +0.000 A 
ATOM     20  C   UNL     1       1.577  13.306  20.276  0.00  0.00    +0.000 A 
ATOM     21  C   UNL     1       0.672  12.274  20.067  0.00  0.00    +0.000 A 
ATOM     22  N   UNL     1       0.892  11.133  20.735  0.00  0.00    +0.000 NA
ENDBRANCH   1  15
BRANCH   5  23
ATOM     23  C   UNL     1      -6.729  12.969  17.614  0.00  0.00    +0.000 C 
ATOM     24  O   UNL     1      -7.868  13.366  17.835  0.00  0.00    +0.000 OA
BRANCH  23  25
ATOM     25  O   UNL     1      -5.938  13.571  16.694  0.00  0.00    +0.000 OA
ATOM     26  H   UNL     1      -5.014  13.248  16.676  0.00  0.00    +0.000 HD
ENDBRANCH  23  25
ENDBRANCH   5  23
TORSDOF 3
ENDMDL
MODEL 8
REMARK VINA RESULT:      -6.6      8.322     10.422
REMARK  Name = 
REMARK  4 active torsions:
REMARK  status: ('A' for Active; 'I' for Inactive)
REMARK    1  A    between atoms: C_1  and  C_2
REMARK    2  A    between atoms: C_4  and  C_5
REMARK    3  A    between atoms: C_9  and  C_10
REMARK    4  A    between atoms: C_10  and  O_12
REMARK                            x       y       z     vdW  Elec       q    Type
REMARK                         _______ _______ _______ _____ _____    ______ ____
ROOT
ATOM      1  C   UNL     1      -2.702  12.427  20.627  0.00  0.00    +0.000 C 
ATOM      2  O   UNL     1      -3.206  13.119  21.515  0.00  0.00    +0.000 OA
ATOM      3  N   UNL     1      -3.493  12.064  19.521  0.00  0.00    +0.000 N 
ATOM      4  C   UNL     1      -4.777  12.791  19.355  0.00  0.00    +0.000 C 
ATOM      5  C   UNL     1      -5.424  12.292  18.066  0.00  0.00    +0.000 C 
ATOM      6  C   UNL     1      -4.293  11.538  17.433  0.00  0.00    +0.000 A 
ATOM      7  C   UNL     1      -4.237  11.069  16.126  0.00  0.00    +0.000 A 
ATOM      8  C   UNL     1      -3.134  10.310  15.748  0.00  0.00    +0.000 A 
ATOM      9  C   UNL     1      -2.170   9.957  16.698  0.00  0.00    +0.000 A 
ATOM     10  C   UNL     1      -2.268  10.408  18.022  0.00  0.00    +0.000 A 
ATOM     11  C   UNL     1      -3.272  11.298  18.357  0.00  0.00    +0.000 A 
ENDROOT
BRANCH   1  15
ATOM     12  C   UNL     1       0.817   9.495  22.508  0.00  0.00    +0.000 C 
ATOM     13  C   UNL     1       0.431  10.634  21.615  0.00  0.00    +0.000 A 
ATOM     14  C   UNL     1      -0.889  10.860  21.290  0.00  0.00    +0.000 A 
ATOM     15  C   UNL     1      -1.249  12.096  20.755  0.00  0.00    +0.000 A 
ATOM     16  C   UNL     1      -0.223  12.950  20.247  0.00  0.00    +0.000 A 
ATOM     17  C   UNL     1      -0.406  14.148  19.501  0.00  0.00    +0.000 A 
ATOM     18  C   UNL     1       0.673  14.835  18.936  0.00  0.00    +0.000 A 
ATOM     19  C   UNL     1       1.964  14.372  19.139  0.00  0.00    +0.000 A 
ATOM     20  C   UNL     1       2.165  13.241  19.929  0.00  0.00    +0.000 A 
ATOM     21  C   UNL     1       1.106  12.531  20.478  0.00  0.00    +0.000 A 
ATOM     22  N   UNL     1       1.417  11.449  21.206  0.00  0.00    +0.000 NA
ENDBRANCH   1  15
BRANCH   5  23
ATOM     23  C   UNL     1      -6.617  11.418  18.389  0.00  0.00    +0.000 C 
ATOM     24  O   UNL     1      -6.526  10.204  18.531  0.00  0.00    +0.000 OA
BRANCH  23  25
ATOM     25  O   UNL     1      -7.808  12.054  18.497  0.00  0.00    +0.000 OA
ATOM     26  H   UNL     1      -8.502  11.545  18.963  0.00  0.00    +0.000 HD
ENDBRANCH  23  25
ENDBRANCH   5  23
TORSDOF 3
ENDMDL
MODEL 9
REMARK VINA RESULT:      -6.6      7.189     11.114
REMARK  Name = 
REMARK  4 active torsions:
REMARK  status: ('A' for Active; 'I' for Inactive)
REMARK    1  A    between atoms: C_1  and  C_2
REMARK    2  A    between atoms: C_4  and  C_5
REMARK    3  A    between atoms: C_9  and  C_10
REMARK    4  A    between atoms: C_10  and  O_12
REMARK                            x       y       z     vdW  Elec       q    Type
REMARK                         _______ _______ _______ _____ _____    ______ ____
ROOT
ATOM      1  C   UNL     1       0.102  12.882  20.850  0.00  0.00    +0.000 C 
ATOM      2  O   UNL     1       1.084  12.941  21.594  0.00  0.00    +0.000 OA
ATOM      3  N   UNL     1       0.053  11.870  19.873  0.00  0.00    +0.000 N 
ATOM      4  C   UNL     1       1.038  10.767  20.009  0.00  0.00    +0.000 C 
ATOM      5  C   UNL     1       0.755   9.759  18.899  0.00  0.00    +0.000 C 
ATOM      6  C   UNL     1      -0.583  10.222  18.405  0.00  0.00    +0.000 A 
ATOM      7  C   UNL     1      -1.437   9.532  17.554  0.00  0.00    +0.000 A 
ATOM      8  C   UNL     1      -2.603  10.168  17.136  0.00  0.00    +0.000 A 
ATOM      9  C   UNL     1      -2.838  11.501  17.493  0.00  0.00    +0.000 A 
ATOM     10  C   UNL     1      -1.940  12.191  18.320  0.00  0.00    +0.000 A 
ATOM     11  C   UNL     1      -0.871  11.508  18.871  0.00  0.00    +0.000 A 
ENDROOT
BRANCH   1  15
ATOM     12  C   UNL     1      -1.886  17.346  20.050  0.00  0.00    +0.000 C 
ATOM     13  C   UNL     1      -1.990  15.979  20.655  0.00  0.00    +0.000 A 
ATOM     14  C   UNL     1      -1.111  14.980  20.295  0.00  0.00    +0.000 A 
ATOM     15  C   UNL     1      -1.012  13.848  21.103  0.00  0.00    +0.000 A 
ATOM     16  C   UNL     1      -2.038  13.598  22.065  0.00  0.00    +0.000 A 
ATOM     17  C   UNL     1      -2.208  12.414  22.837  0.00  0.00    +0.000 A 
ATOM     18  C   UNL     1      -3.327  12.223  23.652  0.00  0.00    +0.000 A 
ATOM     19  C   UNL     1      -4.282  13.223  23.755  0.00  0.00    +0.000 A 
ATOM     20  C   UNL     1      -4.092  14.418  23.062  0.00  0.00    +0.000 A 
ATOM     21  C   UNL     1      -2.999  14.618  22.228  0.00  0.00    +0.000 A 
ATOM     22  N   UNL     1      -2.929  15.800  21.599  0.00  0.00    +0.000 NA
ENDBRANCH   1  15
BRANCH   5  23
ATOM     23  C   UNL     1       1.839   9.832  17.844  0.00  0.00    +0.000 C 
ATOM     24  O   UNL     1       2.346   8.832  17.349  0.00  0.00    +0.000 OA
BRANCH  23  25
ATOM     25  O   UNL     1       2.236  11.076  17.484  0.00  0.00    +0.000 OA
ATOM     26  H   UNL     1       2.249  11.728  18.214  0.00  0.00    +0.000 HD
ENDBRANCH  23  25
ENDBRANCH   5  23
TORSDOF 3
ENDMDL
