MODEL 1
REMARK VINA RESULT:      -8.2      0.000      0.000
REMARK  Name = 
REMARK  4 active torsions:
REMARK  status: ('A' for Active; 'I' for Inactive)
REMARK    1  A    between atoms: C_1  and  C_2
REMARK    2  A    between atoms: C_2  and  C_3
REMARK    3  A    between atoms: N_5  and  C_6
REMARK    4  A    between atoms: C_6  and  C_7
REMARK                            x       y       z     vdW  Elec       q    Type
REMARK                         _______ _______ _______ _____ _____    ______ ____
ROOT
ATOM      1  C   UNL     1       3.408   3.587  19.164  0.00  0.00    +0.000 C 
ATOM      2  C   UNL     1       3.895   2.058  19.378  0.00  0.00    +0.000 C 
ATOM      3  C   UNL     1       4.175   1.773  20.834  0.00  0.00    +0.000 C 
ATOM      4  C   UNL     1       3.047   2.451  21.517  0.00  0.00    +0.000 C 
ATOM      5  C   UNL     1       2.419   3.304  20.414  0.00  0.00    +0.000 C 
ATOM      6  C   UNL     1       2.111   4.683  20.996  0.00  0.00    +0.000 C 
ATOM      7  N   UNL     1       1.786   5.419  19.814  0.00  0.00    +0.000 N 
ATOM      8  C   UNL     1       1.677   6.807  19.745  0.00  0.00    +0.000 A 
ATOM      9  C   UNL     1       1.290   7.569  20.988  0.00  0.00    +0.000 A 
ATOM     10  C   UNL     1       1.184   8.903  20.948  0.00  0.00    +0.000 A 
ATOM     11  C   UNL     1       1.447   9.557  19.734  0.00  0.00    +0.000 A 
ATOM     12  N   UNL     1       1.441  10.817  19.353  0.00  0.00    +0.000 NA
ATOM     13  N   UNL     1       1.784  10.796  18.020  0.00  0.00    +0.000 NA
ATOM     14  N   UNL     1       1.993   9.558  17.591  0.00  0.00    +0.000 NA
ATOM     15  N   UNL     1       1.783   8.768  18.660  0.00  0.00    +0.000 N 
ATOM     16  N   UNL     1       1.891   7.420  18.606  0.00  0.00    +0.000 NA
ATOM     17  C   UNL     1       2.219   4.604  18.678  0.00  0.00    +0.000 C 
ENDROOT
BRANCH   1  18
ATOM     18  C   UNL     1       3.695   3.372  17.574  0.00  0.00    +0.000 C 
BRANCH  18  21
ATOM     19  C   UNL     1       5.384   4.897  16.644  0.00  0.00    +0.000 C 
ATOM     20  O   UNL     1       4.501   5.589  16.157  0.00  0.00    +0.000 OA
ATOM     21  N   UNL     1       5.076   3.686  17.262  0.00  0.00    +0.000 N 
ATOM     22  H   UNL     1       5.792   3.179  17.772  0.00  0.00    +0.000 HD
BRANCH  19  24
ATOM     23  C   UNL     1       7.508   5.171  15.295  0.00  0.00    +0.000 C 
ATOM     24  C   UNL     1       6.898   5.299  16.696  0.00  0.00    +0.000 C 
ATOM     25  C   UNL     1       7.287   6.655  17.366  0.00  0.00    +0.000 C 
ATOM     26  C   UNL     1       7.621   5.881  18.655  0.00  0.00    +0.000 C 
ATOM     27  F   UNL     1       8.744   6.252  19.301  0.00  0.00    +0.000 F 
ATOM     28  F   UNL     1       6.625   5.871  19.575  0.00  0.00    +0.000 F 
ATOM     29  C   UNL     1       7.734   4.597  17.804  0.00  0.00    +0.000 C 
ENDBRANCH  19  24
ENDBRANCH  18  21
ENDBRANCH   1  18
TORSDOF 3
ENDMDL
MODEL 2
REMARK VINA RESULT:      -8.2      6.630      9.701
REMARK  Name = 
REMARK  4 active torsions:
REMARK  status: ('A' for Active; 'I' for Inactive)
REMARK    1  A    between atoms: C_1  and  C_2
REMARK    2  A    between atoms: C_2  and  C_3
REMARK    3  A    between atoms: N_5  and  C_6
REMARK    4  A    between atoms: C_6  and  C_7
REMARK                            x       y       z     vdW  Elec       q    Type
REMARK                         _______ _______ _______ _____ _____    ______ ____
ROOT
ATOM      1  C   UNL     1      -2.787  11.054  18.130  0.00  0.00    +0.000 C 
ATOM      2  C   UNL     1      -1.908  10.647  16.832  0.00  0.00    +0.000 C 
ATOM      3  C   UNL     1      -2.733   9.870  15.835  0.00  0.00    +0.000 C 
ATOM      4  C   UNL     1      -4.022  10.604  15.843  0.00  0.00    +0.000 C 
ATOM      5  C   UNL     1      -3.904  11.526  17.056  0.00  0.00    +0.000 C 
ATOM      6  C   UNL     1      -5.228  11.483  17.817  0.00  0.00    +0.000 C 
ATOM      7  N   UNL     1      -4.879  12.164  19.026  0.00  0.00    +0.000 N 
ATOM      8  C   UNL     1      -5.653  12.178  20.184  0.00  0.00    +0.000 A 
ATOM      9  C   UNL     1      -7.148  12.011  20.062  0.00  0.00    +0.000 A 
ATOM     10  C   UNL     1      -7.912  12.017  21.162  0.00  0.00    +0.000 A 
ATOM     11  C   UNL     1      -7.287  12.172  22.408  0.00  0.00    +0.000 A 
ATOM     12  N   UNL     1      -7.720  12.218  23.651  0.00  0.00    +0.000 NA
ATOM     13  N   UNL     1      -6.596  12.398  24.423  0.00  0.00    +0.000 NA
ATOM     14  N   UNL     1      -5.499  12.465  23.678  0.00  0.00    +0.000 NA
ATOM     15  N   UNL     1      -5.921  12.326  22.407  0.00  0.00    +0.000 N 
ATOM     16  N   UNL     1      -5.078  12.355  21.349  0.00  0.00    +0.000 NA
ATOM     17  C   UNL     1      -3.417  12.251  19.052  0.00  0.00    +0.000 C 
ENDROOT
BRANCH   1  18
ATOM     18  C   UNL     1      -1.380  11.397  18.876  0.00  0.00    +0.000 C 
BRANCH  18  21
ATOM     19  C   UNL     1       0.446  10.168  19.973  0.00  0.00    +0.000 C 
ATOM     20  O   UNL     1       1.263  10.943  19.497  0.00  0.00    +0.000 OA
ATOM     21  N   UNL     1      -0.897  10.240  19.605  0.00  0.00    +0.000 N 
ATOM     22  H   UNL     1      -1.588   9.680  20.094  0.00  0.00    +0.000 HD
BRANCH  19  24
ATOM     23  C   UNL     1       1.567   7.944  20.420  0.00  0.00    +0.000 C 
ATOM     24  C   UNL     1       0.776   9.090  21.060  0.00  0.00    +0.000 C 
ATOM     25  C   UNL     1       1.431   9.556  22.399  0.00  0.00    +0.000 C 
ATOM     26  C   UNL     1       0.034   9.540  23.047  0.00  0.00    +0.000 C 
ATOM     27  F   UNL     1      -0.042   9.025  24.291  0.00  0.00    +0.000 F 
ATOM     28  F   UNL     1      -0.579  10.749  23.087  0.00  0.00    +0.000 F 
ATOM     29  C   UNL     1      -0.436   8.608  21.909  0.00  0.00    +0.000 C 
ENDBRANCH  19  24
ENDBRANCH  18  21
ENDBRANCH   1  18
TORSDOF 3
ENDMDL
MODEL 3
REMARK VINA RESULT:      -8.0      6.471      9.720
REMARK  Name = 
REMARK  4 active torsions:
REMARK  status: ('A' for Active; 'I' for Inactive)
REMARK    1  A    between atoms: C_1  and  C_2
REMARK    2  A    between atoms: C_2  and  C_3
REMARK    3  A    between atoms: N_5  and  C_6
REMARK    4  A    between atoms: C_6  and  C_7
REMARK                            x       y       z     vdW  Elec       q    Type
REMARK                         _______ _______ _______ _____ _____    ______ ____
ROOT
ATOM      1  C   UNL     1      -2.785  11.117  18.142  0.00  0.00    +0.000 C 
ATOM      2  C   UNL     1      -1.897  10.751  16.837  0.00  0.00    +0.000 C 
ATOM      3  C   UNL     1      -2.658   9.851  15.894  0.00  0.00    +0.000 C 
ATOM      4  C   UNL     1      -4.017  10.445  15.908  0.00  0.00    +0.000 C 
ATOM      5  C   UNL     1      -3.970  11.424  17.081  0.00  0.00    +0.000 C 
ATOM      6  C   UNL     1      -5.264  11.274  17.878  0.00  0.00    +0.000 C 
ATOM      7  N   UNL     1      -4.962  12.037  19.050  0.00  0.00    +0.000 N 
ATOM      8  C   UNL     1      -5.707  12.018  20.227  0.00  0.00    +0.000 A 
ATOM      9  C   UNL     1      -7.178  11.690  20.152  0.00  0.00    +0.000 A 
ATOM     10  C   UNL     1      -7.914  11.661  21.270  0.00  0.00    +0.000 A 
ATOM     11  C   UNL     1      -7.280  11.933  22.493  0.00  0.00    +0.000 A 
ATOM     12  N   UNL     1      -7.688  11.984  23.744  0.00  0.00    +0.000 NA
ATOM     13  N   UNL     1      -6.571  12.313  24.478  0.00  0.00    +0.000 NA
ATOM     14  N   UNL     1      -5.505  12.464  23.701  0.00  0.00    +0.000 NA
ATOM     15  N   UNL     1      -5.938  12.229  22.449  0.00  0.00    +0.000 N 
ATOM     16  N   UNL     1      -5.127  12.302  21.368  0.00  0.00    +0.000 NA
ATOM     17  C   UNL     1      -3.518  12.279  19.033  0.00  0.00    +0.000 C 
ENDROOT
BRANCH   1  18
ATOM     18  C   UNL     1      -1.405  11.637  18.836  0.00  0.00    +0.000 C 
BRANCH  18  21
ATOM     19  C   UNL     1      -0.286  10.935  20.910  0.00  0.00    +0.000 C 
ATOM     20  O   UNL     1      -0.067  12.104  21.195  0.00  0.00    +0.000 OA
ATOM     21  N   UNL     1      -0.837  10.598  19.674  0.00  0.00    +0.000 N 
ATOM     22  H   UNL     1      -1.133   9.645  19.493  0.00  0.00    +0.000 HD
BRANCH  19  24
ATOM     23  C   UNL     1      -0.722  10.019  23.228  0.00  0.00    +0.000 C 
ATOM     24  C   UNL     1      -0.053   9.728  21.880  0.00  0.00    +0.000 C 
ATOM     25  C   UNL     1      -0.391   8.289  21.375  0.00  0.00    +0.000 C 
ATOM     26  C   UNL     1       1.100   8.093  21.042  0.00  0.00    +0.000 C 
ATOM     27  F   UNL     1       1.634   6.899  21.368  0.00  0.00    +0.000 F 
ATOM     28  F   UNL     1       1.419   8.324  19.745  0.00  0.00    +0.000 F 
ATOM     29  C   UNL     1       1.423   9.253  22.009  0.00  0.00    +0.000 C 
ENDBRANCH  19  24
ENDBRANCH  18  21
ENDBRANCH   1  18
TORSDOF 3
ENDMDL
MODEL 4
REMARK VINA RESULT:      -7.9      2.568      3.355
REMARK  Name = 
REMARK  4 active torsions:
REMARK  status: ('A' for Active; 'I' for Inactive)
REMARK    1  A    between atoms: C_1  and  C_2
REMARK    2  A    between atoms: C_2  and  C_3
REMARK    3  A    between atoms: N_5  and  C_6
REMARK    4  A    between atoms: C_6  and  C_7
REMARK                            x       y       z     vdW  Elec       q    Type
REMARK                         _______ _______ _______ _____ _____    ______ ____
ROOT
ATOM      1  C   UNL     1       3.273   6.254  19.117  0.00  0.00    +0.000 C 
ATOM      2  C   UNL     1       3.919   4.803  18.801  0.00  0.00    +0.000 C 
ATOM      3  C   UNL     1       3.918   3.925  20.029  0.00  0.00    +0.000 C 
ATOM      4  C   UNL     1       2.583   4.196  20.617  0.00  0.00    +0.000 C 
ATOM      5  C   UNL     1       2.090   5.418  19.841  0.00  0.00    +0.000 C 
ATOM      6  C   UNL     1       1.468   6.395  20.838  0.00  0.00    +0.000 C 
ATOM      7  N   UNL     1       1.301   7.558  20.023  0.00  0.00    +0.000 N 
ATOM      8  C   UNL     1       1.010   8.833  20.504  0.00  0.00    +0.000 A 
ATOM      9  C   UNL     1       0.259   8.965  21.806  0.00  0.00    +0.000 A 
ATOM     10  C   UNL     1      -0.028  10.180  22.291  0.00  0.00    +0.000 A 
ATOM     11  C   UNL     1       0.392  11.305  21.565  0.00  0.00    +0.000 A 
ATOM     12  N   UNL     1       0.286  12.604  21.747  0.00  0.00    +0.000 NA
ATOM     13  N   UNL     1       0.906  13.177  20.661  0.00  0.00    +0.000 NA
ATOM     14  N   UNL     1       1.379  12.256  19.830  0.00  0.00    +0.000 NA
ATOM     15  N   UNL     1       1.061  11.073  20.387  0.00  0.00    +0.000 N 
ATOM     16  N   UNL     1       1.372   9.887  19.814  0.00  0.00    +0.000 NA
ATOM     17  C   UNL     1       2.082   7.334  18.804  0.00  0.00    +0.000 C 
ENDROOT
BRANCH   1  18
ATOM     18  C   UNL     1       3.923   6.760  17.711  0.00  0.00    +0.000 C 
BRANCH  18  21
ATOM     19  C   UNL     1       5.346   5.926  15.887  0.00  0.00    +0.000 C 
ATOM     20  O   UNL     1       5.148   6.953  15.254  0.00  0.00    +0.000 OA
ATOM     21  N   UNL     1       4.661   5.684  17.078  0.00  0.00    +0.000 N 
ATOM     22  H   UNL     1       4.918   4.895  17.660  0.00  0.00    +0.000 HD
BRANCH  19  24
ATOM     23  C   UNL     1       7.454   4.722  16.602  0.00  0.00    +0.000 C 
ATOM     24  C   UNL     1       6.398   4.832  15.497  0.00  0.00    +0.000 C 
ATOM     25  C   UNL     1       5.883   3.424  15.058  0.00  0.00    +0.000 C 
ATOM     26  C   UNL     1       6.042   3.863  13.591  0.00  0.00    +0.000 C 
ATOM     27  F   UNL     1       6.575   2.953  12.750  0.00  0.00    +0.000 F 
ATOM     28  F   UNL     1       4.900   4.308  13.012  0.00  0.00    +0.000 F 
ATOM     29  C   UNL     1       7.004   4.971  14.071  0.00  0.00    +0.000 C 
ENDBRANCH  19  24
ENDBRANCH  18  21
ENDBRANCH   1  18
TORSDOF 3
ENDMDL
MODEL 5
REMARK VINA RESULT:      -7.6      2.640      5.123
REMARK  Name = 
REMARK  4 active torsions:
REMARK  status: ('A' for Active; 'I' for Inactive)
REMARK    1  A    between atoms: C_1  and  C_2
REMARK    2  A    between atoms: C_2  and  C_3
REMARK    3  A    between atoms: N_5  and  C_6
REMARK    4  A    between atoms: C_6  and  C_7
REMARK                            x       y       z     vdW  Elec       q    Type
REMARK                         _______ _______ _______ _____ _____    ______ ____
ROOT
ATOM      1  C   UNL     1       4.900   4.659  16.843  0.00  0.00    +0.000 C 
ATOM      2  C   UNL     1       5.800   3.702  15.896  0.00  0.00    +0.000 C 
ATOM      3  C   UNL     1       5.642   4.070  14.440  0.00  0.00    +0.000 C 
ATOM      4  C   UNL     1       5.657   5.553  14.479  0.00  0.00    +0.000 C 
ATOM      5  C   UNL     1       5.514   5.875  15.967  0.00  0.00    +0.000 C 
ATOM      6  C   UNL     1       4.507   7.015  16.112  0.00  0.00    +0.000 C 
ATOM      7  N   UNL     1       4.291   7.020  17.526  0.00  0.00    +0.000 N 
ATOM      8  C   UNL     1       3.260   7.700  18.171  0.00  0.00    +0.000 A 
ATOM      9  C   UNL     1       2.690   8.939  17.526  0.00  0.00    +0.000 A 
ATOM     10  C   UNL     1       1.696   9.606  18.126  0.00  0.00    +0.000 A 
ATOM     11  C   UNL     1       1.207   9.118  19.348  0.00  0.00    +0.000 A 
ATOM     12  N   UNL     1       0.264   9.512  20.179  0.00  0.00    +0.000 NA
ATOM     13  N   UNL     1       0.283   8.600  21.210  0.00  0.00    +0.000 NA
ATOM     14  N   UNL     1       1.213   7.672  21.021  0.00  0.00    +0.000 NA
ATOM     15  N   UNL     1       1.803   7.987  19.852  0.00  0.00    +0.000 N 
ATOM     16  N   UNL     1       2.821   7.267  19.328  0.00  0.00    +0.000 NA
ATOM     17  C   UNL     1       4.860   5.773  18.042  0.00  0.00    +0.000 C 
ENDROOT
BRANCH   1  18
ATOM     18  C   UNL     1       5.146   3.575  18.035  0.00  0.00    +0.000 C 
BRANCH  18  21
ATOM     19  C   UNL     1       3.939   2.647  19.965  0.00  0.00    +0.000 C 
ATOM     20  O   UNL     1       4.963   2.104  20.353  0.00  0.00    +0.000 OA
ATOM     21  N   UNL     1       3.905   3.300  18.733  0.00  0.00    +0.000 N 
ATOM     22  H   UNL     1       3.096   3.853  18.473  0.00  0.00    +0.000 HD
BRANCH  19  24
ATOM     23  C   UNL     1       2.684   1.764  21.978  0.00  0.00    +0.000 C 
ATOM     24  C   UNL     1       2.613   2.737  20.796  0.00  0.00    +0.000 C 
ATOM     25  C   UNL     1       2.109   4.145  21.246  0.00  0.00    +0.000 C 
ATOM     26  C   UNL     1       1.155   4.151  20.037  0.00  0.00    +0.000 C 
ATOM     27  F   UNL     1      -0.093   4.608  20.263  0.00  0.00    +0.000 F 
ATOM     28  F   UNL     1       1.626   4.819  18.955  0.00  0.00    +0.000 F 
ATOM     29  C   UNL     1       1.301   2.615  19.969  0.00  0.00    +0.000 C 
ENDBRANCH  19  24
ENDBRANCH  18  21
ENDBRANCH   1  18
TORSDOF 3
ENDMDL
MODEL 6
REMARK VINA RESULT:      -7.5      2.840      5.149
REMARK  Name = 
REMARK  4 active torsions:
REMARK  status: ('A' for Active; 'I' for Inactive)
REMARK    1  A    between atoms: C_1  and  C_2
REMARK    2  A    between atoms: C_2  and  C_3
REMARK    3  A    between atoms: N_5  and  C_6
REMARK    4  A    between atoms: C_6  and  C_7
REMARK                            x       y       z     vdW  Elec       q    Type
REMARK                         _______ _______ _______ _____ _____    ______ ____
ROOT
ATOM      1  C   UNL     1       4.894   5.013  17.570  0.00  0.00    +0.000 C 
ATOM      2  C   UNL     1       5.897   4.027  16.767  0.00  0.00    +0.000 C 
ATOM      3  C   UNL     1       5.614   4.051  15.284  0.00  0.00    +0.000 C 
ATOM      4  C   UNL     1       5.387   5.493  15.023  0.00  0.00    +0.000 C 
ATOM      5  C   UNL     1       5.259   6.096  16.422  0.00  0.00    +0.000 C 
ATOM      6  C   UNL     1       4.085   7.075  16.413  0.00  0.00    +0.000 C 
ATOM      7  N   UNL     1       3.935   7.344  17.810  0.00  0.00    +0.000 N 
ATOM      8  C   UNL     1       2.837   7.980  18.384  0.00  0.00    +0.000 A 
ATOM      9  C   UNL     1       2.041   8.954  17.550  0.00  0.00    +0.000 A 
ATOM     10  C   UNL     1       0.978   9.573  18.079  0.00  0.00    +0.000 A 
ATOM     11  C   UNL     1       0.632   9.285  19.409  0.00  0.00    +0.000 A 
ATOM     12  N   UNL     1      -0.324   9.698  20.215  0.00  0.00    +0.000 NA
ATOM     13  N   UNL     1      -0.109   9.037  21.403  0.00  0.00    +0.000 NA
ATOM     14  N   UNL     1       0.952   8.242  21.332  0.00  0.00    +0.000 NA
ATOM     15  N   UNL     1       1.428   8.390  20.082  0.00  0.00    +0.000 N 
ATOM     16  N   UNL     1       2.527   7.739  19.636  0.00  0.00    +0.000 NA
ATOM     17  C   UNL     1       4.725   6.336  18.520  0.00  0.00    +0.000 C 
ENDROOT
BRANCH   1  18
ATOM     18  C   UNL     1       5.370   4.256  18.932  0.00  0.00    +0.000 C 
BRANCH  18  21
ATOM     19  C   UNL     1       3.370   3.832  20.299  0.00  0.00    +0.000 C 
ATOM     20  O   UNL     1       3.523   4.904  20.867  0.00  0.00    +0.000 OA
ATOM     21  N   UNL     1       4.329   3.361  19.403  0.00  0.00    +0.000 N 
ATOM     22  H   UNL     1       4.140   2.537  18.843  0.00  0.00    +0.000 HD
BRANCH  19  24
ATOM     23  C   UNL     1       1.979   2.448  21.897  0.00  0.00    +0.000 C 
ATOM     24  C   UNL     1       2.102   2.924  20.445  0.00  0.00    +0.000 C 
ATOM     25  C   UNL     1       0.737   3.456  19.903  0.00  0.00    +0.000 C 
ATOM     26  C   UNL     1       0.969   2.638  18.619  0.00  0.00    +0.000 C 
ATOM     27  F   UNL     1      -0.100   1.979  18.129  0.00  0.00    +0.000 F 
ATOM     28  F   UNL     1       1.497   3.347  17.591  0.00  0.00    +0.000 F 
ATOM     29  C   UNL     1       1.982   1.775  19.403  0.00  0.00    +0.000 C 
ENDBRANCH  19  24
ENDBRANCH  18  21
ENDBRANCH   1  18
TORSDOF 3
ENDMDL
MODEL 7
REMARK VINA RESULT:      -7.4      5.163      8.832
REMARK  Name = 
REMARK  4 active torsions:
REMARK  status: ('A' for Active; 'I' for Inactive)
REMARK    1  A    between atoms: C_1  and  C_2
REMARK    2  A    between atoms: C_2  and  C_3
REMARK    3  A    between atoms: N_5  and  C_6
REMARK    4  A    between atoms: C_6  and  C_7
REMARK                            x       y       z     vdW  Elec       q    Type
REMARK                         _______ _______ _______ _____ _____    ______ ____
ROOT
ATOM      1  C   UNL     1       0.194   9.519  20.135  0.00  0.00    +0.000 C 
ATOM      2  C   UNL     1      -0.353  10.934  20.701  0.00  0.00    +0.000 C 
ATOM      3  C   UNL     1      -0.741  10.827  22.156  0.00  0.00    +0.000 C 
ATOM      4  C   UNL     1       0.357  10.006  22.722  0.00  0.00    +0.000 C 
ATOM      5  C   UNL     1       1.085   9.478  21.486  0.00  0.00    +0.000 C 
ATOM      6  C   UNL     1       1.394   7.998  21.712  0.00  0.00    +0.000 C 
ATOM      7  N   UNL     1       1.823   7.599  20.407  0.00  0.00    +0.000 N 
ATOM      8  C   UNL     1       1.978   6.279  19.989  0.00  0.00    +0.000 A 
ATOM      9  C   UNL     1       2.301   5.224  21.018  0.00  0.00    +0.000 A 
ATOM     10  C   UNL     1       2.450   3.948  20.640  0.00  0.00    +0.000 A 
ATOM     11  C   UNL     1       2.292   3.630  19.282  0.00  0.00    +0.000 A 
ATOM     12  N   UNL     1       2.363   2.513  18.589  0.00  0.00    +0.000 NA
ATOM     13  N   UNL     1       2.112   2.877  17.285  0.00  0.00    +0.000 NA
ATOM     14  N   UNL     1       1.896   4.182  17.177  0.00  0.00    +0.000 NA
ATOM     15  N   UNL     1       2.007   4.668  18.428  0.00  0.00    +0.000 N 
ATOM     16  N   UNL     1       1.862   5.982  18.717  0.00  0.00    +0.000 NA
ATOM     17  C   UNL     1       1.444   8.678  19.492  0.00  0.00    +0.000 C 
ENDROOT
BRANCH   1  18
ATOM     18  C   UNL     1       0.011  10.139  18.639  0.00  0.00    +0.000 C 
BRANCH  18  21
ATOM     19  C   UNL     1      -1.997  11.049  17.551  0.00  0.00    +0.000 C 
ATOM     20  O   UNL     1      -1.505  12.168  17.564  0.00  0.00    +0.000 OA
ATOM     21  N   UNL     1      -1.360   9.987  18.192  0.00  0.00    +0.000 N 
ATOM     22  H   UNL     1      -1.706   9.041  18.073  0.00  0.00    +0.000 HD
BRANCH  19  24
ATOM     23  C   UNL     1      -2.954  10.143  15.390  0.00  0.00    +0.000 C 
ATOM     24  C   UNL     1      -3.310  10.667  16.786  0.00  0.00    +0.000 C 
ATOM     25  C   UNL     1      -4.343   9.736  17.497  0.00  0.00    +0.000 C 
ATOM     26  C   UNL     1      -5.142  10.990  17.899  0.00  0.00    +0.000 C 
ATOM     27  F   UNL     1      -6.482  10.910  17.778  0.00  0.00    +0.000 F 
ATOM     28  F   UNL     1      -4.888  11.437  19.154  0.00  0.00    +0.000 F 
ATOM     29  C   UNL     1      -4.416  11.760  16.775  0.00  0.00    +0.000 C 
ENDBRANCH  19  24
ENDBRANCH  18  21
ENDBRANCH   1  18
TORSDOF 3
ENDMDL
MODEL 8
REMARK VINA RESULT:      -7.4      1.826      2.159
REMARK  Name = 
REMARK  4 active torsions:
REMARK  status: ('A' for Active; 'I' for Inactive)
REMARK    1  A    between atoms: C_1  and  C_2
REMARK    2  A    between atoms: C_2  and  C_3
REMARK    3  A    between atoms: N_5  and  C_6
REMARK    4  A    between atoms: C_6  and  C_7
REMARK                            x       y       z     vdW  Elec       q    Type
REMARK                         _______ _______ _______ _____ _____    ______ ____
ROOT
ATOM      1  C   UNL     1       3.206   3.568  19.367  0.00  0.00    +0.000 C 
ATOM      2  C   UNL     1       3.593   2.030  19.696  0.00  0.00    +0.000 C 
ATOM      3  C   UNL     1       3.780   1.820  21.180  0.00  0.00    +0.000 C 
ATOM      4  C   UNL     1       2.659   2.599  21.759  0.00  0.00    +0.000 C 
ATOM      5  C   UNL     1       2.138   3.415  20.575  0.00  0.00    +0.000 C 
ATOM      6  C   UNL     1       1.879   4.841  21.058  0.00  0.00    +0.000 C 
ATOM      7  N   UNL     1       1.658   5.521  19.818  0.00  0.00    +0.000 N 
ATOM      8  C   UNL     1       1.632   6.905  19.663  0.00  0.00    +0.000 A 
ATOM      9  C   UNL     1       1.225   7.761  20.836  0.00  0.00    +0.000 A 
ATOM     10  C   UNL     1       1.197   9.095  20.712  0.00  0.00    +0.000 A 
ATOM     11  C   UNL     1       1.560   9.657  19.478  0.00  0.00    +0.000 A 
ATOM     12  N   UNL     1       1.645  10.891  19.024  0.00  0.00    +0.000 NA
ATOM     13  N   UNL     1       2.055  10.770  17.717  0.00  0.00    +0.000 NA
ATOM     14  N   UNL     1       2.215   9.498  17.372  0.00  0.00    +0.000 NA
ATOM     15  N   UNL     1       1.905   8.787  18.472  0.00  0.00    +0.000 N 
ATOM     16  N   UNL     1       1.939   7.435  18.503  0.00  0.00    +0.000 NA
ATOM     17  C   UNL     1       2.103   4.615  18.757  0.00  0.00    +0.000 C 
ENDROOT
BRANCH   1  18
ATOM     18  C   UNL     1       3.562   3.240  17.811  0.00  0.00    +0.000 C 
BRANCH  18  21
ATOM     19  C   UNL     1       5.571   4.623  17.499  0.00  0.00    +0.000 C 
ATOM     20  O   UNL     1       6.115   4.056  18.436  0.00  0.00    +0.000 OA
ATOM     21  N   UNL     1       4.233   4.370  17.196  0.00  0.00    +0.000 N 
ATOM     22  H   UNL     1       3.825   4.744  16.347  0.00  0.00    +0.000 HD
BRANCH  19  24
ATOM     23  C   UNL     1       6.552   6.940  17.231  0.00  0.00    +0.000 C 
ATOM     24  C   UNL     1       6.294   5.608  16.518  0.00  0.00    +0.000 C 
ATOM     25  C   UNL     1       7.568   5.109  15.764  0.00  0.00    +0.000 C 
ATOM     26  C   UNL     1       6.682   4.807  14.541  0.00  0.00    +0.000 C 
ATOM     27  F   UNL     1       7.184   5.152  13.338  0.00  0.00    +0.000 F 
ATOM     28  F   UNL     1       6.286   3.514  14.442  0.00  0.00    +0.000 F 
ATOM     29  C   UNL     1       5.624   5.769  15.123  0.00  0.00    +0.000 C 
ENDBRANCH  19  24
ENDBRANCH  18  21
ENDBRANCH   1  18
TORSDOF 3
ENDMDL
MODEL 9
REMARK VINA RESULT:      -7.2      4.589      8.275
REMARK  Name = 
REMARK  4 active torsions:
REMARK  status: ('A' for Active; 'I' for Inactive)
REMARK    1  A    between atoms: C_1  and  C_2
REMARK    2  A    between atoms: C_2  and  C_3
REMARK    3  A    between atoms: N_5  and  C_6
REMARK    4  A    between atoms: C_6  and  C_7
REMARK                            x       y       z     vdW  Elec       q    Type
REMARK                         _______ _______ _______ _____ _____    ______ ____
ROOT
ATOM      1  C   UNL     1       0.621   9.499  20.305  0.00  0.00    +0.000 C 
ATOM      2  C   UNL     1       0.132  10.919  20.912  0.00  0.00    +0.000 C 
ATOM      3  C   UNL     1      -0.695  10.723  22.161  0.00  0.00    +0.000 C 
ATOM      4  C   UNL     1       0.050   9.658  22.876  0.00  0.00    +0.000 C 
ATOM      5  C   UNL     1       1.041   9.147  21.829  0.00  0.00    +0.000 C 
ATOM      6  C   UNL     1       1.055   7.620  21.894  0.00  0.00    +0.000 C 
ATOM      7  N   UNL     1       1.802   7.297  20.717  0.00  0.00    +0.000 N 
ATOM      8  C   UNL     1       1.890   6.026  20.155  0.00  0.00    +0.000 A 
ATOM      9  C   UNL     1       1.731   4.822  21.050  0.00  0.00    +0.000 A 
ATOM     10  C   UNL     1       1.808   3.589  20.531  0.00  0.00    +0.000 A 
ATOM     11  C   UNL     1       2.030   3.459  19.151  0.00  0.00    +0.000 A 
ATOM     12  N   UNL     1       2.152   2.431  18.337  0.00  0.00    +0.000 NA
ATOM     13  N   UNL     1       2.366   2.977  17.092  0.00  0.00    +0.000 NA
ATOM     14  N   UNL     1       2.380   4.303  17.137  0.00  0.00    +0.000 NA
ATOM     15  N   UNL     1       2.170   4.620  18.429  0.00  0.00    +0.000 N 
ATOM     16  N   UNL     1       2.129   5.897  18.872  0.00  0.00    +0.000 NA
ATOM     17  C   UNL     1       1.877   8.522  19.918  0.00  0.00    +0.000 C 
ENDROOT
BRANCH   1  18
ATOM     18  C   UNL     1       0.995  10.304  18.938  0.00  0.00    +0.000 C 
BRANCH  18  21
ATOM     19  C   UNL     1      -1.014  10.130  17.530  0.00  0.00    +0.000 C 
ATOM     20  O   UNL     1      -0.628   9.051  17.102  0.00  0.00    +0.000 OA
ATOM     21  N   UNL     1      -0.196  10.897  18.359  0.00  0.00    +0.000 N 
ATOM     22  H   UNL     1      -0.565  11.727  18.811  0.00  0.00    +0.000 HD
BRANCH  19  24
ATOM     23  C   UNL     1      -2.858  11.585  18.471  0.00  0.00    +0.000 C 
ATOM     24  C   UNL     1      -2.438  10.728  17.272  0.00  0.00    +0.000 C 
ATOM     25  C   UNL     1      -2.703  11.469  15.922  0.00  0.00    +0.000 C 
ATOM     26  C   UNL     1      -3.331  10.173  15.375  0.00  0.00    +0.000 C 
ATOM     27  F   UNL     1      -4.463  10.314  14.657  0.00  0.00    +0.000 F 
ATOM     28  F   UNL     1      -2.489   9.412  14.633  0.00  0.00    +0.000 F 
ATOM     29  C   UNL     1      -3.522   9.701  16.833  0.00  0.00    +0.000 C 
ENDBRANCH  19  24
ENDBRANCH  18  21
ENDBRANCH   1  18
TORSDOF 3
ENDMDL
