MODEL 1
REMARK VINA RESULT:      -8.6      0.000      0.000
REMARK  Name = 
REMARK  4 active torsions:
REMARK  status: ('A' for Active; 'I' for Inactive)
REMARK    1  A    between atoms: O_1  and  C_2
REMARK    2  A    between atoms: C_4  and  C_5
REMARK    3  A    between atoms: N_12  and  C_13
REMARK    4  A    between atoms: N_21  and  C_22
REMARK                            x       y       z     vdW  Elec       q    Type
REMARK                         _______ _______ _______ _____ _____    ______ ____
ROOT
ATOM      1  C   UNL     1       4.185   5.050  17.756  0.00  0.00    +0.000 A 
ATOM      2  N   UNL     1       3.996   4.144  18.748  0.00  0.00    +0.000 NA
ATOM      3  C   UNL     1       3.234   4.473  19.805  0.00  0.00    +0.000 A 
ATOM      4  N   UNL     1       2.591   5.625  20.029  0.00  0.00    +0.000 NA
ATOM      5  C   UNL     1       2.783   6.518  19.037  0.00  0.00    +0.000 A 
ATOM      6  C   UNL     1       3.541   6.293  17.896  0.00  0.00    +0.000 A 
ATOM      7  C   UNL     1       3.481   7.513  17.197  0.00  0.00    +0.000 A 
ATOM      8  N   UNL     1       2.704   8.419  17.780  0.00  0.00    +0.000 NA
ATOM      9  N   UNL     1       2.293   7.821  18.939  0.00  0.00    +0.000 N 
ENDROOT
BRANCH   9  10
ATOM     10  C   UNL     1       1.472   8.552  19.848  0.00  0.00    +0.000 A 
ATOM     11  C   UNL     1       0.745   9.660  19.378  0.00  0.00    +0.000 A 
ATOM     12  C   UNL     1      -0.092  10.373  20.237  0.00  0.00    +0.000 A 
ATOM     13  C   UNL     1      -0.199   9.998  21.575  0.00  0.00    +0.000 A 
ATOM     14  C   UNL     1       0.535   8.916  22.054  0.00  0.00    +0.000 A 
ATOM     15  C   UNL     1       1.368   8.194  21.197  0.00  0.00    +0.000 A 
ENDBRANCH   9  10
BRANCH   1  19
ATOM     16  C   UNL     1       5.883   4.325  14.650  0.00  0.00    +0.000 C 
ATOM     17  C   UNL     1       7.086   4.271  15.592  0.00  0.00    +0.000 C 
ATOM     18  C   UNL     1       6.515   4.603  16.996  0.00  0.00    +0.000 C 
ATOM     19  N   UNL     1       5.078   4.780  16.749  0.00  0.00    +0.000 N 
ATOM     20  C   UNL     1       4.713   4.003  15.577  0.00  0.00    +0.000 C 
BRANCH  18  21
ATOM     21  C   UNL     1       7.166   5.833  17.601  0.00  0.00    +0.000 A 
ATOM     22  C   UNL     1       7.834   5.779  18.836  0.00  0.00    +0.000 A 
ATOM     23  C   UNL     1       8.445   6.919  19.359  0.00  0.00    +0.000 A 
ATOM     24  C   UNL     1       8.393   8.113  18.649  0.00  0.00    +0.000 A 
ATOM     25  F   UNL     1       8.990   9.204  19.150  0.00  0.00    +0.000 F 
ATOM     26  C   UNL     1       7.739   8.192  17.427  0.00  0.00    +0.000 A 
ATOM     27  C   UNL     1       7.125   7.054  16.904  0.00  0.00    +0.000 A 
ENDBRANCH  18  21
BRANCH  16  28
ATOM     28  O   UNL     1       6.000   3.412  13.576  0.00  0.00    +0.000 OA
ATOM     29  H   UNL     1       6.692   2.771  13.819  0.00  0.00    +0.000 HD
ENDBRANCH  16  28
ENDBRANCH   1  19
TORSDOF 4
ENDMDL
MODEL 2
REMARK VINA RESULT:      -7.9      3.083      7.281
REMARK  Name = 
REMARK  4 active torsions:
REMARK  status: ('A' for Active; 'I' for Inactive)
REMARK    1  A    between atoms: O_1  and  C_2
REMARK    2  A    between atoms: C_4  and  C_5
REMARK    3  A    between atoms: N_12  and  C_13
REMARK    4  A    between atoms: N_21  and  C_22
REMARK                            x       y       z     vdW  Elec       q    Type
REMARK                         _______ _______ _______ _____ _____    ______ ____
ROOT
ATOM      1  C   UNL     1       4.523   4.584  19.041  0.00  0.00    +0.000 A 
ATOM      2  N   UNL     1       5.704   5.022  19.542  0.00  0.00    +0.000 NA
ATOM      3  C   UNL     1       6.743   5.214  18.710  0.00  0.00    +0.000 A 
ATOM      4  N   UNL     1       6.779   5.035  17.384  0.00  0.00    +0.000 NA
ATOM      5  C   UNL     1       5.599   4.602  16.896  0.00  0.00    +0.000 A 
ATOM      6  C   UNL     1       4.458   4.374  17.650  0.00  0.00    +0.000 A 
ATOM      7  C   UNL     1       3.518   3.895  16.719  0.00  0.00    +0.000 A 
ATOM      8  N   UNL     1       3.973   3.881  15.469  0.00  0.00    +0.000 NA
ATOM      9  N   UNL     1       5.273   4.288  15.575  0.00  0.00    +0.000 N 
ENDROOT
BRANCH   9  10
ATOM     10  C   UNL     1       6.086   4.336  14.404  0.00  0.00    +0.000 A 
ATOM     11  C   UNL     1       5.763   3.514  13.310  0.00  0.00    +0.000 A 
ATOM     12  C   UNL     1       6.522   3.564  12.139  0.00  0.00    +0.000 A 
ATOM     13  C   UNL     1       7.616   4.422  12.055  0.00  0.00    +0.000 A 
ATOM     14  C   UNL     1       7.957   5.224  13.142  0.00  0.00    +0.000 A 
ATOM     15  C   UNL     1       7.197   5.183  14.313  0.00  0.00    +0.000 A 
ENDBRANCH   9  10
BRANCH   1  19
ATOM     16  C   UNL     1       2.412   3.272  21.663  0.00  0.00    +0.000 C 
ATOM     17  C   UNL     1       1.344   4.005  20.850  0.00  0.00    +0.000 C 
ATOM     18  C   UNL     1       2.115   4.667  19.677  0.00  0.00    +0.000 C 
ATOM     19  N   UNL     1       3.504   4.243  19.896  0.00  0.00    +0.000 N 
ATOM     20  C   UNL     1       3.492   2.985  20.623  0.00  0.00    +0.000 C 
BRANCH  18  21
ATOM     21  C   UNL     1       1.954   6.176  19.667  0.00  0.00    +0.000 A 
ATOM     22  C   UNL     1       2.203   6.934  18.510  0.00  0.00    +0.000 A 
ATOM     23  C   UNL     1       2.024   8.318  18.521  0.00  0.00    +0.000 A 
ATOM     24  C   UNL     1       1.594   8.946  19.683  0.00  0.00    +0.000 A 
ATOM     25  F   UNL     1       1.413  10.275  19.687  0.00  0.00    +0.000 F 
ATOM     26  C   UNL     1       1.341   8.219  20.839  0.00  0.00    +0.000 A 
ATOM     27  C   UNL     1       1.522   6.836  20.831  0.00  0.00    +0.000 A 
ENDBRANCH  18  21
BRANCH  16  28
ATOM     28  O   UNL     1       1.910   2.099  22.272  0.00  0.00    +0.000 OA
ATOM     29  H   UNL     1       1.848   2.275  23.228  0.00  0.00    +0.000 HD
ENDBRANCH  16  28
ENDBRANCH   1  19
TORSDOF 4
ENDMDL
MODEL 3
REMARK VINA RESULT:      -7.7      2.736      4.576
REMARK  Name = 
REMARK  4 active torsions:
REMARK  status: ('A' for Active; 'I' for Inactive)
REMARK    1  A    between atoms: O_1  and  C_2
REMARK    2  A    between atoms: C_4  and  C_5
REMARK    3  A    between atoms: N_12  and  C_13
REMARK    4  A    between atoms: N_21  and  C_22
REMARK                            x       y       z     vdW  Elec       q    Type
REMARK                         _______ _______ _______ _____ _____    ______ ____
ROOT
ATOM      1  C   UNL     1       2.298   6.769  19.262  0.00  0.00    +0.000 A 
ATOM      2  N   UNL     1       2.735   7.056  18.011  0.00  0.00    +0.000 NA
ATOM      3  C   UNL     1       2.569   8.299  17.523  0.00  0.00    +0.000 A 
ATOM      4  N   UNL     1       2.014   9.354  18.131  0.00  0.00    +0.000 NA
ATOM      5  C   UNL     1       1.585   9.058  19.375  0.00  0.00    +0.000 A 
ATOM      6  C   UNL     1       1.705   7.820  19.988  0.00  0.00    +0.000 A 
ATOM      7  C   UNL     1       1.080   7.991  21.237  0.00  0.00    +0.000 A 
ATOM      8  N   UNL     1       0.660   9.234  21.452  0.00  0.00    +0.000 NA
ATOM      9  N   UNL     1       0.941   9.894  20.289  0.00  0.00    +0.000 N 
ENDROOT
BRANCH   9  10
ATOM     10  C   UNL     1       0.564  11.264  20.156  0.00  0.00    +0.000 A 
ATOM     11  C   UNL     1      -0.712  11.580  19.658  0.00  0.00    +0.000 A 
ATOM     12  C   UNL     1      -1.120  12.910  19.548  0.00  0.00    +0.000 A 
ATOM     13  C   UNL     1      -0.254  13.936  19.920  0.00  0.00    +0.000 A 
ATOM     14  C   UNL     1       1.021  13.633  20.394  0.00  0.00    +0.000 A 
ATOM     15  C   UNL     1       1.431  12.303  20.512  0.00  0.00    +0.000 A 
ENDBRANCH   9  10
BRANCH   1  19
ATOM     16  C   UNL     1       1.581   3.409  20.379  0.00  0.00    +0.000 C 
ATOM     17  C   UNL     1       3.096   3.405  20.585  0.00  0.00    +0.000 C 
ATOM     18  C   UNL     1       3.572   4.802  20.107  0.00  0.00    +0.000 C 
ATOM     19  N   UNL     1       2.326   5.473  19.713  0.00  0.00    +0.000 N 
ATOM     20  C   UNL     1       1.231   4.892  20.470  0.00  0.00    +0.000 C 
BRANCH  18  21
ATOM     21  C   UNL     1       4.575   4.707  18.973  0.00  0.00    +0.000 A 
ATOM     22  C   UNL     1       4.264   4.052  17.769  0.00  0.00    +0.000 A 
ATOM     23  C   UNL     1       5.196   4.000  16.732  0.00  0.00    +0.000 A 
ATOM     24  C   UNL     1       6.438   4.602  16.894  0.00  0.00    +0.000 A 
ATOM     25  F   UNL     1       7.328   4.558  15.892  0.00  0.00    +0.000 F 
ATOM     26  C   UNL     1       6.770   5.254  18.074  0.00  0.00    +0.000 A 
ATOM     27  C   UNL     1       5.840   5.305  19.113  0.00  0.00    +0.000 A 
ENDBRANCH  18  21
BRANCH  16  28
ATOM     28  O   UNL     1       0.906   2.624  21.343  0.00  0.00    +0.000 OA
ATOM     29  H   UNL     1       0.328   2.008  20.858  0.00  0.00    +0.000 HD
ENDBRANCH  16  28
ENDBRANCH   1  19
TORSDOF 4
ENDMDL
MODEL 4
REMARK VINA RESULT:      -7.7      2.754      4.594
REMARK  Name = 
REMARK  4 active torsions:
REMARK  status: ('A' for Active; 'I' for Inactive)
REMARK    1  A    between atoms: O_1  and  C_2
REMARK    2  A    between atoms: C_4  and  C_5
REMARK    3  A    between atoms: N_12  and  C_13
REMARK    4  A    between atoms: N_21  and  C_22
REMARK                            x       y       z     vdW  Elec       q    Type
REMARK                         _______ _______ _______ _____ _____    ______ ____
ROOT
ATOM      1  C   UNL     1       2.273   6.837  19.273  0.00  0.00    +0.000 A 
ATOM      2  N   UNL     1       2.696   7.138  18.020  0.00  0.00    +0.000 NA
ATOM      3  C   UNL     1       2.523   8.385  17.548  0.00  0.00    +0.000 A 
ATOM      4  N   UNL     1       1.973   9.433  18.173  0.00  0.00    +0.000 NA
ATOM      5  C   UNL     1       1.559   9.124  19.418  0.00  0.00    +0.000 A 
ATOM      6  C   UNL     1       1.687   7.879  20.017  0.00  0.00    +0.000 A 
ATOM      7  C   UNL     1       1.076   8.035  21.274  0.00  0.00    +0.000 A 
ATOM      8  N   UNL     1       0.657   9.275  21.507  0.00  0.00    +0.000 NA
ATOM      9  N   UNL     1       0.923   9.948  20.348  0.00  0.00    +0.000 N 
ENDROOT
BRANCH   9  10
ATOM     10  C   UNL     1       0.543  11.319  20.234  0.00  0.00    +0.000 A 
ATOM     11  C   UNL     1       1.485  12.320  20.527  0.00  0.00    +0.000 A 
ATOM     12  C   UNL     1       1.151  13.668  20.392  0.00  0.00    +0.000 A 
ATOM     13  C   UNL     1      -0.130  14.029  19.980  0.00  0.00    +0.000 A 
ATOM     14  C   UNL     1      -1.077  13.045  19.709  0.00  0.00    +0.000 A 
ATOM     15  C   UNL     1      -0.745  11.694  19.835  0.00  0.00    +0.000 A 
ENDBRANCH   9  10
BRANCH   1  19
ATOM     16  C   UNL     1       1.575   3.458  20.346  0.00  0.00    +0.000 C 
ATOM     17  C   UNL     1       3.089   3.464  20.565  0.00  0.00    +0.000 C 
ATOM     18  C   UNL     1       3.557   4.871  20.107  0.00  0.00    +0.000 C 
ATOM     19  N   UNL     1       2.309   5.536  19.710  0.00  0.00    +0.000 N 
ATOM     20  C   UNL     1       1.212   4.938  20.451  0.00  0.00    +0.000 C 
BRANCH  18  21
ATOM     21  C   UNL     1       4.570   4.797  18.980  0.00  0.00    +0.000 A 
ATOM     22  C   UNL     1       5.848   5.370  19.100  0.00  0.00    +0.000 A 
ATOM     23  C   UNL     1       6.770   5.266  18.058  0.00  0.00    +0.000 A 
ATOM     24  C   UNL     1       6.420   4.589  16.896  0.00  0.00    +0.000 A 
ATOM     25  F   UNL     1       7.311   4.483  15.901  0.00  0.00    +0.000 F 
ATOM     26  C   UNL     1       5.163   4.015  16.753  0.00  0.00    +0.000 A 
ATOM     27  C   UNL     1       4.240   4.120  17.792  0.00  0.00    +0.000 A 
ENDBRANCH  18  21
BRANCH  16  28
ATOM     28  O   UNL     1       0.900   2.658  21.296  0.00  0.00    +0.000 OA
ATOM     29  H   UNL     1       1.233   2.911  22.175  0.00  0.00    +0.000 HD
ENDBRANCH  16  28
ENDBRANCH   1  19
TORSDOF 4
ENDMDL
MODEL 5
REMARK VINA RESULT:      -7.7      4.504      8.787
REMARK  Name = 
REMARK  4 active torsions:
REMARK  status: ('A' for Active; 'I' for Inactive)
REMARK    1  A    between atoms: O_1  and  C_2
REMARK    2  A    between atoms: C_4  and  C_5
REMARK    3  A    between atoms: N_12  and  C_13
REMARK    4  A    between atoms: N_21  and  C_22
REMARK                            x       y       z     vdW  Elec       q    Type
REMARK                         _______ _______ _______ _____ _____    ______ ____
ROOT
ATOM      1  C   UNL     1       0.711  10.464  20.344  0.00  0.00    +0.000 A 
ATOM      2  N   UNL     1       0.518   9.799  21.510  0.00  0.00    +0.000 NA
ATOM      3  C   UNL     1       0.904   8.515  21.609  0.00  0.00    +0.000 A 
ATOM      4  N   UNL     1       1.492   7.759  20.675  0.00  0.00    +0.000 NA
ATOM      5  C   UNL     1       1.681   8.429  19.521  0.00  0.00    +0.000 A 
ATOM      6  C   UNL     1       1.333   9.753  19.300  0.00  0.00    +0.000 A 
ATOM      7  C   UNL     1       1.679   9.982  17.955  0.00  0.00    +0.000 A 
ATOM      8  N   UNL     1       2.263   8.937  17.375  0.00  0.00    +0.000 NA
ATOM      9  N   UNL     1       2.239   7.960  18.330  0.00  0.00    +0.000 N 
ENDROOT
BRANCH   9  10
ATOM     10  C   UNL     1       2.748   6.665  18.015  0.00  0.00    +0.000 A 
ATOM     11  C   UNL     1       4.100   6.528  17.656  0.00  0.00    +0.000 A 
ATOM     12  C   UNL     1       4.633   5.268  17.374  0.00  0.00    +0.000 A 
ATOM     13  C   UNL     1       3.820   4.139  17.435  0.00  0.00    +0.000 A 
ATOM     14  C   UNL     1       2.474   4.268  17.768  0.00  0.00    +0.000 A 
ATOM     15  C   UNL     1       1.937   5.525  18.057  0.00  0.00    +0.000 A 
ENDBRANCH   9  10
BRANCH   1  19
ATOM     16  C   UNL     1       0.090  14.010  20.032  0.00  0.00    +0.000 C 
ATOM     17  C   UNL     1      -1.351  13.510  19.922  0.00  0.00    +0.000 C 
ATOM     18  C   UNL     1      -1.249  11.964  20.006  0.00  0.00    +0.000 C 
ATOM     19  N   UNL     1       0.189  11.723  20.183  0.00  0.00    +0.000 N 
ATOM     20  C   UNL     1       0.777  12.892  20.814  0.00  0.00    +0.000 C 
BRANCH  18  21
ATOM     21  C   UNL     1      -1.813  11.287  18.771  0.00  0.00    +0.000 A 
ATOM     22  C   UNL     1      -2.460  10.041  18.846  0.00  0.00    +0.000 A 
ATOM     23  C   UNL     1      -2.991   9.451  17.699  0.00  0.00    +0.000 A 
ATOM     24  C   UNL     1      -2.881  10.103  16.477  0.00  0.00    +0.000 A 
ATOM     25  F   UNL     1      -3.401   9.538  15.378  0.00  0.00    +0.000 F 
ATOM     26  C   UNL     1      -2.247  11.335  16.377  0.00  0.00    +0.000 A 
ATOM     27  C   UNL     1      -1.712  11.925  17.522  0.00  0.00    +0.000 A 
ENDBRANCH  18  21
BRANCH  16  28
ATOM     28  O   UNL     1       0.175  15.265  20.678  0.00  0.00    +0.000 OA
ATOM     29  H   UNL     1      -0.187  15.151  21.575  0.00  0.00    +0.000 HD
ENDBRANCH  16  28
ENDBRANCH   1  19
TORSDOF 4
ENDMDL
MODEL 6
REMARK VINA RESULT:      -7.6      4.506      8.798
REMARK  Name = 
REMARK  4 active torsions:
REMARK  status: ('A' for Active; 'I' for Inactive)
REMARK    1  A    between atoms: O_1  and  C_2
REMARK    2  A    between atoms: C_4  and  C_5
REMARK    3  A    between atoms: N_12  and  C_13
REMARK    4  A    between atoms: N_21  and  C_22
REMARK                            x       y       z     vdW  Elec       q    Type
REMARK                         _______ _______ _______ _____ _____    ______ ____
ROOT
ATOM      1  C   UNL     1       0.754  10.493  20.303  0.00  0.00    +0.000 A 
ATOM      2  N   UNL     1       0.537   9.837  21.470  0.00  0.00    +0.000 NA
ATOM      3  C   UNL     1       0.899   8.547  21.579  0.00  0.00    +0.000 A 
ATOM      4  N   UNL     1       1.484   7.776  20.655  0.00  0.00    +0.000 NA
ATOM      5  C   UNL     1       1.698   8.437  19.499  0.00  0.00    +0.000 A 
ATOM      6  C   UNL     1       1.375   9.767  19.269  0.00  0.00    +0.000 A 
ATOM      7  C   UNL     1       1.739   9.983  17.927  0.00  0.00    +0.000 A 
ATOM      8  N   UNL     1       2.312   8.926  17.358  0.00  0.00    +0.000 NA
ATOM      9  N   UNL     1       2.260   7.953  18.317  0.00  0.00    +0.000 N 
ENDROOT
BRANCH   9  10
ATOM     10  C   UNL     1       2.751   6.649  18.013  0.00  0.00    +0.000 A 
ATOM     11  C   UNL     1       1.870   5.554  18.066  0.00  0.00    +0.000 A 
ATOM     12  C   UNL     1       2.314   4.271  17.742  0.00  0.00    +0.000 A 
ATOM     13  C   UNL     1       3.643   4.067  17.378  0.00  0.00    +0.000 A 
ATOM     14  C   UNL     1       4.529   5.142  17.344  0.00  0.00    +0.000 A 
ATOM     15  C   UNL     1       4.087   6.429  17.660  0.00  0.00    +0.000 A 
ENDBRANCH   9  10
BRANCH   1  19
ATOM     16  C   UNL     1       0.200  14.046  19.950  0.00  0.00    +0.000 C 
ATOM     17  C   UNL     1      -1.252  13.573  19.861  0.00  0.00    +0.000 C 
ATOM     18  C   UNL     1      -1.180  12.027  19.964  0.00  0.00    +0.000 C 
ATOM     19  N   UNL     1       0.255  11.760  20.130  0.00  0.00    +0.000 N 
ATOM     20  C   UNL     1       0.873  12.925  20.740  0.00  0.00    +0.000 C 
BRANCH  18  21
ATOM     21  C   UNL     1      -1.769  11.345  18.744  0.00  0.00    +0.000 A 
ATOM     22  C   UNL     1      -1.682  11.922  17.465  0.00  0.00    +0.000 A 
ATOM     23  C   UNL     1      -2.211  11.263  16.355  0.00  0.00    +0.000 A 
ATOM     24  C   UNL     1      -2.826  10.028  16.518  0.00  0.00    +0.000 A 
ATOM     25  F   UNL     1      -3.325   9.392  15.448  0.00  0.00    +0.000 F 
ATOM     26  C   UNL     1      -2.925   9.437  17.771  0.00  0.00    +0.000 A 
ATOM     27  C   UNL     1      -2.399  10.095  18.882  0.00  0.00    +0.000 A 
ENDBRANCH  18  21
BRANCH  16  28
ATOM     28  O   UNL     1       0.316  15.307  20.579  0.00  0.00    +0.000 OA
ATOM     29  H   UNL     1       0.977  15.818  20.078  0.00  0.00    +0.000 HD
ENDBRANCH  16  28
ENDBRANCH   1  19
TORSDOF 4
ENDMDL
MODEL 7
REMARK VINA RESULT:      -7.4      2.385      3.780
REMARK  Name = 
REMARK  4 active torsions:
REMARK  status: ('A' for Active; 'I' for Inactive)
REMARK    1  A    between atoms: O_1  and  C_2
REMARK    2  A    between atoms: C_4  and  C_5
REMARK    3  A    between atoms: N_12  and  C_13
REMARK    4  A    between atoms: N_21  and  C_22
REMARK                            x       y       z     vdW  Elec       q    Type
REMARK                         _______ _______ _______ _____ _____    ______ ____
ROOT
ATOM      1  C   UNL     1       2.677   6.086  18.528  0.00  0.00    +0.000 A 
ATOM      2  N   UNL     1       3.049   6.834  17.460  0.00  0.00    +0.000 NA
ATOM      3  C   UNL     1       2.787   8.153  17.456  0.00  0.00    +0.000 A 
ATOM      4  N   UNL     1       2.190   8.876  18.410  0.00  0.00    +0.000 NA
ATOM      5  C   UNL     1       1.827   8.124  19.468  0.00  0.00    +0.000 A 
ATOM      6  C   UNL     1       2.047   6.759  19.591  0.00  0.00    +0.000 A 
ATOM      7  C   UNL     1       1.459   6.425  20.825  0.00  0.00    +0.000 A 
ATOM      8  N   UNL     1       0.969   7.474  21.479  0.00  0.00    +0.000 NA
ATOM      9  N   UNL     1       1.165   8.526  20.629  0.00  0.00    +0.000 N 
ENDROOT
BRANCH   9  10
ATOM     10  C   UNL     1       0.698   9.821  21.005  0.00  0.00    +0.000 A 
ATOM     11  C   UNL     1      -0.170   9.946  22.104  0.00  0.00    +0.000 A 
ATOM     12  C   UNL     1      -0.616  11.204  22.513  0.00  0.00    +0.000 A 
ATOM     13  C   UNL     1      -0.214  12.344  21.822  0.00  0.00    +0.000 A 
ATOM     14  C   UNL     1       0.628  12.228  20.718  0.00  0.00    +0.000 A 
ATOM     15  C   UNL     1       1.083  10.973  20.309  0.00  0.00    +0.000 A 
ENDBRANCH   9  10
BRANCH   1  19
ATOM     16  C   UNL     1       2.217   2.507  18.344  0.00  0.00    +0.000 C 
ATOM     17  C   UNL     1       3.731   2.536  18.556  0.00  0.00    +0.000 C 
ATOM     18  C   UNL     1       4.100   4.042  18.622  0.00  0.00    +0.000 C 
ATOM     19  N   UNL     1       2.804   4.720  18.480  0.00  0.00    +0.000 N 
ATOM     20  C   UNL     1       1.763   3.828  18.961  0.00  0.00    +0.000 C 
BRANCH  18  21
ATOM     21  C   UNL     1       5.092   4.435  17.545  0.00  0.00    +0.000 A 
ATOM     22  C   UNL     1       6.233   5.202  17.839  0.00  0.00    +0.000 A 
ATOM     23  C   UNL     1       7.143   5.529  16.834  0.00  0.00    +0.000 A 
ATOM     24  C   UNL     1       6.919   5.091  15.534  0.00  0.00    +0.000 A 
ATOM     25  F   UNL     1       7.800   5.399  14.572  0.00  0.00    +0.000 F 
ATOM     26  C   UNL     1       5.799   4.332  15.218  0.00  0.00    +0.000 A 
ATOM     27  C   UNL     1       4.887   4.006  16.221  0.00  0.00    +0.000 A 
ENDBRANCH  18  21
BRANCH  16  28
ATOM     28  O   UNL     1       1.613   1.381  18.950  0.00  0.00    +0.000 OA
ATOM     29  H   UNL     1       0.654   1.449  18.791  0.00  0.00    +0.000 HD
ENDBRANCH  16  28
ENDBRANCH   1  19
TORSDOF 4
ENDMDL
MODEL 8
REMARK VINA RESULT:      -7.4      2.163      3.217
REMARK  Name = 
REMARK  4 active torsions:
REMARK  status: ('A' for Active; 'I' for Inactive)
REMARK    1  A    between atoms: O_1  and  C_2
REMARK    2  A    between atoms: C_4  and  C_5
REMARK    3  A    between atoms: N_12  and  C_13
REMARK    4  A    between atoms: N_21  and  C_22
REMARK                            x       y       z     vdW  Elec       q    Type
REMARK                         _______ _______ _______ _____ _____    ______ ____
ROOT
ATOM      1  C   UNL     1       2.193   6.087  19.355  0.00  0.00    +0.000 A 
ATOM      2  N   UNL     1       2.001   6.131  20.697  0.00  0.00    +0.000 NA
ATOM      3  C   UNL     1       1.742   7.310  21.288  0.00  0.00    +0.000 A 
ATOM      4  N   UNL     1       1.630   8.512  20.712  0.00  0.00    +0.000 NA
ATOM      5  C   UNL     1       1.820   8.458  19.378  0.00  0.00    +0.000 A 
ATOM      6  C   UNL     1       2.087   7.304  18.656  0.00  0.00    +0.000 A 
ATOM      7  C   UNL     1       2.251   7.755  17.333  0.00  0.00    +0.000 A 
ATOM      8  N   UNL     1       2.039   9.060  17.189  0.00  0.00    +0.000 NA
ATOM      9  N   UNL     1       1.804   9.509  18.459  0.00  0.00    +0.000 N 
ENDROOT
BRANCH   9  10
ATOM     10  C   UNL     1       1.587  10.902  18.677  0.00  0.00    +0.000 A 
ATOM     11  C   UNL     1       2.474  11.832  18.108  0.00  0.00    +0.000 A 
ATOM     12  C   UNL     1       2.268  13.202  18.278  0.00  0.00    +0.000 A 
ATOM     13  C   UNL     1       1.185  13.655  19.028  0.00  0.00    +0.000 A 
ATOM     14  C   UNL     1       0.314  12.740  19.614  0.00  0.00    +0.000 A 
ATOM     15  C   UNL     1       0.511  11.368  19.441  0.00  0.00    +0.000 A 
ENDBRANCH   9  10
BRANCH   1  19
ATOM     16  C   UNL     1       2.530   2.996  17.516  0.00  0.00    +0.000 C 
ATOM     17  C   UNL     1       3.914   3.033  18.165  0.00  0.00    +0.000 C 
ATOM     18  C   UNL     1       3.941   4.352  18.982  0.00  0.00    +0.000 C 
ATOM     19  N   UNL     1       2.604   4.919  18.763  0.00  0.00    +0.000 N 
ATOM     20  C   UNL     1       1.685   3.832  18.473  0.00  0.00    +0.000 C 
BRANCH  18  21
ATOM     21  C   UNL     1       5.056   5.278  18.535  0.00  0.00    +0.000 A 
ATOM     22  C   UNL     1       6.228   5.439  19.293  0.00  0.00    +0.000 A 
ATOM     23  C   UNL     1       7.248   6.279  18.847  0.00  0.00    +0.000 A 
ATOM     24  C   UNL     1       7.103   6.957  17.642  0.00  0.00    +0.000 A 
ATOM     25  F   UNL     1       8.090   7.756  17.211  0.00  0.00    +0.000 F 
ATOM     26  C   UNL     1       5.954   6.815  16.875  0.00  0.00    +0.000 A 
ATOM     27  C   UNL     1       4.932   5.978  17.321  0.00  0.00    +0.000 A 
ENDBRANCH  18  21
BRANCH  16  28
ATOM     28  O   UNL     1       2.045   1.676  17.363  0.00  0.00    +0.000 OA
ATOM     29  H   UNL     1       1.111   1.743  17.096  0.00  0.00    +0.000 HD
ENDBRANCH  16  28
ENDBRANCH   1  19
TORSDOF 4
ENDMDL
MODEL 9
REMARK VINA RESULT:      -7.3      4.734      8.592
REMARK  Name = 
REMARK  4 active torsions:
REMARK  status: ('A' for Active; 'I' for Inactive)
REMARK    1  A    between atoms: O_1  and  C_2
REMARK    2  A    between atoms: C_4  and  C_5
REMARK    3  A    between atoms: N_12  and  C_13
REMARK    4  A    between atoms: N_21  and  C_22
REMARK                            x       y       z     vdW  Elec       q    Type
REMARK                         _______ _______ _______ _____ _____    ______ ____
ROOT
ATOM      1  C   UNL     1       0.991  10.413  20.021  0.00  0.00    +0.000 A 
ATOM      2  N   UNL     1       0.467  10.003  21.203  0.00  0.00    +0.000 NA
ATOM      3  C   UNL     1       0.578   8.711  21.561  0.00  0.00    +0.000 A 
ATOM      4  N   UNL     1       1.172   7.719  20.887  0.00  0.00    +0.000 NA
ATOM      5  C   UNL     1       1.690   8.138  19.715  0.00  0.00    +0.000 A 
ATOM      6  C   UNL     1       1.645   9.441  19.241  0.00  0.00    +0.000 A 
ATOM      7  C   UNL     1       2.265   9.372  17.980  0.00  0.00    +0.000 A 
ATOM      8  N   UNL     1       2.736   8.163  17.688  0.00  0.00    +0.000 NA
ATOM      9  N   UNL     1       2.355   7.385  18.745  0.00  0.00    +0.000 N 
ENDROOT
BRANCH   9  10
ATOM     10  C   UNL     1       2.659   5.991  18.729  0.00  0.00    +0.000 A 
ATOM     11  C   UNL     1       1.875   5.126  17.946  0.00  0.00    +0.000 A 
ATOM     12  C   UNL     1       2.169   3.763  17.886  0.00  0.00    +0.000 A 
ATOM     13  C   UNL     1       3.238   3.249  18.617  0.00  0.00    +0.000 A 
ATOM     14  C   UNL     1       4.006   4.095  19.414  0.00  0.00    +0.000 A 
ATOM     15  C   UNL     1       3.720   5.461  19.472  0.00  0.00    +0.000 A 
ENDBRANCH   9  10
BRANCH   1  19
ATOM     16  C   UNL     1       1.160  13.800  18.774  0.00  0.00    +0.000 C 
ATOM     17  C   UNL     1      -0.344  13.726  19.047  0.00  0.00    +0.000 C 
ATOM     18  C   UNL     1      -0.589  12.285  19.568  0.00  0.00    +0.000 C 
ATOM     19  N   UNL     1       0.754  11.691  19.579  0.00  0.00    +0.000 N 
ATOM     20  C   UNL     1       1.729  12.757  19.733  0.00  0.00    +0.000 C 
BRANCH  18  21
ATOM     21  C   UNL     1      -1.566  11.521  18.695  0.00  0.00    +0.000 A 
ATOM     22  C   UNL     1      -2.954  11.707  18.807  0.00  0.00    +0.000 A 
ATOM     23  C   UNL     1      -3.831  11.010  17.976  0.00  0.00    +0.000 A 
ATOM     24  C   UNL     1      -3.324  10.128  17.029  0.00  0.00    +0.000 A 
ATOM     25  F   UNL     1      -4.168   9.466  16.225  0.00  0.00    +0.000 F 
ATOM     26  C   UNL     1      -1.956   9.926  16.899  0.00  0.00    +0.000 A 
ATOM     27  C   UNL     1      -1.079  10.620  17.731  0.00  0.00    +0.000 A 
ENDBRANCH  18  21
BRANCH  16  28
ATOM     28  O   UNL     1       1.682  15.095  18.996  0.00  0.00    +0.000 OA
ATOM     29  H   UNL     1       2.369  15.247  18.323  0.00  0.00    +0.000 HD
ENDBRANCH  16  28
ENDBRANCH   1  19
TORSDOF 4
ENDMDL
