MODEL 1
REMARK VINA RESULT:      -9.1      0.000      0.000
REMARK  Name = 
REMARK  6 active torsions:
REMARK  status: ('A' for Active; 'I' for Inactive)
REMARK    1  A    between atoms: C_2  and  C_3
REMARK    2  A    between atoms: C_3  and  N_4
REMARK    3  A    between atoms: C_7  and  C_8
REMARK    4  A    between atoms: N_10  and  C_11
REMARK    5  A    between atoms: C_11  and  C_12
REMARK    6  A    between atoms: N_20  and  C_21
REMARK                            x       y       z     vdW  Elec       q    Type
REMARK                         _______ _______ _______ _____ _____    ______ ____
ROOT
ATOM      1  C   UNL     1       0.871   9.093  19.285  0.00  0.00    +0.000 C 
ENDROOT
BRANCH   1   2
ATOM      2  N   UNL     1       0.923  10.130  20.341  0.00  0.00    +0.000 NA
ATOM      3  C   UNL     1       1.140  11.462  19.740  0.00  0.00    +0.000 C 
ATOM      4  C   UNL     1       1.111  12.558  20.803  0.00  0.00    +0.000 C 
ATOM      5  C   UNL     1      -0.216  12.573  21.561  0.00  0.00    +0.000 C 
ATOM      6  C   UNL     1      -0.481  11.174  22.129  0.00  0.00    +0.000 C 
ATOM      7  C   UNL     1      -0.372  10.090  21.055  0.00  0.00    +0.000 C 
BRANCH   5   8
ATOM      8  C   UNL     1      -1.395  13.050  20.699  0.00  0.00    +0.000 C 
ATOM      9  O   UNL     1      -1.478  14.186  20.261  0.00  0.00    +0.000 OA
ATOM     10  N   UNL     1      -2.325  12.075  20.420  0.00  0.00    +0.000 N 
ATOM     11  H   UNL     1      -2.204  11.135  20.766  0.00  0.00    +0.000 HD
BRANCH  10  12
ATOM     12  C   UNL     1      -3.452  12.331  19.549  0.00  0.00    +0.000 C 
BRANCH  12  13
ATOM     13  C   UNL     1      -3.347  11.544  18.270  0.00  0.00    +0.000 A 
ATOM     14  C   UNL     1      -4.362  11.624  17.305  0.00  0.00    +0.000 A 
ATOM     15  C   UNL     1      -4.260  10.911  16.106  0.00  0.00    +0.000 A 
ATOM     16  C   UNL     1      -3.146  10.107  15.862  0.00  0.00    +0.000 A 
ATOM     17  C   UNL     1      -2.138  10.004  16.832  0.00  0.00    +0.000 A 
ATOM     18  C   UNL     1      -2.243  10.715  18.025  0.00  0.00    +0.000 A 
ENDBRANCH  12  13
ENDBRANCH  10  12
ENDBRANCH   5   8
ENDBRANCH   1   2
BRANCH   1  20
ATOM     19  O   UNL     1       2.265   7.699  20.681  0.00  0.00    +0.000 OA
ATOM     20  C   UNL     1       1.835   7.930  19.552  0.00  0.00    +0.000 C 
ATOM     21  N   UNL     1       2.217   7.227  18.433  0.00  0.00    +0.000 N 
ATOM     22  H   UNL     1       1.648   7.338  17.595  0.00  0.00    +0.000 HD
BRANCH  21  23
ATOM     23  C   UNL     1       3.071   6.096  18.581  0.00  0.00    +0.000 C 
ATOM     24  C   UNL     1       3.915   5.729  17.359  0.00  0.00    +0.000 A 
ATOM     25  C   UNL     1       4.698   6.528  16.551  0.00  0.00    +0.000 A 
ATOM     26  C   UNL     1       5.872   5.964  16.058  0.00  0.00    +0.000 A 
ATOM     27  C   UNL     1       6.239   4.658  16.428  0.00  0.00    +0.000 A 
ATOM     28  C   UNL     1       5.324   3.817  17.066  0.00  0.00    +0.000 A 
ATOM     29  C   UNL     1       4.092   4.337  17.402  0.00  0.00    +0.000 A 
ATOM     30  C   UNL     1       2.962   3.767  18.093  0.00  0.00    +0.000 A 
ATOM     31  C   UNL     1       2.331   2.546  17.932  0.00  0.00    +0.000 A 
ATOM     32  C   UNL     1       1.193   2.289  18.700  0.00  0.00    +0.000 A 
ATOM     33  C   UNL     1       0.747   3.222  19.654  0.00  0.00    +0.000 A 
ATOM     34  C   UNL     1       1.342   4.482  19.754  0.00  0.00    +0.000 A 
ATOM     35  C   UNL     1       2.376   4.785  18.883  0.00  0.00    +0.000 A 
ENDBRANCH  21  23
ENDBRANCH   1  20
TORSDOF 6
ENDMDL
MODEL 2
REMARK VINA RESULT:      -9.0      0.649      1.065
REMARK  Name = 
REMARK  6 active torsions:
REMARK  status: ('A' for Active; 'I' for Inactive)
REMARK    1  A    between atoms: C_2  and  C_3
REMARK    2  A    between atoms: C_3  and  N_4
REMARK    3  A    between atoms: C_7  and  C_8
REMARK    4  A    between atoms: N_10  and  C_11
REMARK    5  A    between atoms: C_11  and  C_12
REMARK    6  A    between atoms: N_20  and  C_21
REMARK                            x       y       z     vdW  Elec       q    Type
REMARK                         _______ _______ _______ _____ _____    ______ ____
ROOT
ATOM      1  C   UNL     1       1.016   9.125  19.348  0.00  0.00    +0.000 C 
ENDROOT
BRANCH   1   2
ATOM      2  N   UNL     1       0.932  10.015  20.530  0.00  0.00    +0.000 NA
ATOM      3  C   UNL     1       0.732  11.415  20.102  0.00  0.00    +0.000 C 
ATOM      4  C   UNL     1       0.558  12.339  21.306  0.00  0.00    +0.000 C 
ATOM      5  C   UNL     1      -0.628  11.917  22.172  0.00  0.00    +0.000 C 
ATOM      6  C   UNL     1      -0.462  10.444  22.562  0.00  0.00    +0.000 C 
ATOM      7  C   UNL     1      -0.214   9.555  21.342  0.00  0.00    +0.000 C 
BRANCH   5   8
ATOM      8  C   UNL     1      -1.985  12.157  21.493  0.00  0.00    +0.000 C 
ATOM      9  O   UNL     1      -2.947  12.622  22.082  0.00  0.00    +0.000 OA
ATOM     10  N   UNL     1      -2.009  11.853  20.151  0.00  0.00    +0.000 N 
ATOM     11  H   UNL     1      -1.183  11.508  19.688  0.00  0.00    +0.000 HD
BRANCH  10  12
ATOM     12  C   UNL     1      -3.181  12.103  19.340  0.00  0.00    +0.000 C 
BRANCH  12  13
ATOM     13  C   UNL     1      -3.122  11.345  18.041  0.00  0.00    +0.000 A 
ATOM     14  C   UNL     1      -2.116  10.392  17.824  0.00  0.00    +0.000 A 
ATOM     15  C   UNL     1      -2.068   9.669  16.627  0.00  0.00    +0.000 A 
ATOM     16  C   UNL     1      -3.022   9.896  15.634  0.00  0.00    +0.000 A 
ATOM     17  C   UNL     1      -4.018  10.863  15.835  0.00  0.00    +0.000 A 
ATOM     18  C   UNL     1      -4.062  11.581  17.027  0.00  0.00    +0.000 A 
ENDBRANCH  12  13
ENDBRANCH  10  12
ENDBRANCH   5   8
ENDBRANCH   1   2
BRANCH   1  20
ATOM     19  O   UNL     1       2.296   7.602  20.718  0.00  0.00    +0.000 OA
ATOM     20  C   UNL     1       1.920   7.909  19.588  0.00  0.00    +0.000 C 
ATOM     21  N   UNL     1       2.314   7.248  18.447  0.00  0.00    +0.000 N 
ATOM     22  H   UNL     1       1.781   7.427  17.596  0.00  0.00    +0.000 HD
BRANCH  21  23
ATOM     23  C   UNL     1       3.113   6.075  18.566  0.00  0.00    +0.000 C 
ATOM     24  C   UNL     1       3.898   5.671  17.317  0.00  0.00    +0.000 A 
ATOM     25  C   UNL     1       4.695   6.433  16.486  0.00  0.00    +0.000 A 
ATOM     26  C   UNL     1       5.823   5.811  15.954  0.00  0.00    +0.000 A 
ATOM     27  C   UNL     1       6.135   4.487  16.310  0.00  0.00    +0.000 A 
ATOM     28  C   UNL     1       5.199   3.691  16.975  0.00  0.00    +0.000 A 
ATOM     29  C   UNL     1       4.007   4.271  17.351  0.00  0.00    +0.000 A 
ATOM     30  C   UNL     1       2.872   3.757  18.076  0.00  0.00    +0.000 A 
ATOM     31  C   UNL     1       2.174   2.570  17.932  0.00  0.00    +0.000 A 
ATOM     32  C   UNL     1       1.049   2.368  18.736  0.00  0.00    +0.000 A 
ATOM     33  C   UNL     1       0.682   3.318  19.706  0.00  0.00    +0.000 A 
ATOM     34  C   UNL     1       1.343   4.546  19.789  0.00  0.00    +0.000 A 
ATOM     35  C   UNL     1       2.363   4.800  18.886  0.00  0.00    +0.000 A 
ENDBRANCH  21  23
ENDBRANCH   1  20
TORSDOF 6
ENDMDL
MODEL 3
REMARK VINA RESULT:      -8.9      1.808      3.680
REMARK  Name = 
REMARK  6 active torsions:
REMARK  status: ('A' for Active; 'I' for Inactive)
REMARK    1  A    between atoms: C_2  and  C_3
REMARK    2  A    between atoms: C_3  and  N_4
REMARK    3  A    between atoms: C_7  and  C_8
REMARK    4  A    between atoms: N_10  and  C_11
REMARK    5  A    between atoms: C_11  and  C_12
REMARK    6  A    between atoms: N_20  and  C_21
REMARK                            x       y       z     vdW  Elec       q    Type
REMARK                         _______ _______ _______ _____ _____    ______ ____
ROOT
ATOM      1  C   UNL     1       1.406   9.111  22.279  0.00  0.00    +0.000 C 
ENDROOT
BRANCH   1   2
ATOM      2  N   UNL     1       1.127  10.489  21.813  0.00  0.00    +0.000 NA
ATOM      3  C   UNL     1       1.370  10.597  20.359  0.00  0.00    +0.000 C 
ATOM      4  C   UNL     1       1.007  11.987  19.841  0.00  0.00    +0.000 C 
ATOM      5  C   UNL     1      -0.456  12.327  20.120  0.00  0.00    +0.000 C 
ATOM      6  C   UNL     1      -0.733  12.150  21.617  0.00  0.00    +0.000 C 
ATOM      7  C   UNL     1      -0.291  10.776  22.121  0.00  0.00    +0.000 C 
BRANCH   5   8
ATOM      8  C   UNL     1      -1.438  11.498  19.277  0.00  0.00    +0.000 C 
ATOM      9  O   UNL     1      -1.327  10.292  19.127  0.00  0.00    +0.000 OA
ATOM     10  N   UNL     1      -2.482  12.221  18.747  0.00  0.00    +0.000 N 
ATOM     11  H   UNL     1      -2.564  13.210  18.924  0.00  0.00    +0.000 HD
BRANCH  10  12
ATOM     12  C   UNL     1      -3.544  11.580  18.001  0.00  0.00    +0.000 C 
BRANCH  12  13
ATOM     13  C   UNL     1      -4.826  11.547  18.791  0.00  0.00    +0.000 A 
ATOM     14  C   UNL     1      -4.996  12.391  19.898  0.00  0.00    +0.000 A 
ATOM     15  C   UNL     1      -6.192  12.379  20.624  0.00  0.00    +0.000 A 
ATOM     16  C   UNL     1      -7.227  11.520  20.252  0.00  0.00    +0.000 A 
ATOM     17  C   UNL     1      -7.055  10.656  19.159  0.00  0.00    +0.000 A 
ATOM     18  C   UNL     1      -5.863  10.671  18.440  0.00  0.00    +0.000 A 
ENDBRANCH  12  13
ENDBRANCH  10  12
ENDBRANCH   5   8
ENDBRANCH   1   2
BRANCH   1  20
ATOM     19  O   UNL     1      -0.111   7.719  21.016  0.00  0.00    +0.000 OA
ATOM     20  C   UNL     1       1.054   8.050  21.228  0.00  0.00    +0.000 C 
ATOM     21  N   UNL     1       2.137   7.471  20.608  0.00  0.00    +0.000 N 
ATOM     22  H   UNL     1       3.030   7.957  20.676  0.00  0.00    +0.000 HD
BRANCH  21  23
ATOM     23  C   UNL     1       1.914   6.510  19.579  0.00  0.00    +0.000 C 
ATOM     24  C   UNL     1       2.051   5.044  19.993  0.00  0.00    +0.000 A 
ATOM     25  C   UNL     1       1.520   4.376  21.078  0.00  0.00    +0.000 A 
ATOM     26  C   UNL     1       1.131   3.054  20.873  0.00  0.00    +0.000 A 
ATOM     27  C   UNL     1       1.239   2.474  19.597  0.00  0.00    +0.000 A 
ATOM     28  C   UNL     1       1.973   3.107  18.589  0.00  0.00    +0.000 A 
ATOM     29  C   UNL     1       2.502   4.351  18.858  0.00  0.00    +0.000 A 
ATOM     30  C   UNL     1       3.252   5.274  18.044  0.00  0.00    +0.000 A 
ATOM     31  C   UNL     1       4.337   5.064  17.210  0.00  0.00    +0.000 A 
ATOM     32  C   UNL     1       4.918   6.176  16.596  0.00  0.00    +0.000 A 
ATOM     33  C   UNL     1       4.370   7.460  16.773  0.00  0.00    +0.000 A 
ATOM     34  C   UNL     1       3.327   7.673  17.677  0.00  0.00    +0.000 A 
ATOM     35  C   UNL     1       2.855   6.587  18.395  0.00  0.00    +0.000 A 
ENDBRANCH  21  23
ENDBRANCH   1  20
TORSDOF 6
ENDMDL
MODEL 4
REMARK VINA RESULT:      -8.8      1.986      9.432
REMARK  Name = 
REMARK  6 active torsions:
REMARK  status: ('A' for Active; 'I' for Inactive)
REMARK    1  A    between atoms: C_2  and  C_3
REMARK    2  A    between atoms: C_3  and  N_4
REMARK    3  A    between atoms: C_7  and  C_8
REMARK    4  A    between atoms: N_10  and  C_11
REMARK    5  A    between atoms: C_11  and  C_12
REMARK    6  A    between atoms: N_20  and  C_21
REMARK                            x       y       z     vdW  Elec       q    Type
REMARK                         _______ _______ _______ _____ _____    ______ ____
ROOT
ATOM      1  C   UNL     1       2.247   7.515  20.253  0.00  0.00    +0.000 C 
ENDROOT
BRANCH   1   2
ATOM      2  N   UNL     1       1.753   6.233  19.700  0.00  0.00    +0.000 NA
ATOM      3  C   UNL     1       2.144   6.104  18.281  0.00  0.00    +0.000 C 
ATOM      4  C   UNL     1       1.719   4.751  17.713  0.00  0.00    +0.000 C 
ATOM      5  C   UNL     1       2.333   3.593  18.499  0.00  0.00    +0.000 C 
ATOM      6  C   UNL     1       1.990   3.759  19.983  0.00  0.00    +0.000 C 
ATOM      7  C   UNL     1       2.359   5.149  20.503  0.00  0.00    +0.000 C 
BRANCH   5   8
ATOM      8  C   UNL     1       3.851   3.467  18.295  0.00  0.00    +0.000 C 
ATOM      9  O   UNL     1       4.572   2.845  19.059  0.00  0.00    +0.000 OA
ATOM     10  N   UNL     1       4.323   4.071  17.152  0.00  0.00    +0.000 N 
ATOM     11  H   UNL     1       3.691   4.542  16.523  0.00  0.00    +0.000 HD
BRANCH  10  12
ATOM     12  C   UNL     1       5.713   3.972  16.763  0.00  0.00    +0.000 C 
BRANCH  12  13
ATOM     13  C   UNL     1       6.527   5.098  17.342  0.00  0.00    +0.000 A 
ATOM     14  C   UNL     1       6.507   6.366  16.741  0.00  0.00    +0.000 A 
ATOM     15  C   UNL     1       7.244   7.422  17.286  0.00  0.00    +0.000 A 
ATOM     16  C   UNL     1       8.013   7.220  18.433  0.00  0.00    +0.000 A 
ATOM     17  C   UNL     1       8.056   5.949  19.026  0.00  0.00    +0.000 A 
ATOM     18  C   UNL     1       7.321   4.900  18.480  0.00  0.00    +0.000 A 
ENDBRANCH  12  13
ENDBRANCH  10  12
ENDBRANCH   5   8
ENDBRANCH   1   2
BRANCH   1  20
ATOM     19  O   UNL     1       0.502   8.490  21.610  0.00  0.00    +0.000 OA
ATOM     20  C   UNL     1       1.114   8.509  20.543  0.00  0.00    +0.000 C 
ATOM     21  N   UNL     1       0.811   9.358  19.504  0.00  0.00    +0.000 N 
ATOM     22  H   UNL     1       1.504   9.457  18.764  0.00  0.00    +0.000 HD
BRANCH  21  23
ATOM     23  C   UNL     1      -0.192  10.352  19.692  0.00  0.00    +0.000 C 
ATOM     24  C   UNL     1      -1.204  10.504  18.555  0.00  0.00    +0.000 A 
ATOM     25  C   UNL     1      -1.929   9.543  17.879  0.00  0.00    +0.000 A 
ATOM     26  C   UNL     1      -3.222   9.888  17.493  0.00  0.00    +0.000 A 
ATOM     27  C   UNL     1      -3.753  11.143  17.837  0.00  0.00    +0.000 A 
ATOM     28  C   UNL     1      -2.923  12.155  18.328  0.00  0.00    +0.000 A 
ATOM     29  C   UNL     1      -1.596  11.853  18.550  0.00  0.00    +0.000 A 
ATOM     30  C   UNL     1      -0.507  12.633  19.081  0.00  0.00    +0.000 A 
ATOM     31  C   UNL     1      -0.098  13.923  18.791  0.00  0.00    +0.000 A 
ATOM     32  C   UNL     1       1.058  14.401  19.415  0.00  0.00    +0.000 A 
ATOM     33  C   UNL     1       1.741  13.612  20.358  0.00  0.00    +0.000 A 
ATOM     34  C   UNL     1       1.368  12.286  20.584  0.00  0.00    +0.000 A 
ATOM     35  C   UNL     1       0.312  11.771  19.850  0.00  0.00    +0.000 A 
ENDBRANCH  21  23
ENDBRANCH   1  20
TORSDOF 6
ENDMDL
MODEL 5
REMARK VINA RESULT:      -8.7      2.029      3.086
REMARK  Name = 
REMARK  6 active torsions:
REMARK  status: ('A' for Active; 'I' for Inactive)
REMARK    1  A    between atoms: C_2  and  C_3
REMARK    2  A    between atoms: C_3  and  N_4
REMARK    3  A    between atoms: C_7  and  C_8
REMARK    4  A    between atoms: N_10  and  C_11
REMARK    5  A    between atoms: C_11  and  C_12
REMARK    6  A    between atoms: N_20  and  C_21
REMARK                            x       y       z     vdW  Elec       q    Type
REMARK                         _______ _______ _______ _____ _____    ______ ____
ROOT
ATOM      1  C   UNL     1       0.636   9.401  19.708  0.00  0.00    +0.000 C 
ENDROOT
BRANCH   1   2
ATOM      2  N   UNL     1       0.673  10.450  20.755  0.00  0.00    +0.000 NA
ATOM      3  C   UNL     1       0.803  11.785  20.136  0.00  0.00    +0.000 C 
ATOM      4  C   UNL     1       0.758  12.888  21.192  0.00  0.00    +0.000 C 
ATOM      5  C   UNL     1      -0.540  12.845  21.996  0.00  0.00    +0.000 C 
ATOM      6  C   UNL     1      -0.717  11.440  22.583  0.00  0.00    +0.000 C 
ATOM      7  C   UNL     1      -0.592  10.354  21.514  0.00  0.00    +0.000 C 
BRANCH   5   8
ATOM      8  C   UNL     1      -1.771  13.256  21.173  0.00  0.00    +0.000 C 
ATOM      9  O   UNL     1      -1.709  14.025  20.227  0.00  0.00    +0.000 OA
ATOM     10  N   UNL     1      -2.942  12.645  21.559  0.00  0.00    +0.000 N 
ATOM     11  H   UNL     1      -2.949  11.984  22.320  0.00  0.00    +0.000 HD
BRANCH  10  12
ATOM     12  C   UNL     1      -4.178  12.851  20.834  0.00  0.00    +0.000 C 
BRANCH  12  13
ATOM     13  C   UNL     1      -5.374  12.707  21.737  0.00  0.00    +0.000 A 
ATOM     14  C   UNL     1      -5.269  13.006  23.103  0.00  0.00    +0.000 A 
ATOM     15  C   UNL     1      -6.382  12.893  23.943  0.00  0.00    +0.000 A 
ATOM     16  C   UNL     1      -7.609  12.476  23.426  0.00  0.00    +0.000 A 
ATOM     17  C   UNL     1      -7.716  12.154  22.064  0.00  0.00    +0.000 A 
ATOM     18  C   UNL     1      -6.606  12.267  21.232  0.00  0.00    +0.000 A 
ENDBRANCH  12  13
ENDBRANCH  10  12
ENDBRANCH   5   8
ENDBRANCH   1   2
BRANCH   1  20
ATOM     19  O   UNL     1       2.073   8.050  21.102  0.00  0.00    +0.000 OA
ATOM     20  C   UNL     1       1.634   8.267  19.973  0.00  0.00    +0.000 C 
ATOM     21  N   UNL     1       2.032   7.574  18.854  0.00  0.00    +0.000 N 
ATOM     22  H   UNL     1       1.457   7.668  18.017  0.00  0.00    +0.000 HD
BRANCH  21  23
ATOM     23  C   UNL     1       2.918   6.468  19.001  0.00  0.00    +0.000 C 
ATOM     24  C   UNL     1       3.743   6.103  17.765  0.00  0.00    +0.000 A 
ATOM     25  C   UNL     1       4.487   6.909  16.927  0.00  0.00    +0.000 A 
ATOM     26  C   UNL     1       5.664   6.367  16.416  0.00  0.00    +0.000 A 
ATOM     27  C   UNL     1       6.074   5.077  16.798  0.00  0.00    +0.000 A 
ATOM     28  C   UNL     1       5.195   4.223  17.471  0.00  0.00    +0.000 A 
ATOM     29  C   UNL     1       3.959   4.717  17.827  0.00  0.00    +0.000 A 
ATOM     30  C   UNL     1       2.860   4.129  18.552  0.00  0.00    +0.000 A 
ATOM     31  C   UNL     1       2.257   2.890  18.425  0.00  0.00    +0.000 A 
ATOM     32  C   UNL     1       1.144   2.616  19.223  0.00  0.00    +0.000 A 
ATOM     33  C   UNL     1       0.696   3.553  20.172  0.00  0.00    +0.000 A 
ATOM     34  C   UNL     1       1.259   4.829  20.238  0.00  0.00    +0.000 A 
ATOM     35  C   UNL     1       2.265   5.145  19.339  0.00  0.00    +0.000 A 
ENDBRANCH  21  23
ENDBRANCH   1  20
TORSDOF 6
ENDMDL
MODEL 6
REMARK VINA RESULT:      -8.6      2.406      3.954
REMARK  Name = 
REMARK  6 active torsions:
REMARK  status: ('A' for Active; 'I' for Inactive)
REMARK    1  A    between atoms: C_2  and  C_3
REMARK    2  A    between atoms: C_3  and  N_4
REMARK    3  A    between atoms: C_7  and  C_8
REMARK    4  A    between atoms: N_10  and  C_11
REMARK    5  A    between atoms: C_11  and  C_12
REMARK    6  A    between atoms: N_20  and  C_21
REMARK                            x       y       z     vdW  Elec       q    Type
REMARK                         _______ _______ _______ _____ _____    ______ ____
ROOT
ATOM      1  C   UNL     1       1.181   9.259  18.098  0.00  0.00    +0.000 C 
ENDROOT
BRANCH   1   2
ATOM      2  N   UNL     1       0.247   9.890  19.060  0.00  0.00    +0.000 NA
ATOM      3  C   UNL     1       0.958  10.896  19.877  0.00  0.00    +0.000 C 
ATOM      4  C   UNL     1      -0.003  11.620  20.817  0.00  0.00    +0.000 C 
ATOM      5  C   UNL     1      -1.124  12.318  20.049  0.00  0.00    +0.000 C 
ATOM      6  C   UNL     1      -1.821  11.294  19.146  0.00  0.00    +0.000 C 
ATOM      7  C   UNL     1      -0.825  10.532  18.270  0.00  0.00    +0.000 C 
BRANCH   5   8
ATOM      8  C   UNL     1      -0.635  13.526  19.235  0.00  0.00    +0.000 C 
ATOM      9  O   UNL     1      -0.722  13.585  18.019  0.00  0.00    +0.000 OA
ATOM     10  N   UNL     1      -0.137  14.559  19.996  0.00  0.00    +0.000 N 
ATOM     11  H   UNL     1      -0.117  14.491  21.002  0.00  0.00    +0.000 HD
BRANCH  10  12
ATOM     12  C   UNL     1       0.284  15.806  19.396  0.00  0.00    +0.000 C 
BRANCH  12  13
ATOM     13  C   UNL     1       1.729  15.753  18.974  0.00  0.00    +0.000 A 
ATOM     14  C   UNL     1       2.224  16.665  18.030  0.00  0.00    +0.000 A 
ATOM     15  C   UNL     1       3.569  16.634  17.650  0.00  0.00    +0.000 A 
ATOM     16  C   UNL     1       4.431  15.687  18.205  0.00  0.00    +0.000 A 
ATOM     17  C   UNL     1       3.938  14.757  19.132  0.00  0.00    +0.000 A 
ATOM     18  C   UNL     1       2.598  14.791  19.508  0.00  0.00    +0.000 A 
ENDBRANCH  12  13
ENDBRANCH  10  12
ENDBRANCH   5   8
ENDBRANCH   1   2
BRANCH   1  20
ATOM     19  O   UNL     1       2.014   7.959  19.956  0.00  0.00    +0.000 OA
ATOM     20  C   UNL     1       2.045   8.168  18.744  0.00  0.00    +0.000 C 
ATOM     21  N   UNL     1       2.884   7.507  17.877  0.00  0.00    +0.000 N 
ATOM     22  H   UNL     1       2.681   7.583  16.881  0.00  0.00    +0.000 HD
BRANCH  21  23
ATOM     23  C   UNL     1       3.691   6.441  18.370  0.00  0.00    +0.000 C 
ATOM     24  C   UNL     1       5.016   6.212  17.639  0.00  0.00    +0.000 A 
ATOM     25  C   UNL     1       5.993   7.115  17.271  0.00  0.00    +0.000 A 
ATOM     26  C   UNL     1       7.312   6.675  17.338  0.00  0.00    +0.000 A 
ATOM     27  C   UNL     1       7.605   5.384  17.812  0.00  0.00    +0.000 A 
ATOM     28  C   UNL     1       6.588   4.438  17.969  0.00  0.00    +0.000 A 
ATOM     29  C   UNL     1       5.290   4.838  17.736  0.00  0.00    +0.000 A 
ATOM     30  C   UNL     1       4.033   4.142  17.849  0.00  0.00    +0.000 A 
ATOM     31  C   UNL     1       3.656   2.886  17.408  0.00  0.00    +0.000 A 
ATOM     32  C   UNL     1       2.327   2.496  17.592  0.00  0.00    +0.000 A 
ATOM     33  C   UNL     1       1.422   3.335  18.266  0.00  0.00    +0.000 A 
ATOM     34  C   UNL     1       1.789   4.631  18.636  0.00  0.00    +0.000 A 
ATOM     35  C   UNL     1       3.065   5.064  18.315  0.00  0.00    +0.000 A 
ENDBRANCH  21  23
ENDBRANCH   1  20
TORSDOF 6
ENDMDL
MODEL 7
REMARK VINA RESULT:      -8.6      2.177      4.383
REMARK  Name = 
REMARK  6 active torsions:
REMARK  status: ('A' for Active; 'I' for Inactive)
REMARK    1  A    between atoms: C_2  and  C_3
REMARK    2  A    between atoms: C_3  and  N_4
REMARK    3  A    between atoms: C_7  and  C_8
REMARK    4  A    between atoms: N_10  and  C_11
REMARK    5  A    between atoms: C_11  and  C_12
REMARK    6  A    between atoms: N_20  and  C_21
REMARK                            x       y       z     vdW  Elec       q    Type
REMARK                         _______ _______ _______ _____ _____    ______ ____
ROOT
ATOM      1  C   UNL     1       1.545   9.468  19.518  0.00  0.00    +0.000 C 
ENDROOT
BRANCH   1   2
ATOM      2  N   UNL     1       0.753  10.577  18.936  0.00  0.00    +0.000 NA
ATOM      3  C   UNL     1      -0.656  10.481  19.369  0.00  0.00    +0.000 C 
ATOM      4  C   UNL     1      -1.474  11.662  18.851  0.00  0.00    +0.000 C 
ATOM      5  C   UNL     1      -0.903  12.996  19.332  0.00  0.00    +0.000 C 
ATOM      6  C   UNL     1       0.579  13.072  18.947  0.00  0.00    +0.000 C 
ATOM      7  C   UNL     1       1.355  11.840  19.415  0.00  0.00    +0.000 C 
BRANCH   5   8
ATOM      8  C   UNL     1      -1.092  13.222  20.840  0.00  0.00    +0.000 C 
ATOM      9  O   UNL     1      -0.739  14.244  21.406  0.00  0.00    +0.000 OA
ATOM     10  N   UNL     1      -1.740  12.197  21.491  0.00  0.00    +0.000 N 
ATOM     11  H   UNL     1      -2.053  11.383  20.984  0.00  0.00    +0.000 HD
BRANCH  10  12
ATOM     12  C   UNL     1      -2.078  12.286  22.896  0.00  0.00    +0.000 C 
BRANCH  12  13
ATOM     13  C   UNL     1      -3.558  12.479  23.093  0.00  0.00    +0.000 A 
ATOM     14  C   UNL     1      -4.117  12.398  24.377  0.00  0.00    +0.000 A 
ATOM     15  C   UNL     1      -5.488  12.596  24.569  0.00  0.00    +0.000 A 
ATOM     16  C   UNL     1      -6.314  12.871  23.479  0.00  0.00    +0.000 A 
ATOM     17  C   UNL     1      -5.766  12.931  22.189  0.00  0.00    +0.000 A 
ATOM     18  C   UNL     1      -4.401  12.733  22.001  0.00  0.00    +0.000 A 
ENDBRANCH  12  13
ENDBRANCH  10  12
ENDBRANCH   5   8
ENDBRANCH   1   2
BRANCH   1  20
ATOM     19  O   UNL     1       1.744   8.595  17.274  0.00  0.00    +0.000 OA
ATOM     20  C   UNL     1       1.938   8.413  18.475  0.00  0.00    +0.000 C 
ATOM     21  N   UNL     1       2.454   7.250  18.996  0.00  0.00    +0.000 N 
ATOM     22  H   UNL     1       2.786   7.276  19.959  0.00  0.00    +0.000 HD
BRANCH  21  23
ATOM     23  C   UNL     1       2.897   6.228  18.107  0.00  0.00    +0.000 C 
ATOM     24  C   UNL     1       2.671   4.789  18.576  0.00  0.00    +0.000 A 
ATOM     25  C   UNL     1       1.539   4.194  19.095  0.00  0.00    +0.000 A 
ATOM     26  C   UNL     1       1.311   2.865  18.746  0.00  0.00    +0.000 A 
ATOM     27  C   UNL     1       2.184   2.206  17.862  0.00  0.00    +0.000 A 
ATOM     28  C   UNL     1       3.420   2.769  17.533  0.00  0.00    +0.000 A 
ATOM     29  C   UNL     1       3.711   4.024  18.024  0.00  0.00    +0.000 A 
ATOM     30  C   UNL     1       4.849   4.889  17.842  0.00  0.00    +0.000 A 
ATOM     31  C   UNL     1       6.205   4.619  17.908  0.00  0.00    +0.000 A 
ATOM     32  C   UNL     1       7.095   5.687  17.761  0.00  0.00    +0.000 A 
ATOM     33  C   UNL     1       6.620   6.983  17.490  0.00  0.00    +0.000 A 
ATOM     34  C   UNL     1       5.251   7.260  17.505  0.00  0.00    +0.000 A 
ATOM     35  C   UNL     1       4.380   6.224  17.800  0.00  0.00    +0.000 A 
ENDBRANCH  21  23
ENDBRANCH   1  20
TORSDOF 6
ENDMDL
MODEL 8
REMARK VINA RESULT:      -8.5      2.344      4.709
REMARK  Name = 
REMARK  6 active torsions:
REMARK  status: ('A' for Active; 'I' for Inactive)
REMARK    1  A    between atoms: C_2  and  C_3
REMARK    2  A    between atoms: C_3  and  N_4
REMARK    3  A    between atoms: C_7  and  C_8
REMARK    4  A    between atoms: N_10  and  C_11
REMARK    5  A    between atoms: C_11  and  C_12
REMARK    6  A    between atoms: N_20  and  C_21
REMARK                            x       y       z     vdW  Elec       q    Type
REMARK                         _______ _______ _______ _____ _____    ______ ____
ROOT
ATOM      1  C   UNL     1       1.850  10.029  19.212  0.00  0.00    +0.000 C 
ENDROOT
BRANCH   1   2
ATOM      2  N   UNL     1       0.559  10.410  19.831  0.00  0.00    +0.000 NA
ATOM      3  C   UNL     1       0.753  10.737  21.258  0.00  0.00    +0.000 C 
ATOM      4  C   UNL     1      -0.550  11.214  21.897  0.00  0.00    +0.000 C 
ATOM      5  C   UNL     1      -1.108  12.445  21.183  0.00  0.00    +0.000 C 
ATOM      6  C   UNL     1      -1.247  12.135  19.688  0.00  0.00    +0.000 C 
ATOM      7  C   UNL     1       0.053  11.588  19.095  0.00  0.00    +0.000 C 
BRANCH   5   8
ATOM      8  C   UNL     1      -0.260  13.706  21.407  0.00  0.00    +0.000 C 
ATOM      9  O   UNL     1       0.428  13.874  22.401  0.00  0.00    +0.000 OA
ATOM     10  N   UNL     1      -0.302  14.610  20.370  0.00  0.00    +0.000 N 
ATOM     11  H   UNL     1      -0.851  14.420  19.546  0.00  0.00    +0.000 HD
BRANCH  10  12
ATOM     12  C   UNL     1       0.507  15.810  20.379  0.00  0.00    +0.000 C 
BRANCH  12  13
ATOM     13  C   UNL     1       1.588  15.751  19.333  0.00  0.00    +0.000 A 
ATOM     14  C   UNL     1       2.377  14.599  19.195  0.00  0.00    +0.000 A 
ATOM     15  C   UNL     1       3.369  14.530  18.212  0.00  0.00    +0.000 A 
ATOM     16  C   UNL     1       3.586  15.614  17.359  0.00  0.00    +0.000 A 
ATOM     17  C   UNL     1       2.816  16.777  17.506  0.00  0.00    +0.000 A 
ATOM     18  C   UNL     1       1.829  16.843  18.486  0.00  0.00    +0.000 A 
ENDBRANCH  12  13
ENDBRANCH  10  12
ENDBRANCH   5   8
ENDBRANCH   1   2
BRANCH   1  20
ATOM     19  O   UNL     1       1.142   8.575  17.418  0.00  0.00    +0.000 OA
ATOM     20  C   UNL     1       1.775   8.690  18.466  0.00  0.00    +0.000 C 
ATOM     21  N   UNL     1       2.410   7.644  19.093  0.00  0.00    +0.000 N 
ATOM     22  H   UNL     1       3.087   7.875  19.819  0.00  0.00    +0.000 HD
BRANCH  21  23
ATOM     23  C   UNL     1       2.442   6.369  18.456  0.00  0.00    +0.000 C 
ATOM     24  C   UNL     1       2.316   5.156  19.379  0.00  0.00    +0.000 A 
ATOM     25  C   UNL     1       1.414   4.905  20.394  0.00  0.00    +0.000 A 
ATOM     26  C   UNL     1       0.999   3.585  20.553  0.00  0.00    +0.000 A 
ATOM     27  C   UNL     1       1.454   2.589  19.671  0.00  0.00    +0.000 A 
ATOM     28  C   UNL     1       2.518   2.842  18.801  0.00  0.00    +0.000 A 
ATOM     29  C   UNL     1       3.040   4.118  18.772  0.00  0.00    +0.000 A 
ATOM     30  C   UNL     1       4.085   4.713  17.976  0.00  0.00    +0.000 A 
ATOM     31  C   UNL     1       5.355   4.255  17.670  0.00  0.00    +0.000 A 
ATOM     32  C   UNL     1       6.193   5.092  16.929  0.00  0.00    +0.000 A 
ATOM     33  C   UNL     1       5.729   6.332  16.455  0.00  0.00    +0.000 A 
ATOM     34  C   UNL     1       4.476   6.819  16.835  0.00  0.00    +0.000 A 
ATOM     35  C   UNL     1       3.711   6.048  17.695  0.00  0.00    +0.000 A 
ENDBRANCH  21  23
ENDBRANCH   1  20
TORSDOF 6
ENDMDL
MODEL 9
REMARK VINA RESULT:      -8.5      1.232      1.608
REMARK  Name = 
REMARK  6 active torsions:
REMARK  status: ('A' for Active; 'I' for Inactive)
REMARK    1  A    between atoms: C_2  and  C_3
REMARK    2  A    between atoms: C_3  and  N_4
REMARK    3  A    between atoms: C_7  and  C_8
REMARK    4  A    between atoms: N_10  and  C_11
REMARK    5  A    between atoms: C_11  and  C_12
REMARK    6  A    between atoms: N_20  and  C_21
REMARK                            x       y       z     vdW  Elec       q    Type
REMARK                         _______ _______ _______ _____ _____    ______ ____
ROOT
ATOM      1  C   UNL     1       0.447   9.401  20.050  0.00  0.00    +0.000 C 
ENDROOT
BRANCH   1   2
ATOM      2  N   UNL     1       0.403  10.348  21.188  0.00  0.00    +0.000 NA
ATOM      3  C   UNL     1       0.067  11.706  20.711  0.00  0.00    +0.000 C 
ATOM      4  C   UNL     1      -0.067  12.682  21.878  0.00  0.00    +0.000 C 
ATOM      5  C   UNL     1      -1.139  12.231  22.869  0.00  0.00    +0.000 C 
ATOM      6  C   UNL     1      -0.835  10.797  23.315  0.00  0.00    +0.000 C 
ATOM      7  C   UNL     1      -0.632   9.859  22.124  0.00  0.00    +0.000 C 
BRANCH   5   8
ATOM      8  C   UNL     1      -2.564  12.342  22.305  0.00  0.00    +0.000 C 
ATOM      9  O   UNL     1      -3.549  11.955  22.913  0.00  0.00    +0.000 OA
ATOM     10  N   UNL     1      -2.643  12.960  21.078  0.00  0.00    +0.000 N 
ATOM     11  H   UNL     1      -1.812  13.303  20.622  0.00  0.00    +0.000 HD
BRANCH  10  12
ATOM     12  C   UNL     1      -3.917  13.225  20.445  0.00  0.00    +0.000 C 
BRANCH  12  13
ATOM     13  C   UNL     1      -4.120  12.354  19.233  0.00  0.00    +0.000 A 
ATOM     14  C   UNL     1      -3.025  11.717  18.630  0.00  0.00    +0.000 A 
ATOM     15  C   UNL     1      -3.210  10.891  17.516  0.00  0.00    +0.000 A 
ATOM     16  C   UNL     1      -4.488  10.698  16.992  0.00  0.00    +0.000 A 
ATOM     17  C   UNL     1      -5.585  11.350  17.577  0.00  0.00    +0.000 A 
ATOM     18  C   UNL     1      -5.397  12.172  18.685  0.00  0.00    +0.000 A 
ENDBRANCH  12  13
ENDBRANCH  10  12
ENDBRANCH   5   8
ENDBRANCH   1   2
BRANCH   1  20
ATOM     19  O   UNL     1       1.950   8.037  21.358  0.00  0.00    +0.000 OA
ATOM     20  C   UNL     1       1.480   8.286  20.249  0.00  0.00    +0.000 C 
ATOM     21  N   UNL     1       1.872   7.648  19.095  0.00  0.00    +0.000 N 
ATOM     22  H   UNL     1       1.276   7.757  18.275  0.00  0.00    +0.000 HD
BRANCH  21  23
ATOM     23  C   UNL     1       2.790   6.562  19.180  0.00  0.00    +0.000 C 
ATOM     24  C   UNL     1       3.619   6.287  17.924  0.00  0.00    +0.000 A 
ATOM     25  C   UNL     1       4.335   7.157  17.126  0.00  0.00    +0.000 A 
ATOM     26  C   UNL     1       5.524   6.677  16.583  0.00  0.00    +0.000 A 
ATOM     27  C   UNL     1       5.973   5.382  16.895  0.00  0.00    +0.000 A 
ATOM     28  C   UNL     1       5.123   4.468  17.525  0.00  0.00    +0.000 A 
ATOM     29  C   UNL     1       3.875   4.906  17.911  0.00  0.00    +0.000 A 
ATOM     30  C   UNL     1       2.797   4.249  18.609  0.00  0.00    +0.000 A 
ATOM     31  C   UNL     1       2.230   3.001  18.419  0.00  0.00    +0.000 A 
ATOM     32  C   UNL     1       1.129   2.654  19.206  0.00  0.00    +0.000 A 
ATOM     33  C   UNL     1       0.660   3.525  20.205  0.00  0.00    +0.000 A 
ATOM     34  C   UNL     1       1.186   4.812  20.336  0.00  0.00    +0.000 A 
ATOM     35  C   UNL     1       2.177   5.204  19.450  0.00  0.00    +0.000 A 
ENDBRANCH  21  23
ENDBRANCH   1  20
TORSDOF 6
ENDMDL
