MODEL 1
REMARK VINA RESULT:      -8.1      0.000      0.000
REMARK  Name = 
REMARK  7 active torsions:
REMARK  status: ('A' for Active; 'I' for Inactive)
REMARK    1  A    between atoms: C_2  and  C_15
REMARK    2  A    between atoms: N_3  and  C_4
REMARK    3  A    between atoms: C_4  and  C_5
REMARK    4  A    between atoms: C_5  and  C_6
REMARK    5  A    between atoms: C_5  and  C_9
REMARK    6  A    between atoms: C_6  and  O_8
REMARK    7  A    between atoms: C_19  and  N_20
REMARK                            x       y       z     vdW  Elec       q    Type
REMARK                         _______ _______ _______ _____ _____    ______ ____
ROOT
ATOM      1  O   UNL     1       5.636   4.139  19.123  0.00  0.00    +0.000 OA
ATOM      2  C   UNL     1       4.565   4.361  18.570  0.00  0.00    +0.000 C 
ATOM      3  N   UNL     1       4.363   4.153  17.222  0.00  0.00    +0.000 N 
ATOM      4  H   UNL     1       3.410   4.057  16.888  0.00  0.00    +0.000 HD
ENDROOT
BRANCH   2   5
ATOM      5  C   UNL     1       3.412   4.901  19.346  0.00  0.00    +0.000 A 
ATOM      6  C   UNL     1       2.835   4.076  20.313  0.00  0.00    +0.000 A 
ATOM      7  C   UNL     1       1.822   4.571  21.126  0.00  0.00    +0.000 A 
ATOM      8  C   UNL     1       1.402   5.899  20.994  0.00  0.00    +0.000 A 
ATOM      9  C   UNL     1       1.974   6.760  20.048  0.00  0.00    +0.000 A 
ATOM     10  C   UNL     1       2.977   6.234  19.210  0.00  0.00    +0.000 A 
BRANCH   9  11
ATOM     11  N   UNL     1       1.587   8.130  19.964  0.00  0.00    +0.000 N 
ATOM     12  C   UNL     1       1.186   8.908  21.113  0.00  0.00    +0.000 C 
ATOM     13  C   UNL     1       0.453  10.098  20.529  0.00  0.00    +0.000 C 
ATOM     14  C   UNL     1       1.140  10.317  19.197  0.00  0.00    +0.000 C 
ATOM     15  C   UNL     1       1.591   8.929  18.805  0.00  0.00    +0.000 C 
ATOM     16  O   UNL     1       1.930   8.645  17.667  0.00  0.00    +0.000 OA
ENDBRANCH   9  11
ENDBRANCH   2   5
BRANCH   3  17
ATOM     17  C   UNL     1       5.453   3.761  16.342  0.00  0.00    +0.000 C 
BRANCH  17  18
ATOM     18  C   UNL     1       6.150   4.908  15.587  0.00  0.00    +0.000 C 
BRANCH  18  19
ATOM     19  C   UNL     1       6.558   4.544  14.157  0.00  0.00    +0.000 A 
ATOM     20  C   UNL     1       5.820   3.572  13.461  0.00  0.00    +0.000 A 
ATOM     21  C   UNL     1       6.072   3.316  12.110  0.00  0.00    +0.000 A 
ATOM     22  C   UNL     1       7.058   4.029  11.435  0.00  0.00    +0.000 A 
ATOM     23  C   UNL     1       7.817   4.977  12.116  0.00  0.00    +0.000 A 
ATOM     24  C   UNL     1       7.580   5.224  13.467  0.00  0.00    +0.000 A 
ENDBRANCH  18  19
BRANCH  18  25
ATOM     25  C   UNL     1       7.333   5.386  16.427  0.00  0.00    +0.000 C 
ATOM     26  O   UNL     1       7.623   6.568  16.557  0.00  0.00    +0.000 OA
BRANCH  25  27
ATOM     27  O   UNL     1       8.005   4.436  17.118  0.00  0.00    +0.000 OA
ATOM     28  H   UNL     1       8.270   3.651  16.604  0.00  0.00    +0.000 HD
ENDBRANCH  25  27
ENDBRANCH  18  25
ENDBRANCH  17  18
ENDBRANCH   3  17
TORSDOF 7
ENDMDL
MODEL 2
REMARK VINA RESULT:      -8.0      2.285      4.029
REMARK  Name = 
REMARK  7 active torsions:
REMARK  status: ('A' for Active; 'I' for Inactive)
REMARK    1  A    between atoms: C_2  and  C_15
REMARK    2  A    between atoms: N_3  and  C_4
REMARK    3  A    between atoms: C_4  and  C_5
REMARK    4  A    between atoms: C_5  and  C_6
REMARK    5  A    between atoms: C_5  and  C_9
REMARK    6  A    between atoms: C_6  and  O_8
REMARK    7  A    between atoms: C_19  and  N_20
REMARK                            x       y       z     vdW  Elec       q    Type
REMARK                         _______ _______ _______ _____ _____    ______ ____
ROOT
ATOM      1  O   UNL     1       7.297   5.908  17.052  0.00  0.00    +0.000 OA
ATOM      2  C   UNL     1       6.180   5.616  16.638  0.00  0.00    +0.000 C 
ATOM      3  N   UNL     1       5.976   4.937  15.456  0.00  0.00    +0.000 N 
ATOM      4  H   UNL     1       5.089   4.464  15.321  0.00  0.00    +0.000 HD
ENDROOT
BRANCH   2   5
ATOM      5  C   UNL     1       4.964   6.012  17.405  0.00  0.00    +0.000 A 
ATOM      6  C   UNL     1       4.454   7.295  17.201  0.00  0.00    +0.000 A 
ATOM      7  C   UNL     1       3.270   7.673  17.820  0.00  0.00    +0.000 A 
ATOM      8  C   UNL     1       2.575   6.761  18.623  0.00  0.00    +0.000 A 
ATOM      9  C   UNL     1       3.047   5.458  18.832  0.00  0.00    +0.000 A 
ATOM     10  C   UNL     1       4.267   5.101  18.223  0.00  0.00    +0.000 A 
BRANCH   9  11
ATOM     11  N   UNL     1       2.300   4.514  19.596  0.00  0.00    +0.000 N 
ATOM     12  C   UNL     1       2.252   4.529  21.040  0.00  0.00    +0.000 C 
ATOM     13  C   UNL     1       1.757   3.149  21.418  0.00  0.00    +0.000 C 
ATOM     14  C   UNL     1       0.859   2.766  20.259  0.00  0.00    +0.000 C 
ATOM     15  C   UNL     1       1.475   3.494  19.086  0.00  0.00    +0.000 C 
ATOM     16  O   UNL     1       1.211   3.214  17.927  0.00  0.00    +0.000 OA
ENDBRANCH   9  11
ENDBRANCH   2   5
BRANCH   3  17
ATOM     17  C   UNL     1       7.078   4.623  14.560  0.00  0.00    +0.000 C 
BRANCH  17  18
ATOM     18  C   UNL     1       6.842   4.936  13.071  0.00  0.00    +0.000 C 
BRANCH  18  19
ATOM     19  C   UNL     1       6.583   3.694  12.215  0.00  0.00    +0.000 A 
ATOM     20  C   UNL     1       7.676   2.980  11.695  0.00  0.00    +0.000 A 
ATOM     21  C   UNL     1       7.485   1.766  11.031  0.00  0.00    +0.000 A 
ATOM     22  C   UNL     1       6.203   1.244  10.881  0.00  0.00    +0.000 A 
ATOM     23  C   UNL     1       5.107   1.951  11.366  0.00  0.00    +0.000 A 
ATOM     24  C   UNL     1       5.291   3.171  12.015  0.00  0.00    +0.000 A 
ENDBRANCH  18  19
BRANCH  18  25
ATOM     25  C   UNL     1       8.021   5.761  12.561  0.00  0.00    +0.000 C 
ATOM     26  O   UNL     1       7.990   6.392  11.512  0.00  0.00    +0.000 OA
BRANCH  25  27
ATOM     27  O   UNL     1       9.095   5.849  13.381  0.00  0.00    +0.000 OA
ATOM     28  H   UNL     1       9.472   6.742  13.484  0.00  0.00    +0.000 HD
ENDBRANCH  25  27
ENDBRANCH  18  25
ENDBRANCH  17  18
ENDBRANCH   3  17
TORSDOF 7
ENDMDL
MODEL 3
REMARK VINA RESULT:      -8.0      2.702      4.303
REMARK  Name = 
REMARK  7 active torsions:
REMARK  status: ('A' for Active; 'I' for Inactive)
REMARK    1  A    between atoms: C_2  and  C_15
REMARK    2  A    between atoms: N_3  and  C_4
REMARK    3  A    between atoms: C_4  and  C_5
REMARK    4  A    between atoms: C_5  and  C_6
REMARK    5  A    between atoms: C_5  and  C_9
REMARK    6  A    between atoms: C_6  and  O_8
REMARK    7  A    between atoms: C_19  and  N_20
REMARK                            x       y       z     vdW  Elec       q    Type
REMARK                         _______ _______ _______ _____ _____    ______ ____
ROOT
ATOM      1  O   UNL     1       1.844   5.689  20.969  0.00  0.00    +0.000 OA
ATOM      2  C   UNL     1       2.354   6.263  20.013  0.00  0.00    +0.000 C 
ATOM      3  N   UNL     1       3.310   5.676  19.213  0.00  0.00    +0.000 N 
ATOM      4  H   UNL     1       3.464   6.061  18.287  0.00  0.00    +0.000 HD
ENDROOT
BRANCH   2   5
ATOM      5  C   UNL     1       1.967   7.664  19.680  0.00  0.00    +0.000 A 
ATOM      6  C   UNL     1       2.196   8.111  18.378  0.00  0.00    +0.000 A 
ATOM      7  C   UNL     1       1.764   9.375  17.996  0.00  0.00    +0.000 A 
ATOM      8  C   UNL     1       1.077  10.187  18.906  0.00  0.00    +0.000 A 
ATOM      9  C   UNL     1       0.812   9.761  20.214  0.00  0.00    +0.000 A 
ATOM     10  C   UNL     1       1.285   8.489  20.595  0.00  0.00    +0.000 A 
BRANCH   9  11
ATOM     11  N   UNL     1       0.054  10.566  21.116  0.00  0.00    +0.000 N 
ATOM     12  C   UNL     1      -0.241  11.959  20.872  0.00  0.00    +0.000 C 
ATOM     13  C   UNL     1      -0.639  12.505  22.228  0.00  0.00    +0.000 C 
ATOM     14  C   UNL     1      -1.280  11.315  22.913  0.00  0.00    +0.000 C 
ATOM     15  C   UNL     1      -0.556  10.134  22.308  0.00  0.00    +0.000 C 
ATOM     16  O   UNL     1      -0.587   9.020  22.807  0.00  0.00    +0.000 OA
ENDBRANCH   9  11
ENDBRANCH   2   5
BRANCH   3  17
ATOM     17  C   UNL     1       3.863   4.367  19.526  0.00  0.00    +0.000 C 
BRANCH  17  18
ATOM     18  C   UNL     1       4.082   3.428  18.325  0.00  0.00    +0.000 C 
BRANCH  18  19
ATOM     19  C   UNL     1       5.045   3.987  17.274  0.00  0.00    +0.000 A 
ATOM     20  C   UNL     1       6.315   4.430  17.677  0.00  0.00    +0.000 A 
ATOM     21  C   UNL     1       7.271   4.814  16.731  0.00  0.00    +0.000 A 
ATOM     22  C   UNL     1       6.973   4.754  15.372  0.00  0.00    +0.000 A 
ATOM     23  C   UNL     1       5.710   4.343  14.957  0.00  0.00    +0.000 A 
ATOM     24  C   UNL     1       4.749   3.976  15.898  0.00  0.00    +0.000 A 
ENDBRANCH  18  19
BRANCH  18  25
ATOM     25  C   UNL     1       2.717   3.075  17.737  0.00  0.00    +0.000 C 
ATOM     26  O   UNL     1       1.911   3.920  17.369  0.00  0.00    +0.000 OA
BRANCH  25  27
ATOM     27  O   UNL     1       2.466   1.760  17.541  0.00  0.00    +0.000 OA
ATOM     28  H   UNL     1       1.764   1.378  18.101  0.00  0.00    +0.000 HD
ENDBRANCH  25  27
ENDBRANCH  18  25
ENDBRANCH  17  18
ENDBRANCH   3  17
TORSDOF 7
ENDMDL
MODEL 4
REMARK VINA RESULT:      -7.9      2.314      3.960
REMARK  Name = 
REMARK  7 active torsions:
REMARK  status: ('A' for Active; 'I' for Inactive)
REMARK    1  A    between atoms: C_2  and  C_15
REMARK    2  A    between atoms: N_3  and  C_4
REMARK    3  A    between atoms: C_4  and  C_5
REMARK    4  A    between atoms: C_5  and  C_6
REMARK    5  A    between atoms: C_5  and  C_9
REMARK    6  A    between atoms: C_6  and  O_8
REMARK    7  A    between atoms: C_19  and  N_20
REMARK                            x       y       z     vdW  Elec       q    Type
REMARK                         _______ _______ _______ _____ _____    ______ ____
ROOT
ATOM      1  O   UNL     1       7.034   6.772  16.669  0.00  0.00    +0.000 OA
ATOM      2  C   UNL     1       6.039   6.066  16.545  0.00  0.00    +0.000 C 
ATOM      3  N   UNL     1       5.992   4.984  15.694  0.00  0.00    +0.000 N 
ATOM      4  H   UNL     1       5.283   4.276  15.856  0.00  0.00    +0.000 HD
ENDROOT
BRANCH   2   5
ATOM      5  C   UNL     1       4.798   6.372  17.314  0.00  0.00    +0.000 A 
ATOM      6  C   UNL     1       4.244   7.645  17.177  0.00  0.00    +0.000 A 
ATOM      7  C   UNL     1       3.037   7.943  17.798  0.00  0.00    +0.000 A 
ATOM      8  C   UNL     1       2.366   6.960  18.534  0.00  0.00    +0.000 A 
ATOM      9  C   UNL     1       2.883   5.666  18.675  0.00  0.00    +0.000 A 
ATOM     10  C   UNL     1       4.124   5.390  18.066  0.00  0.00    +0.000 A 
BRANCH   9  11
ATOM     11  N   UNL     1       2.161   4.651  19.371  0.00  0.00    +0.000 N 
ATOM     12  C   UNL     1       1.945   4.675  20.798  0.00  0.00    +0.000 C 
ATOM     13  C   UNL     1       1.565   3.252  21.149  0.00  0.00    +0.000 C 
ATOM     14  C   UNL     1       0.854   2.760  19.904  0.00  0.00    +0.000 C 
ATOM     15  C   UNL     1       1.518   3.541  18.793  0.00  0.00    +0.000 C 
ATOM     16  O   UNL     1       1.422   3.221  17.618  0.00  0.00    +0.000 OA
ENDBRANCH   9  11
ENDBRANCH   2   5
BRANCH   3  17
ATOM     17  C   UNL     1       7.094   4.675  14.796  0.00  0.00    +0.000 C 
BRANCH  17  18
ATOM     18  C   UNL     1       6.828   4.923  13.299  0.00  0.00    +0.000 C 
BRANCH  18  19
ATOM     19  C   UNL     1       6.557   3.644  12.503  0.00  0.00    +0.000 A 
ATOM     20  C   UNL     1       5.229   3.278  12.225  0.00  0.00    +0.000 A 
ATOM     21  C   UNL     1       4.947   2.199  11.383  0.00  0.00    +0.000 A 
ATOM     22  C   UNL     1       5.984   1.474  10.803  0.00  0.00    +0.000 A 
ATOM     23  C   UNL     1       7.305   1.806  11.088  0.00  0.00    +0.000 A 
ATOM     24  C   UNL     1       7.591   2.872  11.941  0.00  0.00    +0.000 A 
ENDBRANCH  18  19
BRANCH  18  25
ATOM     25  C   UNL     1       7.994   5.728  12.731  0.00  0.00    +0.000 C 
ATOM     26  O   UNL     1       9.040   5.908  13.341  0.00  0.00    +0.000 OA
BRANCH  25  27
ATOM     27  O   UNL     1       7.864   6.162  11.455  0.00  0.00    +0.000 OA
ATOM     28  H   UNL     1       6.948   6.275  11.142  0.00  0.00    +0.000 HD
ENDBRANCH  25  27
ENDBRANCH  18  25
ENDBRANCH  17  18
ENDBRANCH   3  17
TORSDOF 7
ENDMDL
MODEL 5
REMARK VINA RESULT:      -7.8      2.412      8.730
REMARK  Name = 
REMARK  7 active torsions:
REMARK  status: ('A' for Active; 'I' for Inactive)
REMARK    1  A    between atoms: C_2  and  C_15
REMARK    2  A    between atoms: N_3  and  C_4
REMARK    3  A    between atoms: C_4  and  C_5
REMARK    4  A    between atoms: C_5  and  C_6
REMARK    5  A    between atoms: C_5  and  C_9
REMARK    6  A    between atoms: C_6  and  O_8
REMARK    7  A    between atoms: C_19  and  N_20
REMARK                            x       y       z     vdW  Elec       q    Type
REMARK                         _______ _______ _______ _____ _____    ______ ____
ROOT
ATOM      1  O   UNL     1       2.032   8.746  18.821  0.00  0.00    +0.000 OA
ATOM      2  C   UNL     1       2.056   7.734  19.513  0.00  0.00    +0.000 C 
ATOM      3  N   UNL     1       1.739   7.740  20.854  0.00  0.00    +0.000 N 
ATOM      4  H   UNL     1       1.481   6.862  21.291  0.00  0.00    +0.000 HD
ENDROOT
BRANCH   2   5
ATOM      5  C   UNL     1       2.461   6.426  18.924  0.00  0.00    +0.000 A 
ATOM      6  C   UNL     1       1.535   5.382  18.956  0.00  0.00    +0.000 A 
ATOM      7  C   UNL     1       1.833   4.177  18.334  0.00  0.00    +0.000 A 
ATOM      8  C   UNL     1       3.046   4.018  17.655  0.00  0.00    +0.000 A 
ATOM      9  C   UNL     1       3.989   5.052  17.586  0.00  0.00    +0.000 A 
ATOM     10  C   UNL     1       3.686   6.258  18.248  0.00  0.00    +0.000 A 
BRANCH   9  11
ATOM     11  N   UNL     1       5.194   4.906  16.835  0.00  0.00    +0.000 N 
ATOM     12  C   UNL     1       5.267   5.130  15.410  0.00  0.00    +0.000 C 
ATOM     13  C   UNL     1       6.548   4.443  14.984  0.00  0.00    +0.000 C 
ATOM     14  C   UNL     1       7.443   4.580  16.199  0.00  0.00    +0.000 C 
ATOM     15  C   UNL     1       6.465   4.593  17.351  0.00  0.00    +0.000 C 
ATOM     16  O   UNL     1       6.810   4.403  18.507  0.00  0.00    +0.000 OA
ENDBRANCH   9  11
ENDBRANCH   2   5
BRANCH   3  17
ATOM     17  C   UNL     1       1.464   8.979  21.565  0.00  0.00    +0.000 C 
BRANCH  17  18
ATOM     18  C   UNL     1      -0.007   9.438  21.569  0.00  0.00    +0.000 C 
BRANCH  18  19
ATOM     19  C   UNL     1      -0.324  10.494  20.507  0.00  0.00    +0.000 A 
ATOM     20  C   UNL     1       0.252  11.771  20.618  0.00  0.00    +0.000 A 
ATOM     21  C   UNL     1       0.100  12.713  19.598  0.00  0.00    +0.000 A 
ATOM     22  C   UNL     1      -0.622  12.394  18.451  0.00  0.00    +0.000 A 
ATOM     23  C   UNL     1      -1.221  11.143  18.337  0.00  0.00    +0.000 A 
ATOM     24  C   UNL     1      -1.087  10.205  19.360  0.00  0.00    +0.000 A 
ENDBRANCH  18  19
BRANCH  18  25
ATOM     25  C   UNL     1      -0.360   9.903  22.979  0.00  0.00    +0.000 C 
ATOM     26  O   UNL     1      -1.415  10.461  23.253  0.00  0.00    +0.000 OA
BRANCH  25  27
ATOM     27  O   UNL     1       0.516   9.579  23.959  0.00  0.00    +0.000 OA
ATOM     28  H   UNL     1       0.601   8.627  24.149  0.00  0.00    +0.000 HD
ENDBRANCH  25  27
ENDBRANCH  18  25
ENDBRANCH  17  18
ENDBRANCH   3  17
TORSDOF 7
ENDMDL
MODEL 6
REMARK VINA RESULT:      -7.8      2.733      4.343
REMARK  Name = 
REMARK  7 active torsions:
REMARK  status: ('A' for Active; 'I' for Inactive)
REMARK    1  A    between atoms: C_2  and  C_15
REMARK    2  A    between atoms: N_3  and  C_4
REMARK    3  A    between atoms: C_4  and  C_5
REMARK    4  A    between atoms: C_5  and  C_6
REMARK    5  A    between atoms: C_5  and  C_9
REMARK    6  A    between atoms: C_6  and  O_8
REMARK    7  A    between atoms: C_19  and  N_20
REMARK                            x       y       z     vdW  Elec       q    Type
REMARK                         _______ _______ _______ _____ _____    ______ ____
ROOT
ATOM      1  O   UNL     1       1.689   5.668  20.907  0.00  0.00    +0.000 OA
ATOM      2  C   UNL     1       2.293   6.269  20.025  0.00  0.00    +0.000 C 
ATOM      3  N   UNL     1       3.332   5.706  19.316  0.00  0.00    +0.000 N 
ATOM      4  H   UNL     1       3.580   6.116  18.422  0.00  0.00    +0.000 HD
ENDROOT
BRANCH   2   5
ATOM      5  C   UNL     1       1.935   7.677  19.690  0.00  0.00    +0.000 A 
ATOM      6  C   UNL     1       2.279   8.153  18.424  0.00  0.00    +0.000 A 
ATOM      7  C   UNL     1       1.881   9.426  18.034  0.00  0.00    +0.000 A 
ATOM      8  C   UNL     1       1.115  10.217  18.898  0.00  0.00    +0.000 A 
ATOM      9  C   UNL     1       0.736   9.763  20.168  0.00  0.00    +0.000 A 
ATOM     10  C   UNL     1       1.174   8.483  20.560  0.00  0.00    +0.000 A 
BRANCH   9  11
ATOM     11  N   UNL     1      -0.101  10.548  21.015  0.00  0.00    +0.000 N 
ATOM     12  C   UNL     1      -1.115  11.444  20.512  0.00  0.00    +0.000 C 
ATOM     13  C   UNL     1      -1.417  12.367  21.675  0.00  0.00    +0.000 C 
ATOM     14  C   UNL     1      -1.180  11.493  22.890  0.00  0.00    +0.000 C 
ATOM     15  C   UNL     1      -0.113  10.531  22.423  0.00  0.00    +0.000 C 
ATOM     16  O   UNL     1       0.548   9.856  23.198  0.00  0.00    +0.000 OA
ENDBRANCH   9  11
ENDBRANCH   2   5
BRANCH   3  17
ATOM     17  C   UNL     1       3.856   4.391  19.650  0.00  0.00    +0.000 C 
BRANCH  17  18
ATOM     18  C   UNL     1       4.176   3.473  18.455  0.00  0.00    +0.000 C 
BRANCH  18  19
ATOM     19  C   UNL     1       5.184   4.074  17.472  0.00  0.00    +0.000 A 
ATOM     20  C   UNL     1       4.865   4.118  16.105  0.00  0.00    +0.000 A 
ATOM     21  C   UNL     1       5.695   4.784  15.199  0.00  0.00    +0.000 A 
ATOM     22  C   UNL     1       6.850   5.420  15.645  0.00  0.00    +0.000 A 
ATOM     23  C   UNL     1       7.195   5.363  16.992  0.00  0.00    +0.000 A 
ATOM     24  C   UNL     1       6.379   4.685  17.896  0.00  0.00    +0.000 A 
ENDBRANCH  18  19
BRANCH  18  25
ATOM     25  C   UNL     1       2.861   3.089  17.780  0.00  0.00    +0.000 C 
ATOM     26  O   UNL     1       2.519   1.927  17.599  0.00  0.00    +0.000 OA
BRANCH  25  27
ATOM     27  O   UNL     1       2.022   4.105  17.471  0.00  0.00    +0.000 OA
ATOM     28  H   UNL     1       2.299   4.988  17.779  0.00  0.00    +0.000 HD
ENDBRANCH  25  27
ENDBRANCH  18  25
ENDBRANCH  17  18
ENDBRANCH   3  17
TORSDOF 7
ENDMDL
MODEL 7
REMARK VINA RESULT:      -7.8      3.593      6.744
REMARK  Name = 
REMARK  7 active torsions:
REMARK  status: ('A' for Active; 'I' for Inactive)
REMARK    1  A    between atoms: C_2  and  C_15
REMARK    2  A    between atoms: N_3  and  C_4
REMARK    3  A    between atoms: C_4  and  C_5
REMARK    4  A    between atoms: C_5  and  C_6
REMARK    5  A    between atoms: C_5  and  C_9
REMARK    6  A    between atoms: C_6  and  O_8
REMARK    7  A    between atoms: C_19  and  N_20
REMARK                            x       y       z     vdW  Elec       q    Type
REMARK                         _______ _______ _______ _____ _____    ______ ____
ROOT
ATOM      1  O   UNL     1       0.965   8.706  20.970  0.00  0.00    +0.000 OA
ATOM      2  C   UNL     1       1.083   9.121  19.822  0.00  0.00    +0.000 C 
ATOM      3  N   UNL     1       1.866   8.493  18.878  0.00  0.00    +0.000 N 
ATOM      4  H   UNL     1       1.690   8.691  17.899  0.00  0.00    +0.000 HD
ENDROOT
BRANCH   2   5
ATOM      5  C   UNL     1       0.386  10.368  19.395  0.00  0.00    +0.000 A 
ATOM      6  C   UNL     1       1.143  11.536  19.293  0.00  0.00    +0.000 A 
ATOM      7  C   UNL     1       0.556  12.698  18.807  0.00  0.00    +0.000 A 
ATOM      8  C   UNL     1      -0.781  12.690  18.396  0.00  0.00    +0.000 A 
ATOM      9  C   UNL     1      -1.564  11.530  18.466  0.00  0.00    +0.000 A 
ATOM     10  C   UNL     1      -0.964  10.369  18.990  0.00  0.00    +0.000 A 
BRANCH   9  11
ATOM     11  N   UNL     1      -2.906  11.513  17.982  0.00  0.00    +0.000 N 
ATOM     12  C   UNL     1      -4.047  11.827  18.811  0.00  0.00    +0.000 C 
ATOM     13  C   UNL     1      -5.231  11.257  18.058  0.00  0.00    +0.000 C 
ATOM     14  C   UNL     1      -4.819  11.380  16.605  0.00  0.00    +0.000 C 
ATOM     15  C   UNL     1      -3.313  11.257  16.660  0.00  0.00    +0.000 C 
ATOM     16  O   UNL     1      -2.638  11.020  15.670  0.00  0.00    +0.000 OA
ENDBRANCH   9  11
ENDBRANCH   2   5
BRANCH   3  17
ATOM     17  C   UNL     1       2.700   7.351  19.220  0.00  0.00    +0.000 C 
BRANCH  17  18
ATOM     18  C   UNL     1       2.615   6.149  18.260  0.00  0.00    +0.000 C 
BRANCH  18  19
ATOM     19  C   UNL     1       1.926   4.924  18.867  0.00  0.00    +0.000 A 
ATOM     20  C   UNL     1       1.562   3.858  18.029  0.00  0.00    +0.000 A 
ATOM     21  C   UNL     1       1.062   2.667  18.564  0.00  0.00    +0.000 A 
ATOM     22  C   UNL     1       0.925   2.523  19.942  0.00  0.00    +0.000 A 
ATOM     23  C   UNL     1       1.256   3.579  20.785  0.00  0.00    +0.000 A 
ATOM     24  C   UNL     1       1.739   4.774  20.254  0.00  0.00    +0.000 A 
ENDBRANCH  18  19
BRANCH  18  25
ATOM     25  C   UNL     1       4.023   5.837  17.757  0.00  0.00    +0.000 C 
ATOM     26  O   UNL     1       4.512   6.369  16.769  0.00  0.00    +0.000 OA
BRANCH  25  27
ATOM     27  O   UNL     1       4.766   5.003  18.522  0.00  0.00    +0.000 OA
ATOM     28  H   UNL     1       4.261   4.368  19.064  0.00  0.00    +0.000 HD
ENDBRANCH  25  27
ENDBRANCH  18  25
ENDBRANCH  17  18
ENDBRANCH   3  17
TORSDOF 7
ENDMDL
MODEL 8
REMARK VINA RESULT:      -7.8      1.803      3.263
REMARK  Name = 
REMARK  7 active torsions:
REMARK  status: ('A' for Active; 'I' for Inactive)
REMARK    1  A    between atoms: C_2  and  C_15
REMARK    2  A    between atoms: N_3  and  C_4
REMARK    3  A    between atoms: C_4  and  C_5
REMARK    4  A    between atoms: C_5  and  C_6
REMARK    5  A    between atoms: C_5  and  C_9
REMARK    6  A    between atoms: C_6  and  O_8
REMARK    7  A    between atoms: C_19  and  N_20
REMARK                            x       y       z     vdW  Elec       q    Type
REMARK                         _______ _______ _______ _____ _____    ______ ____
ROOT
ATOM      1  O   UNL     1       4.330   2.613  17.615  0.00  0.00    +0.000 OA
ATOM      2  C   UNL     1       4.041   3.792  17.440  0.00  0.00    +0.000 C 
ATOM      3  N   UNL     1       4.432   4.499  16.324  0.00  0.00    +0.000 N 
ATOM      4  H   UNL     1       3.924   5.344  16.088  0.00  0.00    +0.000 HD
ENDROOT
BRANCH   2   5
ATOM      5  C   UNL     1       3.254   4.536  18.465  0.00  0.00    +0.000 A 
ATOM      6  C   UNL     1       3.042   3.919  19.699  0.00  0.00    +0.000 A 
ATOM      7  C   UNL     1       2.397   4.613  20.715  0.00  0.00    +0.000 A 
ATOM      8  C   UNL     1       1.986   5.935  20.512  0.00  0.00    +0.000 A 
ATOM      9  C   UNL     1       2.201   6.591  19.293  0.00  0.00    +0.000 A 
ATOM     10  C   UNL     1       2.828   5.864  18.262  0.00  0.00    +0.000 A 
BRANCH   9  11
ATOM     11  N   UNL     1       1.840   7.960  19.115  0.00  0.00    +0.000 N 
ATOM     12  C   UNL     1       1.854   8.619  17.830  0.00  0.00    +0.000 C 
ATOM     13  C   UNL     1       1.856  10.097  18.162  0.00  0.00    +0.000 C 
ATOM     14  C   UNL     1       1.081  10.168  19.462  0.00  0.00    +0.000 C 
ATOM     15  C   UNL     1       1.372   8.835  20.113  0.00  0.00    +0.000 C 
ATOM     16  O   UNL     1       1.163   8.623  21.298  0.00  0.00    +0.000 OA
ENDBRANCH   9  11
ENDBRANCH   2   5
BRANCH   3  17
ATOM     17  C   UNL     1       5.318   3.916  15.327  0.00  0.00    +0.000 C 
BRANCH  17  18
ATOM     18  C   UNL     1       6.810   4.271  15.467  0.00  0.00    +0.000 C 
BRANCH  18  19
ATOM     19  C   UNL     1       7.112   5.208  16.639  0.00  0.00    +0.000 A 
ATOM     20  C   UNL     1       7.624   4.670  17.832  0.00  0.00    +0.000 A 
ATOM     21  C   UNL     1       8.043   5.507  18.870  0.00  0.00    +0.000 A 
ATOM     22  C   UNL     1       7.964   6.890  18.730  0.00  0.00    +0.000 A 
ATOM     23  C   UNL     1       7.435   7.439  17.566  0.00  0.00    +0.000 A 
ATOM     24  C   UNL     1       7.000   6.608  16.534  0.00  0.00    +0.000 A 
ENDBRANCH  18  19
BRANCH  18  25
ATOM     25  C   UNL     1       7.297   4.831  14.132  0.00  0.00    +0.000 C 
ATOM     26  O   UNL     1       8.220   5.630  14.041  0.00  0.00    +0.000 OA
BRANCH  25  27
ATOM     27  O   UNL     1       6.720   4.322  13.018  0.00  0.00    +0.000 OA
ATOM     28  H   UNL     1       7.312   4.215  12.250  0.00  0.00    +0.000 HD
ENDBRANCH  25  27
ENDBRANCH  18  25
ENDBRANCH  17  18
ENDBRANCH   3  17
TORSDOF 7
ENDMDL
MODEL 9
REMARK VINA RESULT:      -7.7      2.539      4.113
REMARK  Name = 
REMARK  7 active torsions:
REMARK  status: ('A' for Active; 'I' for Inactive)
REMARK    1  A    between atoms: C_2  and  C_15
REMARK    2  A    between atoms: N_3  and  C_4
REMARK    3  A    between atoms: C_4  and  C_5
REMARK    4  A    between atoms: C_5  and  C_6
REMARK    5  A    between atoms: C_5  and  C_9
REMARK    6  A    between atoms: C_6  and  O_8
REMARK    7  A    between atoms: C_19  and  N_20
REMARK                            x       y       z     vdW  Elec       q    Type
REMARK                         _______ _______ _______ _____ _____    ______ ____
ROOT
ATOM      1  O   UNL     1       3.315   5.732  20.139  0.00  0.00    +0.000 OA
ATOM      2  C   UNL     1       2.570   6.120  19.245  0.00  0.00    +0.000 C 
ATOM      3  N   UNL     1       2.106   5.290  18.248  0.00  0.00    +0.000 N 
ATOM      4  H   UNL     1       1.276   5.572  17.736  0.00  0.00    +0.000 HD
ENDROOT
BRANCH   2   5
ATOM      5  C   UNL     1       2.141   7.547  19.186  0.00  0.00    +0.000 A 
ATOM      6  C   UNL     1       2.253   8.210  17.963  0.00  0.00    +0.000 A 
ATOM      7  C   UNL     1       1.777   9.509  17.838  0.00  0.00    +0.000 A 
ATOM      8  C   UNL     1       1.163  10.141  18.926  0.00  0.00    +0.000 A 
ATOM      9  C   UNL     1       1.017   9.496  20.161  0.00  0.00    +0.000 A 
ATOM     10  C   UNL     1       1.533   8.191  20.282  0.00  0.00    +0.000 A 
BRANCH   9  11
ATOM     11  N   UNL     1       0.331  10.121  21.245  0.00  0.00    +0.000 N 
ATOM     12  C   UNL     1       0.225   9.529  22.558  0.00  0.00    +0.000 C 
ATOM     13  C   UNL     1      -0.919  10.270  23.218  0.00  0.00    +0.000 C 
ATOM     14  C   UNL     1      -0.846  11.652  22.602  0.00  0.00    +0.000 C 
ATOM     15  C   UNL     1      -0.276  11.391  21.227  0.00  0.00    +0.000 C 
ATOM     16  O   UNL     1      -0.333  12.213  20.325  0.00  0.00    +0.000 OA
ENDBRANCH   9  11
ENDBRANCH   2   5
BRANCH   3  17
ATOM     17  C   UNL     1       2.567   3.915  18.127  0.00  0.00    +0.000 C 
BRANCH  17  18
ATOM     18  C   UNL     1       4.024   3.657  18.553  0.00  0.00    +0.000 C 
BRANCH  18  19
ATOM     19  C   UNL     1       5.056   4.086  17.506  0.00  0.00    +0.000 A 
ATOM     20  C   UNL     1       6.338   4.475  17.927  0.00  0.00    +0.000 A 
ATOM     21  C   UNL     1       7.347   4.735  16.996  0.00  0.00    +0.000 A 
ATOM     22  C   UNL     1       7.093   4.605  15.634  0.00  0.00    +0.000 A 
ATOM     23  C   UNL     1       5.821   4.246  15.198  0.00  0.00    +0.000 A 
ATOM     24  C   UNL     1       4.806   4.002  16.123  0.00  0.00    +0.000 A 
ENDBRANCH  18  19
BRANCH  18  25
ATOM     25  C   UNL     1       4.158   2.185  18.936  0.00  0.00    +0.000 C 
ATOM     26  O   UNL     1       3.570   1.287  18.348  0.00  0.00    +0.000 OA
BRANCH  25  27
ATOM     27  O   UNL     1       5.051   1.894  19.911  0.00  0.00    +0.000 OA
ATOM     28  H   UNL     1       5.705   2.592  20.104  0.00  0.00    +0.000 HD
ENDBRANCH  25  27
ENDBRANCH  18  25
ENDBRANCH  17  18
ENDBRANCH   3  17
TORSDOF 7
ENDMDL
