MODEL 1
REMARK VINA RESULT:      -8.9      0.000      0.000
REMARK  Name = 
REMARK  6 active torsions:
REMARK  status: ('A' for Active; 'I' for Inactive)
REMARK    1  A    between atoms: C_7  and  C_8
REMARK    2  A    between atoms: N_14  and  C_15
REMARK    3  A    between atoms: C_19  and  C_20
REMARK    4  A    between atoms: C_20  and  C_21
REMARK    5  A    between atoms: C_21  and  N_22
REMARK    6  A    between atoms: C_26  and  O_27
REMARK                            x       y       z     vdW  Elec       q    Type
REMARK                         _______ _______ _______ _____ _____    ______ ____
ROOT
ATOM      1  C   UNL     1       2.568   7.141  18.359  0.00  0.00    +0.000 A 
ATOM      2  C   UNL     1       3.921   7.210  18.006  0.00  0.00    +0.000 A 
ATOM      3  C   UNL     1       4.600   6.091  17.529  0.00  0.00    +0.000 A 
ATOM      4  C   UNL     1       3.941   4.873  17.393  0.00  0.00    +0.000 A 
ATOM      5  C   UNL     1       2.594   4.758  17.749  0.00  0.00    +0.000 A 
ATOM      6  C   UNL     1       1.916   5.906  18.205  0.00  0.00    +0.000 A 
ENDROOT
BRANCH   1  16
ATOM      7  O   UNL     1       2.146   9.925  17.190  0.00  0.00    +0.000 OA
ATOM      8  C   UNL     1       1.776   9.522  18.278  0.00  0.00    +0.000 C 
ATOM      9  C   UNL     1       1.092  10.403  19.228  0.00  0.00    +0.000 A 
ATOM     10  C   UNL     1       0.783  11.741  19.081  0.00  0.00    +0.000 A 
ATOM     11  C   UNL     1       0.150  12.373  20.149  0.00  0.00    +0.000 A 
ATOM     12  C   UNL     1      -0.151  11.660  21.324  0.00  0.00    +0.000 A 
ATOM     13  C   UNL     1       0.175  10.295  21.459  0.00  0.00    +0.000 A 
ATOM     14  C   UNL     1       0.799   9.677  20.379  0.00  0.00    +0.000 A 
ATOM     15  C   UNL     1       1.266   8.267  20.208  0.00  0.00    +0.000 C 
ATOM     16  N   UNL     1       1.882   8.269  18.885  0.00  0.00    +0.000 N 
BRANCH  13  17
ATOM     17  C   UNL     1      -0.129   9.538  22.725  0.00  0.00    +0.000 C 
ATOM     18  F   UNL     1      -0.899   8.433  22.532  0.00  0.00    +0.000 F 
ATOM     19  F   UNL     1       1.000   9.110  23.353  0.00  0.00    +0.000 F 
ATOM     20  F   UNL     1      -0.791  10.305  23.635  0.00  0.00    +0.000 F 
ENDBRANCH  13  17
ENDBRANCH   1  16
BRANCH   5  21
ATOM     21  C   UNL     1       1.828   3.461  17.609  0.00  0.00    +0.000 C 
BRANCH  21  22
ATOM     22  C   UNL     1       2.436   2.275  18.361  0.00  0.00    +0.000 C 
BRANCH  22  23
ATOM     23  N   UNL     1       2.360   2.444  19.793  0.00  0.00    +0.000 N 
ATOM     24  C   UNL     1       1.226   2.653  20.519  0.00  0.00    +0.000 A 
ATOM     25  N   UNL     1       1.534   2.742  21.792  0.00  0.00    +0.000 NA
ATOM     26  N   UNL     1       2.900   2.581  21.906  0.00  0.00    +0.000 NA
ATOM     27  C   UNL     1       3.378   2.398  20.695  0.00  0.00    +0.000 A 
BRANCH  27  28
ATOM     28  O   UNL     1       4.646   2.202  20.367  0.00  0.00    +0.000 OA
ATOM     29  F   UNL     1       5.211   3.349  19.770  0.00  0.00    +0.000 F 
ENDBRANCH  27  28
ENDBRANCH  22  23
ENDBRANCH  21  22
ENDBRANCH   5  21
TORSDOF 6
ENDMDL
MODEL 2
REMARK VINA RESULT:      -8.7      2.901      4.001
REMARK  Name = 
REMARK  6 active torsions:
REMARK  status: ('A' for Active; 'I' for Inactive)
REMARK    1  A    between atoms: C_7  and  C_8
REMARK    2  A    between atoms: N_14  and  C_15
REMARK    3  A    between atoms: C_19  and  C_20
REMARK    4  A    between atoms: C_20  and  C_21
REMARK    5  A    between atoms: C_21  and  N_22
REMARK    6  A    between atoms: C_26  and  O_27
REMARK                            x       y       z     vdW  Elec       q    Type
REMARK                         _______ _______ _______ _____ _____    ______ ____
ROOT
ATOM      1  C   UNL     1       2.456   6.392  18.911  0.00  0.00    +0.000 A 
ATOM      2  C   UNL     1       1.806   5.461  18.091  0.00  0.00    +0.000 A 
ATOM      3  C   UNL     1       2.409   4.251  17.754  0.00  0.00    +0.000 A 
ATOM      4  C   UNL     1       3.680   3.942  18.229  0.00  0.00    +0.000 A 
ATOM      5  C   UNL     1       4.369   4.851  19.037  0.00  0.00    +0.000 A 
ATOM      6  C   UNL     1       3.734   6.058  19.390  0.00  0.00    +0.000 A 
ENDROOT
BRANCH   1  16
ATOM      7  O   UNL     1       2.296   8.968  17.289  0.00  0.00    +0.000 OA
ATOM      8  C   UNL     1       1.876   8.784  18.417  0.00  0.00    +0.000 C 
ATOM      9  C   UNL     1       1.256   9.864  19.188  0.00  0.00    +0.000 A 
ATOM     10  C   UNL     1       1.068  11.180  18.815  0.00  0.00    +0.000 A 
ATOM     11  C   UNL     1       0.476  12.032  19.745  0.00  0.00    +0.000 A 
ATOM     12  C   UNL     1       0.096  11.551  21.012  0.00  0.00    +0.000 A 
ATOM     13  C   UNL     1       0.299  10.205  21.379  0.00  0.00    +0.000 A 
ATOM     14  C   UNL     1       0.884   9.366  20.434  0.00  0.00    +0.000 A 
ATOM     15  C   UNL     1       1.228   7.913  20.510  0.00  0.00    +0.000 C 
ATOM     16  N   UNL     1       1.862   7.644  19.224  0.00  0.00    +0.000 N 
BRANCH  13  17
ATOM     17  C   UNL     1      -0.089   9.697  22.742  0.00  0.00    +0.000 C 
ATOM     18  F   UNL     1       0.968   9.308  23.504  0.00  0.00    +0.000 F 
ATOM     19  F   UNL     1      -0.758  10.632  23.470  0.00  0.00    +0.000 F 
ATOM     20  F   UNL     1      -0.920   8.620  22.670  0.00  0.00    +0.000 F 
ENDBRANCH  13  17
ENDBRANCH   1  16
BRANCH   5  21
ATOM     21  C   UNL     1       5.747   4.558  19.590  0.00  0.00    +0.000 C 
BRANCH  21  22
ATOM     22  C   UNL     1       6.825   5.568  19.189  0.00  0.00    +0.000 C 
BRANCH  22  23
ATOM     23  N   UNL     1       7.127   5.509  17.779  0.00  0.00    +0.000 N 
ATOM     24  C   UNL     1       7.320   4.377  17.045  0.00  0.00    +0.000 A 
ATOM     25  N   UNL     1       7.557   4.704  15.795  0.00  0.00    +0.000 NA
ATOM     26  N   UNL     1       7.511   6.080  15.705  0.00  0.00    +0.000 NA
ATOM     27  C   UNL     1       7.247   6.545  16.905  0.00  0.00    +0.000 A 
BRANCH  27  28
ATOM     28  O   UNL     1       7.117   7.818  17.249  0.00  0.00    +0.000 OA
ATOM     29  F   UNL     1       8.241   8.280  17.967  0.00  0.00    +0.000 F 
ENDBRANCH  27  28
ENDBRANCH  22  23
ENDBRANCH  21  22
ENDBRANCH   5  21
TORSDOF 6
ENDMDL
MODEL 3
REMARK VINA RESULT:      -8.7      2.719      4.048
REMARK  Name = 
REMARK  6 active torsions:
REMARK  status: ('A' for Active; 'I' for Inactive)
REMARK    1  A    between atoms: C_7  and  C_8
REMARK    2  A    between atoms: N_14  and  C_15
REMARK    3  A    between atoms: C_19  and  C_20
REMARK    4  A    between atoms: C_20  and  C_21
REMARK    5  A    between atoms: C_21  and  N_22
REMARK    6  A    between atoms: C_26  and  O_27
REMARK                            x       y       z     vdW  Elec       q    Type
REMARK                         _______ _______ _______ _____ _____    ______ ____
ROOT
ATOM      1  C   UNL     1       2.515   6.274  18.769  0.00  0.00    +0.000 A 
ATOM      2  C   UNL     1       1.787   5.315  18.056  0.00  0.00    +0.000 A 
ATOM      3  C   UNL     1       2.356   4.094  17.698  0.00  0.00    +0.000 A 
ATOM      4  C   UNL     1       3.671   3.803  18.046  0.00  0.00    +0.000 A 
ATOM      5  C   UNL     1       4.439   4.740  18.745  0.00  0.00    +0.000 A 
ATOM      6  C   UNL     1       3.839   5.958  19.122  0.00  0.00    +0.000 A 
ENDROOT
BRANCH   1  16
ATOM      7  O   UNL     1       2.420   8.876  17.184  0.00  0.00    +0.000 OA
ATOM      8  C   UNL     1       1.995   8.686  18.309  0.00  0.00    +0.000 C 
ATOM      9  C   UNL     1       1.402   9.771  19.096  0.00  0.00    +0.000 A 
ATOM     10  C   UNL     1       1.246  11.096  18.741  0.00  0.00    +0.000 A 
ATOM     11  C   UNL     1       0.676  11.949  19.684  0.00  0.00    +0.000 A 
ATOM     12  C   UNL     1       0.284  11.460  20.943  0.00  0.00    +0.000 A 
ATOM     13  C   UNL     1       0.453  10.104  21.292  0.00  0.00    +0.000 A 
ATOM     14  C   UNL     1       1.017   9.264  20.334  0.00  0.00    +0.000 A 
ATOM     15  C   UNL     1       1.326   7.803  20.390  0.00  0.00    +0.000 C 
ATOM     16  N   UNL     1       1.953   7.536  19.100  0.00  0.00    +0.000 N 
BRANCH  13  17
ATOM     17  C   UNL     1       0.053   9.586  22.647  0.00  0.00    +0.000 C 
ATOM     18  F   UNL     1       1.097   9.139  23.395  0.00  0.00    +0.000 F 
ATOM     19  F   UNL     1      -0.572  10.535  23.397  0.00  0.00    +0.000 F 
ATOM     20  F   UNL     1      -0.823   8.547  22.561  0.00  0.00    +0.000 F 
ENDBRANCH  13  17
ENDBRANCH   1  16
BRANCH   5  21
ATOM     21  C   UNL     1       5.869   4.467  19.158  0.00  0.00    +0.000 C 
BRANCH  21  22
ATOM     22  C   UNL     1       6.904   4.665  18.047  0.00  0.00    +0.000 C 
BRANCH  22  23
ATOM     23  N   UNL     1       7.290   6.048  17.904  0.00  0.00    +0.000 N 
ATOM     24  C   UNL     1       8.096   6.749  18.750  0.00  0.00    +0.000 A 
ATOM     25  N   UNL     1       8.243   7.973  18.297  0.00  0.00    +0.000 NA
ATOM     26  N   UNL     1       7.524   8.075  17.123  0.00  0.00    +0.000 NA
ATOM     27  C   UNL     1       6.963   6.908  16.902  0.00  0.00    +0.000 A 
BRANCH  27  28
ATOM     28  O   UNL     1       6.189   6.585  15.877  0.00  0.00    +0.000 OA
ATOM     29  F   UNL     1       4.826   6.816  16.161  0.00  0.00    +0.000 F 
ENDBRANCH  27  28
ENDBRANCH  22  23
ENDBRANCH  21  22
ENDBRANCH   5  21
TORSDOF 6
ENDMDL
MODEL 4
REMARK VINA RESULT:      -8.6      3.069      4.145
REMARK  Name = 
REMARK  6 active torsions:
REMARK  status: ('A' for Active; 'I' for Inactive)
REMARK    1  A    between atoms: C_7  and  C_8
REMARK    2  A    between atoms: N_14  and  C_15
REMARK    3  A    between atoms: C_19  and  C_20
REMARK    4  A    between atoms: C_20  and  C_21
REMARK    5  A    between atoms: C_21  and  N_22
REMARK    6  A    between atoms: C_26  and  O_27
REMARK                            x       y       z     vdW  Elec       q    Type
REMARK                         _______ _______ _______ _____ _____    ______ ____
ROOT
ATOM      1  C   UNL     1       2.342   5.749  20.025  0.00  0.00    +0.000 A 
ATOM      2  C   UNL     1       1.710   4.731  20.749  0.00  0.00    +0.000 A 
ATOM      3  C   UNL     1       2.198   3.425  20.734  0.00  0.00    +0.000 A 
ATOM      4  C   UNL     1       3.331   3.106  19.992  0.00  0.00    +0.000 A 
ATOM      5  C   UNL     1       3.982   4.091  19.243  0.00  0.00    +0.000 A 
ATOM      6  C   UNL     1       3.492   5.411  19.292  0.00  0.00    +0.000 A 
ENDROOT
BRANCH   1  16
ATOM      7  O   UNL     1       2.485   7.896  17.866  0.00  0.00    +0.000 OA
ATOM      8  C   UNL     1       1.978   7.997  18.969  0.00  0.00    +0.000 C 
ATOM      9  C   UNL     1       1.392   9.259  19.429  0.00  0.00    +0.000 A 
ATOM     10  C   UNL     1       1.329  10.464  18.760  0.00  0.00    +0.000 A 
ATOM     11  C   UNL     1       0.742  11.538  19.427  0.00  0.00    +0.000 A 
ATOM     12  C   UNL     1       0.245  11.380  20.733  0.00  0.00    +0.000 A 
ATOM     13  C   UNL     1       0.321  10.142  21.405  0.00  0.00    +0.000 A 
ATOM     14  C   UNL     1       0.902   9.078  20.719  0.00  0.00    +0.000 A 
ATOM     15  C   UNL     1       1.130   7.663  21.143  0.00  0.00    +0.000 C 
ATOM     16  N   UNL     1       1.825   7.073  20.004  0.00  0.00    +0.000 N 
BRANCH  13  17
ATOM     17  C   UNL     1      -0.193   9.979  22.810  0.00  0.00    +0.000 C 
ATOM     18  F   UNL     1       0.765   9.625  23.708  0.00  0.00    +0.000 F 
ATOM     19  F   UNL     1      -0.757  11.122  23.289  0.00  0.00    +0.000 F 
ATOM     20  F   UNL     1      -1.162   9.026  22.895  0.00  0.00    +0.000 F 
ENDBRANCH  13  17
ENDBRANCH   1  16
BRANCH   5  21
ATOM     21  C   UNL     1       5.225   3.799  18.431  0.00  0.00    +0.000 C 
BRANCH  21  22
ATOM     22  C   UNL     1       5.040   3.913  16.916  0.00  0.00    +0.000 C 
BRANCH  22  23
ATOM     23  N   UNL     1       6.079   4.703  16.300  0.00  0.00    +0.000 N 
ATOM     24  C   UNL     1       6.735   5.753  16.869  0.00  0.00    +0.000 A 
ATOM     25  N   UNL     1       7.626   6.220  16.025  0.00  0.00    +0.000 NA
ATOM     26  N   UNL     1       7.559   5.454  14.878  0.00  0.00    +0.000 NA
ATOM     27  C   UNL     1       6.629   4.546  15.065  0.00  0.00    +0.000 A 
BRANCH  27  28
ATOM     28  O   UNL     1       6.253   3.612  14.205  0.00  0.00    +0.000 OA
ATOM     29  F   UNL     1       5.144   4.027  13.437  0.00  0.00    +0.000 F 
ENDBRANCH  27  28
ENDBRANCH  22  23
ENDBRANCH  21  22
ENDBRANCH   5  21
TORSDOF 6
ENDMDL
MODEL 5
REMARK VINA RESULT:      -8.6      2.906      3.868
REMARK  Name = 
REMARK  6 active torsions:
REMARK  status: ('A' for Active; 'I' for Inactive)
REMARK    1  A    between atoms: C_7  and  C_8
REMARK    2  A    between atoms: N_14  and  C_15
REMARK    3  A    between atoms: C_19  and  C_20
REMARK    4  A    between atoms: C_20  and  C_21
REMARK    5  A    between atoms: C_21  and  N_22
REMARK    6  A    between atoms: C_26  and  O_27
REMARK                            x       y       z     vdW  Elec       q    Type
REMARK                         _______ _______ _______ _____ _____    ______ ____
ROOT
ATOM      1  C   UNL     1       2.608   7.073  18.615  0.00  0.00    +0.000 A 
ATOM      2  C   UNL     1       2.391   5.808  19.174  0.00  0.00    +0.000 A 
ATOM      3  C   UNL     1       3.069   4.684  18.703  0.00  0.00    +0.000 A 
ATOM      4  C   UNL     1       3.981   4.800  17.659  0.00  0.00    +0.000 A 
ATOM      5  C   UNL     1       4.215   6.043  17.063  0.00  0.00    +0.000 A 
ATOM      6  C   UNL     1       3.541   7.172  17.569  0.00  0.00    +0.000 A 
ENDROOT
BRANCH   1  16
ATOM      7  O   UNL     1       2.159   9.779  17.285  0.00  0.00    +0.000 OA
ATOM      8  C   UNL     1       1.774   9.429  18.386  0.00  0.00    +0.000 C 
ATOM      9  C   UNL     1       1.053  10.347  19.271  0.00  0.00    +0.000 A 
ATOM     10  C   UNL     1       0.722  11.669  19.044  0.00  0.00    +0.000 A 
ATOM     11  C   UNL     1       0.055  12.346  20.062  0.00  0.00    +0.000 A 
ATOM     12  C   UNL     1      -0.258  11.693  21.268  0.00  0.00    +0.000 A 
ATOM     13  C   UNL     1       0.090  10.344  21.486  0.00  0.00    +0.000 A 
ATOM     14  C   UNL     1       0.749   9.680  20.454  0.00  0.00    +0.000 A 
ATOM     15  C   UNL     1       1.245   8.272  20.372  0.00  0.00    +0.000 C 
ATOM     16  N   UNL     1       1.889   8.214  19.064  0.00  0.00    +0.000 N 
BRANCH  13  17
ATOM     17  C   UNL     1      -0.226   9.652  22.785  0.00  0.00    +0.000 C 
ATOM     18  F   UNL     1      -1.005  10.388  23.624  0.00  0.00    +0.000 F 
ATOM     19  F   UNL     1      -0.881   8.474  22.596  0.00  0.00    +0.000 F 
ATOM     20  F   UNL     1       0.898   9.342  23.488  0.00  0.00    +0.000 F 
ENDBRANCH  13  17
ENDBRANCH   1  16
BRANCH   5  21
ATOM     21  C   UNL     1       5.205   6.224  15.933  0.00  0.00    +0.000 C 
BRANCH  21  22
ATOM     22  C   UNL     1       6.506   5.433  16.090  0.00  0.00    +0.000 C 
BRANCH  22  23
ATOM     23  N   UNL     1       7.174   5.726  17.335  0.00  0.00    +0.000 N 
ATOM     24  C   UNL     1       7.489   4.827  18.309  0.00  0.00    +0.000 A 
ATOM     25  N   UNL     1       8.106   5.445  19.290  0.00  0.00    +0.000 NA
ATOM     26  N   UNL     1       8.205   6.779  18.948  0.00  0.00    +0.000 NA
ATOM     27  C   UNL     1       7.644   6.927  17.770  0.00  0.00    +0.000 A 
BRANCH  27  28
ATOM     28  O   UNL     1       7.530   8.054  17.084  0.00  0.00    +0.000 OA
ATOM     29  F   UNL     1       7.942   9.169  17.844  0.00  0.00    +0.000 F 
ENDBRANCH  27  28
ENDBRANCH  22  23
ENDBRANCH  21  22
ENDBRANCH   5  21
TORSDOF 6
ENDMDL
MODEL 6
REMARK VINA RESULT:      -8.5      2.820      3.803
REMARK  Name = 
REMARK  6 active torsions:
REMARK  status: ('A' for Active; 'I' for Inactive)
REMARK    1  A    between atoms: C_7  and  C_8
REMARK    2  A    between atoms: N_14  and  C_15
REMARK    3  A    between atoms: C_19  and  C_20
REMARK    4  A    between atoms: C_20  and  C_21
REMARK    5  A    between atoms: C_21  and  N_22
REMARK    6  A    between atoms: C_26  and  O_27
REMARK                            x       y       z     vdW  Elec       q    Type
REMARK                         _______ _______ _______ _____ _____    ______ ____
ROOT
ATOM      1  C   UNL     1       2.733   6.282  19.077  0.00  0.00    +0.000 A 
ATOM      2  C   UNL     1       2.719   5.258  20.031  0.00  0.00    +0.000 A 
ATOM      3  C   UNL     1       3.349   4.038  19.789  0.00  0.00    +0.000 A 
ATOM      4  C   UNL     1       4.008   3.813  18.585  0.00  0.00    +0.000 A 
ATOM      5  C   UNL     1       4.032   4.805  17.600  0.00  0.00    +0.000 A 
ATOM      6  C   UNL     1       3.414   6.041  17.871  0.00  0.00    +0.000 A 
ENDROOT
BRANCH   1  16
ATOM      7  O   UNL     1       2.432   8.731  17.286  0.00  0.00    +0.000 OA
ATOM      8  C   UNL     1       2.010   8.595  18.420  0.00  0.00    +0.000 C 
ATOM      9  C   UNL     1       1.314   9.682  19.113  0.00  0.00    +0.000 A 
ATOM     10  C   UNL     1       1.048  10.956  18.651  0.00  0.00    +0.000 A 
ATOM     11  C   UNL     1       0.392  11.828  19.518  0.00  0.00    +0.000 A 
ATOM     12  C   UNL     1       0.028  11.408  20.811  0.00  0.00    +0.000 A 
ATOM     13  C   UNL     1       0.310  10.105  21.268  0.00  0.00    +0.000 A 
ATOM     14  C   UNL     1       0.959   9.244  20.386  0.00  0.00    +0.000 A 
ATOM     15  C   UNL     1       1.393   7.825  20.562  0.00  0.00    +0.000 C 
ATOM     16  N   UNL     1       2.058   7.513  19.301  0.00  0.00    +0.000 N 
BRANCH  13  17
ATOM     17  C   UNL     1      -0.062   9.664  22.659  0.00  0.00    +0.000 C 
ATOM     18  F   UNL     1       1.002   9.285  23.417  0.00  0.00    +0.000 F 
ATOM     19  F   UNL     1      -0.696  10.644  23.358  0.00  0.00    +0.000 F 
ATOM     20  F   UNL     1      -0.916   8.604  22.649  0.00  0.00    +0.000 F 
ENDBRANCH  13  17
ENDBRANCH   1  16
BRANCH   5  21
ATOM     21  C   UNL     1       4.745   4.615  16.279  0.00  0.00    +0.000 C 
BRANCH  21  22
ATOM     22  C   UNL     1       5.903   5.586  16.032  0.00  0.00    +0.000 C 
BRANCH  22  23
ATOM     23  N   UNL     1       6.789   5.674  17.168  0.00  0.00    +0.000 N 
ATOM     24  C   UNL     1       7.323   4.624  17.854  0.00  0.00    +0.000 A 
ATOM     25  N   UNL     1       8.095   5.079  18.814  0.00  0.00    +0.000 NA
ATOM     26  N   UNL     1       8.075   6.458  18.751  0.00  0.00    +0.000 NA
ATOM     27  C   UNL     1       7.289   6.796  17.753  0.00  0.00    +0.000 A 
BRANCH  27  28
ATOM     28  O   UNL     1       7.002   8.025  17.355  0.00  0.00    +0.000 OA
ATOM     29  F   UNL     1       8.097   8.898  17.527  0.00  0.00    +0.000 F 
ENDBRANCH  27  28
ENDBRANCH  22  23
ENDBRANCH  21  22
ENDBRANCH   5  21
TORSDOF 6
ENDMDL
MODEL 7
REMARK VINA RESULT:      -8.4      1.125      1.507
REMARK  Name = 
REMARK  6 active torsions:
REMARK  status: ('A' for Active; 'I' for Inactive)
REMARK    1  A    between atoms: C_7  and  C_8
REMARK    2  A    between atoms: N_14  and  C_15
REMARK    3  A    between atoms: C_19  and  C_20
REMARK    4  A    between atoms: C_20  and  C_21
REMARK    5  A    between atoms: C_21  and  N_22
REMARK    6  A    between atoms: C_26  and  O_27
REMARK                            x       y       z     vdW  Elec       q    Type
REMARK                         _______ _______ _______ _____ _____    ______ ____
ROOT
ATOM      1  C   UNL     1       2.566   7.220  18.351  0.00  0.00    +0.000 A 
ATOM      2  C   UNL     1       3.906   7.315  17.959  0.00  0.00    +0.000 A 
ATOM      3  C   UNL     1       4.598   6.206  17.474  0.00  0.00    +0.000 A 
ATOM      4  C   UNL     1       3.963   4.972  17.370  0.00  0.00    +0.000 A 
ATOM      5  C   UNL     1       2.629   4.831  17.766  0.00  0.00    +0.000 A 
ATOM      6  C   UNL     1       1.938   5.969  18.228  0.00  0.00    +0.000 A 
ENDROOT
BRANCH   1  16
ATOM      7  O   UNL     1       2.105  10.002  17.193  0.00  0.00    +0.000 OA
ATOM      8  C   UNL     1       1.746   9.592  18.281  0.00  0.00    +0.000 C 
ATOM      9  C   UNL     1       1.056  10.461  19.237  0.00  0.00    +0.000 A 
ATOM     10  C   UNL     1       0.731  11.796  19.096  0.00  0.00    +0.000 A 
ATOM     11  C   UNL     1       0.095  12.418  20.169  0.00  0.00    +0.000 A 
ATOM     12  C   UNL     1      -0.191  11.697  21.344  0.00  0.00    +0.000 A 
ATOM     13  C   UNL     1       0.152  10.336  21.473  0.00  0.00    +0.000 A 
ATOM     14  C   UNL     1       0.778   9.728  20.387  0.00  0.00    +0.000 A 
ATOM     15  C   UNL     1       1.260   8.325  20.210  0.00  0.00    +0.000 C 
ATOM     16  N   UNL     1       1.869   8.338  18.884  0.00  0.00    +0.000 N 
BRANCH  13  17
ATOM     17  C   UNL     1      -0.137   9.571  22.738  0.00  0.00    +0.000 C 
ATOM     18  F   UNL     1       0.979   9.136  23.382  0.00  0.00    +0.000 F 
ATOM     19  F   UNL     1      -0.832  10.314  23.642  0.00  0.00    +0.000 F 
ATOM     20  F   UNL     1      -0.895   8.465  22.506  0.00  0.00    +0.000 F 
ENDBRANCH  13  17
ENDBRANCH   1  16
BRANCH   5  21
ATOM     21  C   UNL     1       1.889   3.515  17.662  0.00  0.00    +0.000 C 
BRANCH  21  22
ATOM     22  C   UNL     1       1.588   2.843  19.003  0.00  0.00    +0.000 C 
BRANCH  22  23
ATOM     23  N   UNL     1       2.791   2.449  19.696  0.00  0.00    +0.000 N 
ATOM     24  C   UNL     1       3.866   1.817  19.145  0.00  0.00    +0.000 A 
ATOM     25  N   UNL     1       4.782   1.632  20.068  0.00  0.00    +0.000 NA
ATOM     26  N   UNL     1       4.302   2.162  21.248  0.00  0.00    +0.000 NA
ATOM     27  C   UNL     1       3.108   2.652  21.004  0.00  0.00    +0.000 A 
BRANCH  27  28
ATOM     28  O   UNL     1       2.306   3.251  21.871  0.00  0.00    +0.000 OA
ATOM     29  F   UNL     1       2.323   4.653  21.712  0.00  0.00    +0.000 F 
ENDBRANCH  27  28
ENDBRANCH  22  23
ENDBRANCH  21  22
ENDBRANCH   5  21
TORSDOF 6
ENDMDL
MODEL 8
REMARK VINA RESULT:      -8.4      2.604      3.769
REMARK  Name = 
REMARK  6 active torsions:
REMARK  status: ('A' for Active; 'I' for Inactive)
REMARK    1  A    between atoms: C_7  and  C_8
REMARK    2  A    between atoms: N_14  and  C_15
REMARK    3  A    between atoms: C_19  and  C_20
REMARK    4  A    between atoms: C_20  and  C_21
REMARK    5  A    between atoms: C_21  and  N_22
REMARK    6  A    between atoms: C_26  and  O_27
REMARK                            x       y       z     vdW  Elec       q    Type
REMARK                         _______ _______ _______ _____ _____    ______ ____
ROOT
ATOM      1  C   UNL     1       2.646   6.278  19.264  0.00  0.00    +0.000 A 
ATOM      2  C   UNL     1       2.479   5.222  20.166  0.00  0.00    +0.000 A 
ATOM      3  C   UNL     1       3.098   3.990  19.958  0.00  0.00    +0.000 A 
ATOM      4  C   UNL     1       3.900   3.786  18.840  0.00  0.00    +0.000 A 
ATOM      5  C   UNL     1       4.080   4.812  17.906  0.00  0.00    +0.000 A 
ATOM      6  C   UNL     1       3.469   6.058  18.146  0.00  0.00    +0.000 A 
ENDROOT
BRANCH   1  16
ATOM      7  O   UNL     1       2.382   8.678  17.402  0.00  0.00    +0.000 OA
ATOM      8  C   UNL     1       1.953   8.579  18.537  0.00  0.00    +0.000 C 
ATOM      9  C   UNL     1       1.266   9.694  19.195  0.00  0.00    +0.000 A 
ATOM     10  C   UNL     1       1.016  10.957  18.696  0.00  0.00    +0.000 A 
ATOM     11  C   UNL     1       0.366  11.860  19.534  0.00  0.00    +0.000 A 
ATOM     12  C   UNL     1      -0.010  11.482  20.836  0.00  0.00    +0.000 A 
ATOM     13  C   UNL     1       0.255  10.189  21.332  0.00  0.00    +0.000 A 
ATOM     14  C   UNL     1       0.898   9.296  20.478  0.00  0.00    +0.000 A 
ATOM     15  C   UNL     1       1.315   7.878  20.696  0.00  0.00    +0.000 C 
ATOM     16  N   UNL     1       1.984   7.522  19.449  0.00  0.00    +0.000 N 
BRANCH  13  17
ATOM     17  C   UNL     1      -0.130   9.792  22.732  0.00  0.00    +0.000 C 
ATOM     18  F   UNL     1       0.926   9.427  23.509  0.00  0.00    +0.000 F 
ATOM     19  F   UNL     1      -0.761  10.797  23.398  0.00  0.00    +0.000 F 
ATOM     20  F   UNL     1      -0.993   8.738  22.748  0.00  0.00    +0.000 F 
ENDBRANCH  13  17
ENDBRANCH   1  16
BRANCH   5  21
ATOM     21  C   UNL     1       4.952   4.646  16.680  0.00  0.00    +0.000 C 
BRANCH  21  22
ATOM     22  C   UNL     1       6.444   4.473  16.976  0.00  0.00    +0.000 C 
BRANCH  22  23
ATOM     23  N   UNL     1       7.066   5.712  17.377  0.00  0.00    +0.000 N 
ATOM     24  C   UNL     1       7.165   6.843  16.622  0.00  0.00    +0.000 A 
ATOM     25  N   UNL     1       7.775   7.777  17.314  0.00  0.00    +0.000 NA
ATOM     26  N   UNL     1       8.077   7.250  18.554  0.00  0.00    +0.000 NA
ATOM     27  C   UNL     1       7.638   6.012  18.574  0.00  0.00    +0.000 A 
BRANCH  27  28
ATOM     28  O   UNL     1       7.728   5.158  19.582  0.00  0.00    +0.000 OA
ATOM     29  F   UNL     1       9.031   5.125  20.121  0.00  0.00    +0.000 F 
ENDBRANCH  27  28
ENDBRANCH  22  23
ENDBRANCH  21  22
ENDBRANCH   5  21
TORSDOF 6
ENDMDL
MODEL 9
REMARK VINA RESULT:      -8.4      3.677      4.638
REMARK  Name = 
REMARK  6 active torsions:
REMARK  status: ('A' for Active; 'I' for Inactive)
REMARK    1  A    between atoms: C_7  and  C_8
REMARK    2  A    between atoms: N_14  and  C_15
REMARK    3  A    between atoms: C_19  and  C_20
REMARK    4  A    between atoms: C_20  and  C_21
REMARK    5  A    between atoms: C_21  and  N_22
REMARK    6  A    between atoms: C_26  and  O_27
REMARK                            x       y       z     vdW  Elec       q    Type
REMARK                         _______ _______ _______ _____ _____    ______ ____
ROOT
ATOM      1  C   UNL     1       2.826   6.954  18.913  0.00  0.00    +0.000 A 
ATOM      2  C   UNL     1       2.871   5.810  19.718  0.00  0.00    +0.000 A 
ATOM      3  C   UNL     1       3.679   4.723  19.384  0.00  0.00    +0.000 A 
ATOM      4  C   UNL     1       4.461   4.756  18.234  0.00  0.00    +0.000 A 
ATOM      5  C   UNL     1       4.432   5.875  17.394  0.00  0.00    +0.000 A 
ATOM      6  C   UNL     1       3.631   6.974  17.762  0.00  0.00    +0.000 A 
ENDROOT
BRANCH   1  16
ATOM      7  O   UNL     1       2.070   9.410  17.274  0.00  0.00    +0.000 OA
ATOM      8  C   UNL     1       1.720   9.151  18.411  0.00  0.00    +0.000 C 
ATOM      9  C   UNL     1       0.888  10.075  19.185  0.00  0.00    +0.000 A 
ATOM     10  C   UNL     1       0.405  11.312  18.805  0.00  0.00    +0.000 A 
ATOM     11  C   UNL     1      -0.346  12.021  19.739  0.00  0.00    +0.000 A 
ATOM     12  C   UNL     1      -0.588  11.484  21.017  0.00  0.00    +0.000 A 
ATOM     13  C   UNL     1      -0.084  10.222  21.391  0.00  0.00    +0.000 A 
ATOM     14  C   UNL     1       0.657   9.522  20.441  0.00  0.00    +0.000 A 
ATOM     15  C   UNL     1       1.317   8.184  20.523  0.00  0.00    +0.000 C 
ATOM     16  N   UNL     1       1.974   8.047  19.228  0.00  0.00    +0.000 N 
BRANCH  13  17
ATOM     17  C   UNL     1      -0.327   9.656  22.765  0.00  0.00    +0.000 C 
ATOM     18  F   UNL     1       0.810   9.458  23.485  0.00  0.00    +0.000 F 
ATOM     19  F   UNL     1      -1.120  10.463  23.522  0.00  0.00    +0.000 F 
ATOM     20  F   UNL     1      -0.960   8.452  22.720  0.00  0.00    +0.000 F 
ENDBRANCH  13  17
ENDBRANCH   1  16
BRANCH   5  21
ATOM     21  C   UNL     1       5.273   5.965  16.139  0.00  0.00    +0.000 C 
BRANCH  21  22
ATOM     22  C   UNL     1       6.227   4.789  15.922  0.00  0.00    +0.000 C 
BRANCH  22  23
ATOM     23  N   UNL     1       6.376   4.461  14.525  0.00  0.00    +0.000 N 
ATOM     24  C   UNL     1       5.554   3.654  13.797  0.00  0.00    +0.000 A 
ATOM     25  N   UNL     1       5.984   3.597  12.557  0.00  0.00    +0.000 NA
ATOM     26  N   UNL     1       7.110   4.391  12.468  0.00  0.00    +0.000 NA
ATOM     27  C   UNL     1       7.326   4.905  13.657  0.00  0.00    +0.000 A 
BRANCH  27  28
ATOM     28  O   UNL     1       8.308   5.725  13.998  0.00  0.00    +0.000 OA
ATOM     29  F   UNL     1       9.120   6.053  12.891  0.00  0.00    +0.000 F 
ENDBRANCH  27  28
ENDBRANCH  22  23
ENDBRANCH  21  22
ENDBRANCH   5  21
TORSDOF 6
ENDMDL
