MODEL 1
REMARK VINA RESULT:      -8.6      0.000      0.000
REMARK  Name = 
REMARK  4 active torsions:
REMARK  status: ('A' for Active; 'I' for Inactive)
REMARK    1  A    between atoms: C_2  and  C_3
REMARK    2  A    between atoms: C_8  and  O_9
REMARK    3  A    between atoms: O_9  and  C_10
REMARK    4  A    between atoms: C_21  and  C_22
REMARK                            x       y       z     vdW  Elec       q    Type
REMARK                         _______ _______ _______ _____ _____    ______ ____
ROOT
ATOM      1  C   UNL     1       0.953   8.350  20.573  0.00  0.00    +0.000 A 
ATOM      2  C   UNL     1       1.483   8.859  19.401  0.00  0.00    +0.000 A 
ATOM      3  C   UNL     1       2.357   7.904  18.846  0.00  0.00    +0.000 A 
ATOM      4  C   UNL     1       3.104   7.867  17.659  0.00  0.00    +0.000 A 
ATOM      5  C   UNL     1       3.948   6.782  17.415  0.00  0.00    +0.000 A 
ATOM      6  C   UNL     1       4.006   5.712  18.304  0.00  0.00    +0.000 A 
ATOM      7  C   UNL     1       3.265   5.742  19.503  0.00  0.00    +0.000 A 
ATOM      8  C   UNL     1       2.441   6.848  19.746  0.00  0.00    +0.000 A 
ATOM      9  N   UNL     1       1.607   7.157  20.800  0.00  0.00    +0.000 N 
ATOM     10  H   UNL     1       1.477   6.589  21.635  0.00  0.00    +0.000 HD
ENDROOT
BRANCH   1  12
ATOM     11  O   UNL     1      -0.823   8.233  22.084  0.00  0.00    +0.000 OA
ATOM     12  C   UNL     1      -0.024   8.941  21.471  0.00  0.00    +0.000 C 
ATOM     13  N   UNL     1       0.001  10.325  21.618  0.00  0.00    +0.000 N 
ATOM     14  C   UNL     1      -0.683  10.966  22.737  0.00  0.00    +0.000 C 
ATOM     15  C   UNL     1      -1.674  12.046  22.282  0.00  0.00    +0.000 C 
ATOM     16  O   UNL     1      -1.156  12.924  21.268  0.00  0.00    +0.000 OA
ATOM     17  C   UNL     1      -0.619  12.217  20.128  0.00  0.00    +0.000 C 
ATOM     18  C   UNL     1       0.507  11.286  20.625  0.00  0.00    +0.000 C 
BRANCH  17  19
ATOM     19  C   UNL     1      -1.696  11.569  19.259  0.00  0.00    +0.000 A 
ATOM     20  C   UNL     1      -2.991  12.110  19.236  0.00  0.00    +0.000 A 
ATOM     21  C   UNL     1      -3.996  11.544  18.447  0.00  0.00    +0.000 A 
ATOM     22  C   UNL     1      -3.720  10.438  17.649  0.00  0.00    +0.000 A 
ATOM     23  C   UNL     1      -2.436   9.905  17.629  0.00  0.00    +0.000 A 
ATOM     24  C   UNL     1      -1.431  10.474  18.416  0.00  0.00    +0.000 A 
ENDBRANCH  17  19
ENDBRANCH   1  12
BRANCH   6  25
ATOM     25  O   UNL     1       4.778   4.597  18.148  0.00  0.00    +0.000 OA
BRANCH  25  26
ATOM     26  C   UNL     1       4.301   3.514  17.360  0.00  0.00    +0.000 C 
ATOM     27  F   UNL     1       3.092   3.723  16.798  0.00  0.00    +0.000 F 
ATOM     28  F   UNL     1       5.194   3.234  16.385  0.00  0.00    +0.000 F 
ATOM     29  F   UNL     1       4.194   2.428  18.157  0.00  0.00    +0.000 F 
ENDBRANCH  25  26
ENDBRANCH   6  25
TORSDOF 4
ENDMDL
MODEL 2
REMARK VINA RESULT:      -8.3      1.319      1.526
REMARK  Name = 
REMARK  4 active torsions:
REMARK  status: ('A' for Active; 'I' for Inactive)
REMARK    1  A    between atoms: C_2  and  C_3
REMARK    2  A    between atoms: C_8  and  O_9
REMARK    3  A    between atoms: O_9  and  C_10
REMARK    4  A    between atoms: C_21  and  C_22
REMARK                            x       y       z     vdW  Elec       q    Type
REMARK                         _______ _______ _______ _____ _____    ______ ____
ROOT
ATOM      1  C   UNL     1       1.014   8.348  20.482  0.00  0.00    +0.000 A 
ATOM      2  C   UNL     1       1.393   8.809  19.234  0.00  0.00    +0.000 A 
ATOM      3  C   UNL     1       2.368   7.940  18.708  0.00  0.00    +0.000 A 
ATOM      4  C   UNL     1       3.044   7.893  17.479  0.00  0.00    +0.000 A 
ATOM      5  C   UNL     1       4.027   6.924  17.275  0.00  0.00    +0.000 A 
ATOM      6  C   UNL     1       4.297   5.968  18.252  0.00  0.00    +0.000 A 
ATOM      7  C   UNL     1       3.630   6.010  19.492  0.00  0.00    +0.000 A 
ATOM      8  C   UNL     1       2.662   7.004  19.692  0.00  0.00    +0.000 A 
ATOM      9  N   UNL     1       1.853   7.291  20.770  0.00  0.00    +0.000 N 
ATOM     10  H   UNL     1       1.857   6.797  21.660  0.00  0.00    +0.000 HD
ENDROOT
BRANCH   1  12
ATOM     11  O   UNL     1      -0.789   8.128  21.951  0.00  0.00    +0.000 OA
ATOM     12  C   UNL     1       0.010   8.878  21.390  0.00  0.00    +0.000 C 
ATOM     13  N   UNL     1       0.012  10.252  21.609  0.00  0.00    +0.000 N 
ATOM     14  C   UNL     1      -0.703  10.825  22.746  0.00  0.00    +0.000 C 
ATOM     15  C   UNL     1      -1.703  11.912  22.327  0.00  0.00    +0.000 C 
ATOM     16  O   UNL     1      -1.180  12.849  21.370  0.00  0.00    +0.000 OA
ATOM     17  C   UNL     1      -0.610  12.210  20.206  0.00  0.00    +0.000 C 
ATOM     18  C   UNL     1       0.521  11.271  20.676  0.00  0.00    +0.000 C 
BRANCH  17  19
ATOM     19  C   UNL     1      -1.661  11.591  19.284  0.00  0.00    +0.000 A 
ATOM     20  C   UNL     1      -2.961  12.120  19.256  0.00  0.00    +0.000 A 
ATOM     21  C   UNL     1      -3.941  11.581  18.420  0.00  0.00    +0.000 A 
ATOM     22  C   UNL     1      -3.636  10.515  17.578  0.00  0.00    +0.000 A 
ATOM     23  C   UNL     1      -2.346   9.998  17.562  0.00  0.00    +0.000 A 
ATOM     24  C   UNL     1      -1.365  10.540  18.397  0.00  0.00    +0.000 A 
ENDBRANCH  17  19
ENDBRANCH   1  12
BRANCH   6  25
ATOM     25  O   UNL     1       5.219   4.967  18.142  0.00  0.00    +0.000 OA
BRANCH  25  26
ATOM     26  C   UNL     1       6.591   5.241  18.388  0.00  0.00    +0.000 C 
ATOM     27  F   UNL     1       7.045   6.375  17.815  0.00  0.00    +0.000 F 
ATOM     28  F   UNL     1       6.810   5.306  19.719  0.00  0.00    +0.000 F 
ATOM     29  F   UNL     1       7.321   4.218  17.891  0.00  0.00    +0.000 F 
ENDBRANCH  25  26
ENDBRANCH   6  25
TORSDOF 4
ENDMDL
MODEL 3
REMARK VINA RESULT:      -8.3      0.328      1.217
REMARK  Name = 
REMARK  4 active torsions:
REMARK  status: ('A' for Active; 'I' for Inactive)
REMARK    1  A    between atoms: C_2  and  C_3
REMARK    2  A    between atoms: C_8  and  O_9
REMARK    3  A    between atoms: O_9  and  C_10
REMARK    4  A    between atoms: C_21  and  C_22
REMARK                            x       y       z     vdW  Elec       q    Type
REMARK                         _______ _______ _______ _____ _____    ______ ____
ROOT
ATOM      1  C   UNL     1       0.989   8.490  20.544  0.00  0.00    +0.000 A 
ATOM      2  C   UNL     1       1.597   8.912  19.375  0.00  0.00    +0.000 A 
ATOM      3  C   UNL     1       2.389   7.861  18.871  0.00  0.00    +0.000 A 
ATOM      4  C   UNL     1       3.162   7.718  17.709  0.00  0.00    +0.000 A 
ATOM      5  C   UNL     1       3.902   6.551  17.519  0.00  0.00    +0.000 A 
ATOM      6  C   UNL     1       3.832   5.506  18.437  0.00  0.00    +0.000 A 
ATOM      7  C   UNL     1       3.065   5.641  19.612  0.00  0.00    +0.000 A 
ATOM      8  C   UNL     1       2.345   6.829  19.802  0.00  0.00    +0.000 A 
ATOM      9  N   UNL     1       1.517   7.246  20.822  0.00  0.00    +0.000 N 
ATOM     10  H   UNL     1       1.310   6.718  21.666  0.00  0.00    +0.000 HD
ENDROOT
BRANCH   1  12
ATOM     11  O   UNL     1      -0.755   8.580  22.094  0.00  0.00    +0.000 OA
ATOM     12  C   UNL     1       0.049   9.199  21.396  0.00  0.00    +0.000 C 
ATOM     13  N   UNL     1       0.117  10.588  21.401  0.00  0.00    +0.000 N 
ATOM     14  C   UNL     1      -0.523  11.360  22.462  0.00  0.00    +0.000 C 
ATOM     15  C   UNL     1      -1.494  12.417  21.919  0.00  0.00    +0.000 C 
ATOM     16  O   UNL     1      -0.976  13.173  20.811  0.00  0.00    +0.000 OA
ATOM     17  C   UNL     1      -0.484  12.338  19.739  0.00  0.00    +0.000 C 
ATOM     18  C   UNL     1       0.626  11.428  20.304  0.00  0.00    +0.000 C 
BRANCH  17  19
ATOM     19  C   UNL     1      -1.599  11.637  18.962  0.00  0.00    +0.000 A 
ATOM     20  C   UNL     1      -1.296  10.528  18.156  0.00  0.00    +0.000 A 
ATOM     21  C   UNL     1      -2.294   9.863  17.439  0.00  0.00    +0.000 A 
ATOM     22  C   UNL     1      -3.618  10.281  17.529  0.00  0.00    +0.000 A 
ATOM     23  C   UNL     1      -3.948  11.355  18.348  0.00  0.00    +0.000 A 
ATOM     24  C   UNL     1      -2.949  12.017  19.067  0.00  0.00    +0.000 A 
ENDBRANCH  17  19
ENDBRANCH   1  12
BRANCH   6  25
ATOM     25  O   UNL     1       4.496   4.317  18.333  0.00  0.00    +0.000 OA
BRANCH  25  26
ATOM     26  C   UNL     1       4.104   3.376  17.343  0.00  0.00    +0.000 C 
ATOM     27  F   UNL     1       4.174   2.087  17.739  0.00  0.00    +0.000 F 
ATOM     28  F   UNL     1       2.843   3.640  16.938  0.00  0.00    +0.000 F 
ATOM     29  F   UNL     1       4.926   3.516  16.279  0.00  0.00    +0.000 F 
ENDBRANCH  25  26
ENDBRANCH   6  25
TORSDOF 4
ENDMDL
MODEL 4
REMARK VINA RESULT:      -8.2      1.045      1.353
REMARK  Name = 
REMARK  4 active torsions:
REMARK  status: ('A' for Active; 'I' for Inactive)
REMARK    1  A    between atoms: C_2  and  C_3
REMARK    2  A    between atoms: C_8  and  O_9
REMARK    3  A    between atoms: O_9  and  C_10
REMARK    4  A    between atoms: C_21  and  C_22
REMARK                            x       y       z     vdW  Elec       q    Type
REMARK                         _______ _______ _______ _____ _____    ______ ____
ROOT
ATOM      1  C   UNL     1       1.152   8.328  20.512  0.00  0.00    +0.000 A 
ATOM      2  C   UNL     1       1.826   8.544  19.324  0.00  0.00    +0.000 A 
ATOM      3  C   UNL     1       2.455   7.345  18.934  0.00  0.00    +0.000 A 
ATOM      4  C   UNL     1       3.206   6.981  17.806  0.00  0.00    +0.000 A 
ATOM      5  C   UNL     1       3.763   5.704  17.739  0.00  0.00    +0.000 A 
ATOM      6  C   UNL     1       3.530   4.771  18.747  0.00  0.00    +0.000 A 
ATOM      7  C   UNL     1       2.783   5.127  19.888  0.00  0.00    +0.000 A 
ATOM      8  C   UNL     1       2.249   6.422  19.953  0.00  0.00    +0.000 A 
ATOM      9  N   UNL     1       1.485   7.050  20.913  0.00  0.00    +0.000 N 
ATOM     10  H   UNL     1       1.194   6.640  21.797  0.00  0.00    +0.000 HD
ENDROOT
BRANCH   1  12
ATOM     11  O   UNL     1      -0.490   8.820  22.098  0.00  0.00    +0.000 OA
ATOM     12  C   UNL     1       0.323   9.244  21.277  0.00  0.00    +0.000 C 
ATOM     13  N   UNL     1       0.507  10.606  21.054  0.00  0.00    +0.000 N 
ATOM     14  C   UNL     1      -0.007  11.590  22.002  0.00  0.00    +0.000 C 
ATOM     15  C   UNL     1      -0.915  12.633  21.335  0.00  0.00    +0.000 C 
ATOM     16  O   UNL     1      -0.397  13.154  20.099  0.00  0.00    +0.000 OA
ATOM     17  C   UNL     1      -0.037  12.119  19.157  0.00  0.00    +0.000 C 
ATOM     18  C   UNL     1       1.023  11.212  19.816  0.00  0.00    +0.000 C 
BRANCH  17  19
ATOM     19  C   UNL     1      -1.248  11.409  18.550  0.00  0.00    +0.000 A 
ATOM     20  C   UNL     1      -2.526  11.973  18.686  0.00  0.00    +0.000 A 
ATOM     21  C   UNL     1      -3.651  11.352  18.138  0.00  0.00    +0.000 A 
ATOM     22  C   UNL     1      -3.518  10.165  17.423  0.00  0.00    +0.000 A 
ATOM     23  C   UNL     1      -2.257   9.606  17.245  0.00  0.00    +0.000 A 
ATOM     24  C   UNL     1      -1.133  10.230  17.791  0.00  0.00    +0.000 A 
ENDBRANCH  17  19
ENDBRANCH   1  12
BRANCH   6  25
ATOM     25  O   UNL     1       4.008   3.492  18.764  0.00  0.00    +0.000 OA
BRANCH  25  26
ATOM     26  C   UNL     1       3.176   2.422  18.336  0.00  0.00    +0.000 C 
ATOM     27  F   UNL     1       3.836   1.402  17.749  0.00  0.00    +0.000 F 
ATOM     28  F   UNL     1       2.476   1.942  19.387  0.00  0.00    +0.000 F 
ATOM     29  F   UNL     1       2.297   2.908  17.431  0.00  0.00    +0.000 F 
ENDBRANCH  25  26
ENDBRANCH   6  25
TORSDOF 4
ENDMDL
MODEL 5
REMARK VINA RESULT:      -8.2      1.343      1.808
REMARK  Name = 
REMARK  4 active torsions:
REMARK  status: ('A' for Active; 'I' for Inactive)
REMARK    1  A    between atoms: C_2  and  C_3
REMARK    2  A    between atoms: C_8  and  O_9
REMARK    3  A    between atoms: O_9  and  C_10
REMARK    4  A    between atoms: C_21  and  C_22
REMARK                            x       y       z     vdW  Elec       q    Type
REMARK                         _______ _______ _______ _____ _____    ______ ____
ROOT
ATOM      1  C   UNL     1       1.036   8.293  20.480  0.00  0.00    +0.000 A 
ATOM      2  C   UNL     1       1.419   8.774  19.240  0.00  0.00    +0.000 A 
ATOM      3  C   UNL     1       2.397   7.916  18.703  0.00  0.00    +0.000 A 
ATOM      4  C   UNL     1       3.077   7.889  17.476  0.00  0.00    +0.000 A 
ATOM      5  C   UNL     1       4.062   6.924  17.259  0.00  0.00    +0.000 A 
ATOM      6  C   UNL     1       4.330   5.953  18.222  0.00  0.00    +0.000 A 
ATOM      7  C   UNL     1       3.658   5.974  19.461  0.00  0.00    +0.000 A 
ATOM      8  C   UNL     1       2.689   6.963  19.673  0.00  0.00    +0.000 A 
ATOM      9  N   UNL     1       1.876   7.233  20.753  0.00  0.00    +0.000 N 
ATOM     10  H   UNL     1       1.878   6.725  21.635  0.00  0.00    +0.000 HD
ENDROOT
BRANCH   1  12
ATOM     11  O   UNL     1      -0.802   8.054  21.900  0.00  0.00    +0.000 OA
ATOM     12  C   UNL     1       0.029   8.807  21.393  0.00  0.00    +0.000 C 
ATOM     13  N   UNL     1       0.064  10.169  21.678  0.00  0.00    +0.000 N 
ATOM     14  C   UNL     1      -0.658  10.707  22.827  0.00  0.00    +0.000 C 
ATOM     15  C   UNL     1      -1.618  11.841  22.443  0.00  0.00    +0.000 C 
ATOM     16  O   UNL     1      -1.050  12.807  21.543  0.00  0.00    +0.000 OA
ATOM     17  C   UNL     1      -0.474  12.208  20.360  0.00  0.00    +0.000 C 
ATOM     18  C   UNL     1       0.621  11.216  20.806  0.00  0.00    +0.000 C 
BRANCH  17  19
ATOM     19  C   UNL     1      -1.522  11.665  19.389  0.00  0.00    +0.000 A 
ATOM     20  C   UNL     1      -1.181  10.631  18.503  0.00  0.00    +0.000 A 
ATOM     21  C   UNL     1      -2.117  10.110  17.608  0.00  0.00    +0.000 A 
ATOM     22  C   UNL     1      -3.421  10.598  17.594  0.00  0.00    +0.000 A 
ATOM     23  C   UNL     1      -3.791  11.598  18.485  0.00  0.00    +0.000 A 
ATOM     24  C   UNL     1      -2.854  12.117  19.383  0.00  0.00    +0.000 A 
ENDBRANCH  17  19
ENDBRANCH   1  12
BRANCH   6  25
ATOM     25  O   UNL     1       5.253   4.955  18.099  0.00  0.00    +0.000 OA
BRANCH  25  26
ATOM     26  C   UNL     1       6.612   5.206  18.428  0.00  0.00    +0.000 C 
ATOM     27  F   UNL     1       6.853   5.329  19.751  0.00  0.00    +0.000 F 
ATOM     28  F   UNL     1       7.390   4.219  17.932  0.00  0.00    +0.000 F 
ATOM     29  F   UNL     1       6.980   6.367  17.841  0.00  0.00    +0.000 F 
ENDBRANCH  25  26
ENDBRANCH   6  25
TORSDOF 4
ENDMDL
MODEL 6
REMARK VINA RESULT:      -8.2      0.873      1.306
REMARK  Name = 
REMARK  4 active torsions:
REMARK  status: ('A' for Active; 'I' for Inactive)
REMARK    1  A    between atoms: C_2  and  C_3
REMARK    2  A    between atoms: C_8  and  O_9
REMARK    3  A    between atoms: O_9  and  C_10
REMARK    4  A    between atoms: C_21  and  C_22
REMARK                            x       y       z     vdW  Elec       q    Type
REMARK                         _______ _______ _______ _____ _____    ______ ____
ROOT
ATOM      1  C   UNL     1       1.017   8.102  20.631  0.00  0.00    +0.000 A 
ATOM      2  C   UNL     1       1.728   8.444  19.495  0.00  0.00    +0.000 A 
ATOM      3  C   UNL     1       2.424   7.309  19.036  0.00  0.00    +0.000 A 
ATOM      4  C   UNL     1       3.235   7.072  17.916  0.00  0.00    +0.000 A 
ATOM      5  C   UNL     1       3.851   5.829  17.768  0.00  0.00    +0.000 A 
ATOM      6  C   UNL     1       3.619   4.805  18.684  0.00  0.00    +0.000 A 
ATOM      7  C   UNL     1       2.812   5.034  19.817  0.00  0.00    +0.000 A 
ATOM      8  C   UNL     1       2.218   6.295  19.965  0.00  0.00    +0.000 A 
ATOM      9  N   UNL     1       1.390   6.810  20.940  0.00  0.00    +0.000 N 
ATOM     10  H   UNL     1       1.082   6.315  21.774  0.00  0.00    +0.000 HD
ENDROOT
BRANCH   1  12
ATOM     11  O   UNL     1      -0.768   8.394  22.108  0.00  0.00    +0.000 OA
ATOM     12  C   UNL     1       0.118   8.916  21.432  0.00  0.00    +0.000 C 
ATOM     13  N   UNL     1       0.321  10.293  21.414  0.00  0.00    +0.000 N 
ATOM     14  C   UNL     1      -0.282  11.146  22.434  0.00  0.00    +0.000 C 
ATOM     15  C   UNL     1      -1.124  12.280  21.833  0.00  0.00    +0.000 C 
ATOM     16  O   UNL     1      -0.491  12.957  20.733  0.00  0.00    +0.000 OA
ATOM     17  C   UNL     1      -0.043  12.055  19.697  0.00  0.00    +0.000 C 
ATOM     18  C   UNL     1       0.952  11.055  20.324  0.00  0.00    +0.000 C 
BRANCH  17  19
ATOM     19  C   UNL     1      -1.189  11.448  18.888  0.00  0.00    +0.000 A 
ATOM     20  C   UNL     1      -0.951  10.332  18.071  0.00  0.00    +0.000 A 
ATOM     21  C   UNL     1      -1.979   9.751  17.324  0.00  0.00    +0.000 A 
ATOM     22  C   UNL     1      -3.272  10.262  17.397  0.00  0.00    +0.000 A 
ATOM     23  C   UNL     1      -3.539  11.345  18.226  0.00  0.00    +0.000 A 
ATOM     24  C   UNL     1      -2.510  11.923  18.974  0.00  0.00    +0.000 A 
ENDBRANCH  17  19
ENDBRANCH   1  12
BRANCH   6  25
ATOM     25  O   UNL     1       4.152   3.551  18.617  0.00  0.00    +0.000 OA
BRANCH  25  26
ATOM     26  C   UNL     1       3.344   2.463  18.188  0.00  0.00    +0.000 C 
ATOM     27  F   UNL     1       2.308   2.815  17.398  0.00  0.00    +0.000 F 
ATOM     28  F   UNL     1       4.107   1.561  17.533  0.00  0.00    +0.000 F 
ATOM     29  F   UNL     1       2.829   1.862  19.284  0.00  0.00    +0.000 F 
ENDBRANCH  25  26
ENDBRANCH   6  25
TORSDOF 4
ENDMDL
MODEL 7
REMARK VINA RESULT:      -8.1      4.075      8.604
REMARK  Name = 
REMARK  4 active torsions:
REMARK  status: ('A' for Active; 'I' for Inactive)
REMARK    1  A    between atoms: C_2  and  C_3
REMARK    2  A    between atoms: C_8  and  O_9
REMARK    3  A    between atoms: O_9  and  C_10
REMARK    4  A    between atoms: C_21  and  C_22
REMARK                            x       y       z     vdW  Elec       q    Type
REMARK                         _______ _______ _______ _____ _____    ______ ____
ROOT
ATOM      1  C   UNL     1       2.095   6.427  19.945  0.00  0.00    +0.000 A 
ATOM      2  C   UNL     1       2.288   7.124  18.766  0.00  0.00    +0.000 A 
ATOM      3  C   UNL     1       1.883   8.459  18.957  0.00  0.00    +0.000 A 
ATOM      4  C   UNL     1       1.913   9.596  18.134  0.00  0.00    +0.000 A 
ATOM      5  C   UNL     1       1.365  10.792  18.598  0.00  0.00    +0.000 A 
ATOM      6  C   UNL     1       0.847  10.884  19.888  0.00  0.00    +0.000 A 
ATOM      7  C   UNL     1       0.805   9.748  20.721  0.00  0.00    +0.000 A 
ATOM      8  C   UNL     1       1.338   8.547  20.233  0.00  0.00    +0.000 A 
ATOM      9  N   UNL     1       1.447   7.295  20.800  0.00  0.00    +0.000 N 
ATOM     10  H   UNL     1       1.108   7.034  21.723  0.00  0.00    +0.000 HD
ENDROOT
BRANCH   1  12
ATOM     11  O   UNL     1       2.911   4.736  21.333  0.00  0.00    +0.000 OA
ATOM     12  C   UNL     1       2.405   5.041  20.253  0.00  0.00    +0.000 C 
ATOM     13  N   UNL     1       2.086   4.088  19.291  0.00  0.00    +0.000 N 
ATOM     14  C   UNL     1       2.029   2.671  19.637  0.00  0.00    +0.000 C 
ATOM     15  C   UNL     1       2.926   1.808  18.740  0.00  0.00    +0.000 C 
ATOM     16  O   UNL     1       2.829   2.122  17.340  0.00  0.00    +0.000 OA
ATOM     17  C   UNL     1       3.033   3.525  17.061  0.00  0.00    +0.000 C 
ATOM     18  C   UNL     1       1.976   4.332  17.843  0.00  0.00    +0.000 C 
BRANCH  17  19
ATOM     19  C   UNL     1       4.486   3.969  17.235  0.00  0.00    +0.000 A 
ATOM     20  C   UNL     1       5.366   3.913  16.143  0.00  0.00    +0.000 A 
ATOM     21  C   UNL     1       6.697   4.317  16.269  0.00  0.00    +0.000 A 
ATOM     22  C   UNL     1       7.170   4.804  17.483  0.00  0.00    +0.000 A 
ATOM     23  C   UNL     1       6.308   4.901  18.569  0.00  0.00    +0.000 A 
ATOM     24  C   UNL     1       4.975   4.500  18.441  0.00  0.00    +0.000 A 
ENDBRANCH  17  19
ENDBRANCH   1  12
BRANCH   6  25
ATOM     25  O   UNL     1       0.312  12.010  20.444  0.00  0.00    +0.000 OA
BRANCH  25  26
ATOM     26  C   UNL     1      -1.092  12.224  20.391  0.00  0.00    +0.000 C 
ATOM     27  F   UNL     1      -1.743  11.442  19.504  0.00  0.00    +0.000 F 
ATOM     28  F   UNL     1      -1.628  12.035  21.616  0.00  0.00    +0.000 F 
ATOM     29  F   UNL     1      -1.309  13.509  20.030  0.00  0.00    +0.000 F 
ENDBRANCH  25  26
ENDBRANCH   6  25
TORSDOF 4
ENDMDL
MODEL 8
REMARK VINA RESULT:      -8.1      4.010      8.713
REMARK  Name = 
REMARK  4 active torsions:
REMARK  status: ('A' for Active; 'I' for Inactive)
REMARK    1  A    between atoms: C_2  and  C_3
REMARK    2  A    between atoms: C_8  and  O_9
REMARK    3  A    between atoms: O_9  and  C_10
REMARK    4  A    between atoms: C_21  and  C_22
REMARK                            x       y       z     vdW  Elec       q    Type
REMARK                         _______ _______ _______ _____ _____    ______ ____
ROOT
ATOM      1  C   UNL     1       2.861   6.311  18.839  0.00  0.00    +0.000 A 
ATOM      2  C   UNL     1       2.311   7.321  18.071  0.00  0.00    +0.000 A 
ATOM      3  C   UNL     1       1.772   8.300  18.927  0.00  0.00    +0.000 A 
ATOM      4  C   UNL     1       1.159   9.542  18.695  0.00  0.00    +0.000 A 
ATOM      5  C   UNL     1       0.660  10.270  19.775  0.00  0.00    +0.000 A 
ATOM      6  C   UNL     1       0.819   9.809  21.080  0.00  0.00    +0.000 A 
ATOM      7  C   UNL     1       1.426   8.561  21.324  0.00  0.00    +0.000 A 
ATOM      8  C   UNL     1       1.902   7.828  20.228  0.00  0.00    +0.000 A 
ATOM      9  N   UNL     1       2.535   6.606  20.147  0.00  0.00    +0.000 N 
ATOM     10  H   UNL     1       2.745   5.998  20.935  0.00  0.00    +0.000 HD
ENDROOT
BRANCH   1  12
ATOM     11  O   UNL     1       3.699   4.158  19.176  0.00  0.00    +0.000 OA
ATOM     12  C   UNL     1       3.570   5.116  18.414  0.00  0.00    +0.000 C 
ATOM     13  N   UNL     1       4.067   5.099  17.115  0.00  0.00    +0.000 N 
ATOM     14  C   UNL     1       4.470   3.843  16.488  0.00  0.00    +0.000 C 
ATOM     15  C   UNL     1       5.911   3.882  15.962  0.00  0.00    +0.000 C 
ATOM     16  O   UNL     1       6.237   5.083  15.241  0.00  0.00    +0.000 OA
ATOM     17  C   UNL     1       5.936   6.286  15.982  0.00  0.00    +0.000 C 
ATOM     18  C   UNL     1       4.430   6.283  16.318  0.00  0.00    +0.000 C 
BRANCH  17  19
ATOM     19  C   UNL     1       6.888   6.526  17.154  0.00  0.00    +0.000 A 
ATOM     20  C   UNL     1       7.460   7.795  17.339  0.00  0.00    +0.000 A 
ATOM     21  C   UNL     1       8.328   8.047  18.403  0.00  0.00    +0.000 A 
ATOM     22  C   UNL     1       8.627   7.041  19.317  0.00  0.00    +0.000 A 
ATOM     23  C   UNL     1       8.047   5.786  19.174  0.00  0.00    +0.000 A 
ATOM     24  C   UNL     1       7.175   5.536  18.111  0.00  0.00    +0.000 A 
ENDBRANCH  17  19
ENDBRANCH   1  12
BRANCH   6  25
ATOM     25  O   UNL     1       0.389  10.455  22.203  0.00  0.00    +0.000 OA
BRANCH  25  26
ATOM     26  C   UNL     1      -0.479   9.791  23.110  0.00  0.00    +0.000 C 
ATOM     27  F   UNL     1      -1.097   8.705  22.599  0.00  0.00    +0.000 F 
ATOM     28  F   UNL     1       0.210   9.422  24.212  0.00  0.00    +0.000 F 
ATOM     29  F   UNL     1      -1.441  10.662  23.488  0.00  0.00    +0.000 F 
ENDBRANCH  25  26
ENDBRANCH   6  25
TORSDOF 4
ENDMDL
MODEL 9
REMARK VINA RESULT:      -8.0      4.343      8.587
REMARK  Name = 
REMARK  4 active torsions:
REMARK  status: ('A' for Active; 'I' for Inactive)
REMARK    1  A    between atoms: C_2  and  C_3
REMARK    2  A    between atoms: C_8  and  O_9
REMARK    3  A    between atoms: O_9  and  C_10
REMARK    4  A    between atoms: C_21  and  C_22
REMARK                            x       y       z     vdW  Elec       q    Type
REMARK                         _______ _______ _______ _____ _____    ______ ____
ROOT
ATOM      1  C   UNL     1       2.054   6.447  19.979  0.00  0.00    +0.000 A 
ATOM      2  C   UNL     1       2.230   7.142  18.797  0.00  0.00    +0.000 A 
ATOM      3  C   UNL     1       1.845   8.482  18.997  0.00  0.00    +0.000 A 
ATOM      4  C   UNL     1       1.870   9.618  18.174  0.00  0.00    +0.000 A 
ATOM      5  C   UNL     1       1.347  10.821  18.651  0.00  0.00    +0.000 A 
ATOM      6  C   UNL     1       0.859  10.918  19.952  0.00  0.00    +0.000 A 
ATOM      7  C   UNL     1       0.821   9.782  20.786  0.00  0.00    +0.000 A 
ATOM      8  C   UNL     1       1.329   8.575  20.285  0.00  0.00    +0.000 A 
ATOM      9  N   UNL     1       1.436   7.322  20.849  0.00  0.00    +0.000 N 
ATOM     10  H   UNL     1       1.113   7.064  21.779  0.00  0.00    +0.000 HD
ENDROOT
BRANCH   1  12
ATOM     11  O   UNL     1       2.856   4.742  21.359  0.00  0.00    +0.000 OA
ATOM     12  C   UNL     1       2.354   5.057  20.280  0.00  0.00    +0.000 C 
ATOM     13  N   UNL     1       2.030   4.112  19.311  0.00  0.00    +0.000 N 
ATOM     14  C   UNL     1       1.962   2.693  19.650  0.00  0.00    +0.000 C 
ATOM     15  C   UNL     1       2.855   1.829  18.749  0.00  0.00    +0.000 C 
ATOM     16  O   UNL     1       2.761   2.151  17.351  0.00  0.00    +0.000 OA
ATOM     17  C   UNL     1       2.975   3.555  17.079  0.00  0.00    +0.000 C 
ATOM     18  C   UNL     1       1.923   4.365  17.865  0.00  0.00    +0.000 C 
BRANCH  17  19
ATOM     19  C   UNL     1       4.430   3.987  17.257  0.00  0.00    +0.000 A 
ATOM     20  C   UNL     1       5.317   3.913  16.171  0.00  0.00    +0.000 A 
ATOM     21  C   UNL     1       6.651   4.307  16.300  0.00  0.00    +0.000 A 
ATOM     22  C   UNL     1       7.121   4.802  17.513  0.00  0.00    +0.000 A 
ATOM     23  C   UNL     1       6.253   4.917  18.593  0.00  0.00    +0.000 A 
ATOM     24  C   UNL     1       4.918   4.526  18.462  0.00  0.00    +0.000 A 
ENDBRANCH  17  19
ENDBRANCH   1  12
BRANCH   6  25
ATOM     25  O   UNL     1       0.349  12.050  20.521  0.00  0.00    +0.000 OA
BRANCH  25  26
ATOM     26  C   UNL     1       1.181  13.188  20.696  0.00  0.00    +0.000 C 
ATOM     27  F   UNL     1       2.481  12.900  20.918  0.00  0.00    +0.000 F 
ATOM     28  F   UNL     1       1.090  13.989  19.613  0.00  0.00    +0.000 F 
ATOM     29  F   UNL     1       0.732  13.878  21.769  0.00  0.00    +0.000 F 
ENDBRANCH  25  26
ENDBRANCH   6  25
TORSDOF 4
ENDMDL
