MODEL 1
REMARK VINA RESULT:      -9.2      0.000      0.000
REMARK  Name = 
REMARK  6 active torsions:
REMARK  status: ('A' for Active; 'I' for Inactive)
REMARK    1  A    between atoms: C_1  and  N_2
REMARK    2  A    between atoms: C_3  and  C_5
REMARK    3  A    between atoms: N_7  and  C_8
REMARK    4  A    between atoms: C_8  and  C_9
REMARK    5  A    between atoms: C_11  and  C_12
REMARK    6  A    between atoms: C_16  and  C_17
REMARK                            x       y       z     vdW  Elec       q    Type
REMARK                         _______ _______ _______ _____ _____    ______ ____
ROOT
ATOM      1  C   UNL     1       0.977  10.192  18.640  0.00  0.00    +0.000 C 
ENDROOT
BRANCH   1   4
ATOM      2  C   UNL     1      -1.253  12.301  20.443  0.00  0.00    +0.000 C 
ATOM      3  C   UNL     1      -0.552  10.950  20.530  0.00  0.00    +0.000 C 
ATOM      4  N   UNL     1      -0.386  10.328  19.204  0.00  0.00    +0.000 N 
ATOM      5  C   UNL     1      -1.471  10.541  18.341  0.00  0.00    +0.000 A 
ATOM      6  C   UNL     1      -1.591   9.862  17.118  0.00  0.00    +0.000 A 
ATOM      7  C   UNL     1      -2.738   9.982  16.322  0.00  0.00    +0.000 A 
ATOM      8  C   UNL     1      -3.799  10.781  16.733  0.00  0.00    +0.000 A 
ATOM      9  C   UNL     1      -3.696  11.494  17.923  0.00  0.00    +0.000 A 
ATOM     10  C   UNL     1      -2.538  11.393  18.701  0.00  0.00    +0.000 A 
ATOM     11  O   UNL     1      -2.530  12.202  19.815  0.00  0.00    +0.000 OA
BRANCH   2  14
ATOM     12  C   UNL     1      -0.214  15.538  18.721  0.00  0.00    +0.000 C 
ATOM     13  N   UNL     1      -0.958  14.452  19.304  0.00  0.00    +0.000 N 
ATOM     14  C   UNL     1      -0.310  13.371  19.865  0.00  0.00    +0.000 C 
ATOM     15  O   UNL     1       0.910  13.311  19.971  0.00  0.00    +0.000 OA
ATOM     16  H   UNL     1      -1.930  14.319  19.046  0.00  0.00    +0.000 HD
ENDBRANCH   2  14
ENDBRANCH   1   4
BRANCH   1  17
ATOM     17  C   UNL     1       1.693   8.883  18.791  0.00  0.00    +0.000 A 
ATOM     18  N   UNL     1       2.374   8.184  17.909  0.00  0.00    +0.000 NA
ATOM     19  C   UNL     1       2.732   7.062  18.627  0.00  0.00    +0.000 A 
ATOM     20  N   UNL     1       2.302   7.072  19.900  0.00  0.00    +0.000 NA
ATOM     21  O   UNL     1       1.592   8.262  20.002  0.00  0.00    +0.000 OA
BRANCH  19  22
ATOM     22  C   UNL     1       3.439   5.938  18.023  0.00  0.00    +0.000 A 
ATOM     23  C   UNL     1       2.762   4.747  17.716  0.00  0.00    +0.000 A 
ATOM     24  C   UNL     1       3.420   3.697  17.076  0.00  0.00    +0.000 A 
ATOM     25  C   UNL     1       4.765   3.821  16.733  0.00  0.00    +0.000 A 
ATOM     26  C   UNL     1       5.470   4.997  17.036  0.00  0.00    +0.000 A 
ATOM     27  C   UNL     1       4.798   6.046  17.690  0.00  0.00    +0.000 A 
BRANCH  26  28
ATOM     28  C   UNL     1       6.921   5.154  16.653  0.00  0.00    +0.000 C 
ATOM     29  F   UNL     1       7.770   4.423  17.428  0.00  0.00    +0.000 F 
ATOM     30  F   UNL     1       7.164   4.767  15.369  0.00  0.00    +0.000 F 
ATOM     31  F   UNL     1       7.351   6.443  16.744  0.00  0.00    +0.000 F 
ENDBRANCH  26  28
ENDBRANCH  19  22
ENDBRANCH   1  17
TORSDOF 5
ENDMDL
MODEL 2
REMARK VINA RESULT:      -9.2      4.610      9.306
REMARK  Name = 
REMARK  6 active torsions:
REMARK  status: ('A' for Active; 'I' for Inactive)
REMARK    1  A    between atoms: C_1  and  N_2
REMARK    2  A    between atoms: C_3  and  C_5
REMARK    3  A    between atoms: N_7  and  C_8
REMARK    4  A    between atoms: C_8  and  C_9
REMARK    5  A    between atoms: C_11  and  C_12
REMARK    6  A    between atoms: C_16  and  C_17
REMARK                            x       y       z     vdW  Elec       q    Type
REMARK                         _______ _______ _______ _____ _____    ______ ____
ROOT
ATOM      1  C   UNL     1       3.069   6.689  19.150  0.00  0.00    +0.000 C 
ENDROOT
BRANCH   1   4
ATOM      2  C   UNL     1       5.048   4.477  17.186  0.00  0.00    +0.000 C 
ATOM      3  C   UNL     1       4.117   5.677  17.062  0.00  0.00    +0.000 C 
ATOM      4  N   UNL     1       3.056   5.661  18.085  0.00  0.00    +0.000 N 
ATOM      5  C   UNL     1       2.569   4.376  18.372  0.00  0.00    +0.000 A 
ATOM      6  C   UNL     1       1.425   4.176  19.161  0.00  0.00    +0.000 A 
ATOM      7  C   UNL     1       0.871   2.901  19.337  0.00  0.00    +0.000 A 
ATOM      8  C   UNL     1       1.444   1.794  18.722  0.00  0.00    +0.000 A 
ATOM      9  C   UNL     1       2.598   1.955  17.964  0.00  0.00    +0.000 A 
ATOM     10  C   UNL     1       3.165   3.224  17.813  0.00  0.00    +0.000 A 
ATOM     11  O   UNL     1       4.342   3.240  17.100  0.00  0.00    +0.000 OA
BRANCH   2  14
ATOM     12  C   UNL     1       7.889   5.866  19.313  0.00  0.00    +0.000 C 
ATOM     13  N   UNL     1       6.942   5.603  18.261  0.00  0.00    +0.000 N 
ATOM     14  C   UNL     1       5.977   4.628  18.403  0.00  0.00    +0.000 C 
ATOM     15  O   UNL     1       5.821   3.997  19.444  0.00  0.00    +0.000 OA
ATOM     16  H   UNL     1       7.154   5.902  17.314  0.00  0.00    +0.000 HD
ENDBRANCH   2  14
ENDBRANCH   1   4
BRANCH   1  17
ATOM     17  C   UNL     1       2.263   7.938  18.957  0.00  0.00    +0.000 A 
ATOM     18  N   UNL     1       1.510   8.601  19.809  0.00  0.00    +0.000 NA
ATOM     19  C   UNL     1       0.993   9.613  19.028  0.00  0.00    +0.000 A 
ATOM     20  N   UNL     1       1.416   9.585  17.754  0.00  0.00    +0.000 NA
ATOM     21  O   UNL     1       2.234   8.464  17.698  0.00  0.00    +0.000 OA
BRANCH  19  22
ATOM     22  C   UNL     1       0.011  10.566  19.533  0.00  0.00    +0.000 A 
ATOM     23  C   UNL     1      -0.759  11.339  18.648  0.00  0.00    +0.000 A 
ATOM     24  C   UNL     1      -1.745  12.201  19.126  0.00  0.00    +0.000 A 
ATOM     25  C   UNL     1      -1.979  12.304  20.496  0.00  0.00    +0.000 A 
ATOM     26  C   UNL     1      -1.218  11.551  21.405  0.00  0.00    +0.000 A 
ATOM     27  C   UNL     1      -0.220  10.692  20.911  0.00  0.00    +0.000 A 
BRANCH  26  28
ATOM     28  C   UNL     1      -1.473  11.637  22.890  0.00  0.00    +0.000 C 
ATOM     29  F   UNL     1      -2.796  11.624  23.217  0.00  0.00    +0.000 F 
ATOM     30  F   UNL     1      -0.912  10.600  23.574  0.00  0.00    +0.000 F 
ATOM     31  F   UNL     1      -0.963  12.771  23.444  0.00  0.00    +0.000 F 
ENDBRANCH  26  28
ENDBRANCH  19  22
ENDBRANCH   1  17
TORSDOF 5
ENDMDL
MODEL 3
REMARK VINA RESULT:      -9.1      4.616      9.308
REMARK  Name = 
REMARK  6 active torsions:
REMARK  status: ('A' for Active; 'I' for Inactive)
REMARK    1  A    between atoms: C_1  and  N_2
REMARK    2  A    between atoms: C_3  and  C_5
REMARK    3  A    between atoms: N_7  and  C_8
REMARK    4  A    between atoms: C_8  and  C_9
REMARK    5  A    between atoms: C_11  and  C_12
REMARK    6  A    between atoms: C_16  and  C_17
REMARK                            x       y       z     vdW  Elec       q    Type
REMARK                         _______ _______ _______ _____ _____    ______ ____
ROOT
ATOM      1  C   UNL     1       3.225   6.795  18.899  0.00  0.00    +0.000 C 
ENDROOT
BRANCH   1   4
ATOM      2  C   UNL     1       5.165   4.418  17.094  0.00  0.00    +0.000 C 
ATOM      3  C   UNL     1       4.275   5.640  16.889  0.00  0.00    +0.000 C 
ATOM      4  N   UNL     1       3.196   5.712  17.890  0.00  0.00    +0.000 N 
ATOM      5  C   UNL     1       2.663   4.461  18.236  0.00  0.00    +0.000 A 
ATOM      6  C   UNL     1       1.500   4.339  19.012  0.00  0.00    +0.000 A 
ATOM      7  C   UNL     1       0.901   3.094  19.244  0.00  0.00    +0.000 A 
ATOM      8  C   UNL     1       1.448   1.937  18.701  0.00  0.00    +0.000 A 
ATOM      9  C   UNL     1       2.620   2.021  17.957  0.00  0.00    +0.000 A 
ATOM     10  C   UNL     1       3.231   3.262  17.750  0.00  0.00    +0.000 A 
ATOM     11  O   UNL     1       4.420   3.202  17.060  0.00  0.00    +0.000 OA
BRANCH   2  14
ATOM     12  C   UNL     1       7.962   5.885  19.227  0.00  0.00    +0.000 C 
ATOM     13  N   UNL     1       7.032   5.589  18.169  0.00  0.00    +0.000 N 
ATOM     14  C   UNL     1       6.077   4.605  18.319  0.00  0.00    +0.000 C 
ATOM     15  O   UNL     1       5.915   3.994  19.370  0.00  0.00    +0.000 OA
ATOM     16  H   UNL     1       7.252   5.872  17.219  0.00  0.00    +0.000 HD
ENDBRANCH   2  14
ENDBRANCH   1   4
BRANCH   1  17
ATOM     17  C   UNL     1       2.397   8.022  18.663  0.00  0.00    +0.000 A 
ATOM     18  N   UNL     1       1.455   8.564  19.405  0.00  0.00    +0.000 NA
ATOM     19  C   UNL     1       1.038   9.627  18.632  0.00  0.00    +0.000 A 
ATOM     20  N   UNL     1       1.701   9.745  17.470  0.00  0.00    +0.000 NA
ATOM     21  O   UNL     1       2.581   8.670  17.477  0.00  0.00    +0.000 OA
BRANCH  19  22
ATOM     22  C   UNL     1      -0.079  10.483  19.015  0.00  0.00    +0.000 A 
ATOM     23  C   UNL     1       0.057  11.417  20.055  0.00  0.00    +0.000 A 
ATOM     24  C   UNL     1      -0.987  12.283  20.377  0.00  0.00    +0.000 A 
ATOM     25  C   UNL     1      -2.183  12.231  19.664  0.00  0.00    +0.000 A 
ATOM     26  C   UNL     1      -2.351  11.302  18.625  0.00  0.00    +0.000 A 
ATOM     27  C   UNL     1      -1.294  10.427  18.316  0.00  0.00    +0.000 A 
BRANCH  26  28
ATOM     28  C   UNL     1      -3.633  11.247  17.831  0.00  0.00    +0.000 C 
ATOM     29  F   UNL     1      -4.566  12.151  18.241  0.00  0.00    +0.000 F 
ATOM     30  F   UNL     1      -3.434  11.495  16.506  0.00  0.00    +0.000 F 
ATOM     31  F   UNL     1      -4.239  10.029  17.897  0.00  0.00    +0.000 F 
ENDBRANCH  26  28
ENDBRANCH  19  22
ENDBRANCH   1  17
TORSDOF 5
ENDMDL
MODEL 4
REMARK VINA RESULT:      -9.0      1.892      2.349
REMARK  Name = 
REMARK  6 active torsions:
REMARK  status: ('A' for Active; 'I' for Inactive)
REMARK    1  A    between atoms: C_1  and  N_2
REMARK    2  A    between atoms: C_3  and  C_5
REMARK    3  A    between atoms: N_7  and  C_8
REMARK    4  A    between atoms: C_8  and  C_9
REMARK    5  A    between atoms: C_11  and  C_12
REMARK    6  A    between atoms: C_16  and  C_17
REMARK                            x       y       z     vdW  Elec       q    Type
REMARK                         _______ _______ _______ _____ _____    ______ ____
ROOT
ATOM      1  C   UNL     1       0.868  10.356  18.788  0.00  0.00    +0.000 C 
ENDROOT
BRANCH   1   4
ATOM      2  C   UNL     1      -1.436  12.461  20.499  0.00  0.00    +0.000 C 
ATOM      3  C   UNL     1      -0.725  11.118  20.622  0.00  0.00    +0.000 C 
ATOM      4  N   UNL     1      -0.513  10.484  19.308  0.00  0.00    +0.000 N 
ATOM      5  C   UNL     1      -1.573  10.679  18.410  0.00  0.00    +0.000 A 
ATOM      6  C   UNL     1      -1.648   9.986  17.191  0.00  0.00    +0.000 A 
ATOM      7  C   UNL     1      -2.771  10.088  16.359  0.00  0.00    +0.000 A 
ATOM      8  C   UNL     1      -3.852  10.880  16.729  0.00  0.00    +0.000 A 
ATOM      9  C   UNL     1      -3.792  11.606  17.914  0.00  0.00    +0.000 A 
ATOM     10  C   UNL     1      -2.658  11.524  18.728  0.00  0.00    +0.000 A 
ATOM     11  O   UNL     1      -2.692  12.344  19.833  0.00  0.00    +0.000 OA
BRANCH   2  14
ATOM     12  C   UNL     1      -0.374  15.684  18.764  0.00  0.00    +0.000 C 
ATOM     13  N   UNL     1      -1.125  14.597  19.337  0.00  0.00    +0.000 N 
ATOM     14  C   UNL     1      -0.486  13.535  19.940  0.00  0.00    +0.000 C 
ATOM     15  O   UNL     1       0.731  13.493  20.094  0.00  0.00    +0.000 OA
ATOM     16  H   UNL     1      -2.085  14.447  19.044  0.00  0.00    +0.000 HD
ENDBRANCH   2  14
ENDBRANCH   1   4
BRANCH   1  17
ATOM     17  C   UNL     1       1.560   9.030  18.899  0.00  0.00    +0.000 A 
ATOM     18  N   UNL     1       2.169   8.313  17.979  0.00  0.00    +0.000 NA
ATOM     19  C   UNL     1       2.544   7.185  18.678  0.00  0.00    +0.000 A 
ATOM     20  N   UNL     1       2.193   7.208  19.974  0.00  0.00    +0.000 NA
ATOM     21  O   UNL     1       1.519   8.415  20.116  0.00  0.00    +0.000 OA
BRANCH  19  22
ATOM     22  C   UNL     1       3.185   6.043  18.035  0.00  0.00    +0.000 A 
ATOM     23  C   UNL     1       4.271   6.227  17.164  0.00  0.00    +0.000 A 
ATOM     24  C   UNL     1       4.928   5.132  16.603  0.00  0.00    +0.000 A 
ATOM     25  C   UNL     1       4.510   3.837  16.903  0.00  0.00    +0.000 A 
ATOM     26  C   UNL     1       3.421   3.623  17.764  0.00  0.00    +0.000 A 
ATOM     27  C   UNL     1       2.761   4.735  18.316  0.00  0.00    +0.000 A 
BRANCH  26  28
ATOM     28  C   UNL     1       2.970   2.227  18.114  0.00  0.00    +0.000 C 
ATOM     29  F   UNL     1       2.346   2.144  19.322  0.00  0.00    +0.000 F 
ATOM     30  F   UNL     1       2.087   1.723  17.206  0.00  0.00    +0.000 F 
ATOM     31  F   UNL     1       4.001   1.339  18.165  0.00  0.00    +0.000 F 
ENDBRANCH  26  28
ENDBRANCH  19  22
ENDBRANCH   1  17
TORSDOF 5
ENDMDL
MODEL 5
REMARK VINA RESULT:      -9.0      4.402      9.018
REMARK  Name = 
REMARK  6 active torsions:
REMARK  status: ('A' for Active; 'I' for Inactive)
REMARK    1  A    between atoms: C_1  and  N_2
REMARK    2  A    between atoms: C_3  and  C_5
REMARK    3  A    between atoms: N_7  and  C_8
REMARK    4  A    between atoms: C_8  and  C_9
REMARK    5  A    between atoms: C_11  and  C_12
REMARK    6  A    between atoms: C_16  and  C_17
REMARK                            x       y       z     vdW  Elec       q    Type
REMARK                         _______ _______ _______ _____ _____    ______ ____
ROOT
ATOM      1  C   UNL     1       3.106   6.638  19.592  0.00  0.00    +0.000 C 
ENDROOT
BRANCH   1   4
ATOM      2  C   UNL     1       4.859   4.685  17.188  0.00  0.00    +0.000 C 
ATOM      3  C   UNL     1       3.945   5.900  17.305  0.00  0.00    +0.000 C 
ATOM      4  N   UNL     1       2.978   5.759  18.408  0.00  0.00    +0.000 N 
ATOM      5  C   UNL     1       2.493   4.452  18.569  0.00  0.00    +0.000 A 
ATOM      6  C   UNL     1       1.419   4.159  19.425  0.00  0.00    +0.000 A 
ATOM      7  C   UNL     1       0.857   2.877  19.484  0.00  0.00    +0.000 A 
ATOM      8  C   UNL     1       1.351   1.855  18.682  0.00  0.00    +0.000 A 
ATOM      9  C   UNL     1       2.437   2.104  17.849  0.00  0.00    +0.000 A 
ATOM     10  C   UNL     1       3.013   3.378  17.814  0.00  0.00    +0.000 A 
ATOM     11  O   UNL     1       4.123   3.477  17.006  0.00  0.00    +0.000 OA
BRANCH   2  14
ATOM     12  C   UNL     1       7.852   5.813  19.259  0.00  0.00    +0.000 C 
ATOM     13  N   UNL     1       6.818   5.692  18.265  0.00  0.00    +0.000 N 
ATOM     14  C   UNL     1       5.895   4.668  18.325  0.00  0.00    +0.000 C 
ATOM     15  O   UNL     1       5.853   3.867  19.253  0.00  0.00    +0.000 OA
ATOM     16  H   UNL     1       6.932   6.152  17.368  0.00  0.00    +0.000 HD
ENDBRANCH   2  14
ENDBRANCH   1   4
BRANCH   1  17
ATOM     17  C   UNL     1       2.100   7.733  19.789  0.00  0.00    +0.000 A 
ATOM     18  N   UNL     1       1.528   8.526  18.909  0.00  0.00    +0.000 NA
ATOM     19  C   UNL     1       0.756   9.348  19.703  0.00  0.00    +0.000 A 
ATOM     20  N   UNL     1       0.837   9.068  21.014  0.00  0.00    +0.000 NA
ATOM     21  O   UNL     1       1.745   8.019  21.075  0.00  0.00    +0.000 OA
BRANCH  19  22
ATOM     22  C   UNL     1      -0.006  10.468  19.162  0.00  0.00    +0.000 A 
ATOM     23  C   UNL     1       0.360  11.792  19.455  0.00  0.00    +0.000 A 
ATOM     24  C   UNL     1      -0.325  12.864  18.885  0.00  0.00    +0.000 A 
ATOM     25  C   UNL     1      -1.386  12.631  18.012  0.00  0.00    +0.000 A 
ATOM     26  C   UNL     1      -1.780  11.317  17.707  0.00  0.00    +0.000 A 
ATOM     27  C   UNL     1      -1.087  10.244  18.296  0.00  0.00    +0.000 A 
BRANCH  26  28
ATOM     28  C   UNL     1      -2.913  11.048  16.748  0.00  0.00    +0.000 C 
ATOM     29  F   UNL     1      -3.421   9.787  16.846  0.00  0.00    +0.000 F 
ATOM     30  F   UNL     1      -3.968  11.888  16.943  0.00  0.00    +0.000 F 
ATOM     31  F   UNL     1      -2.546  11.202  15.446  0.00  0.00    +0.000 F 
ENDBRANCH  26  28
ENDBRANCH  19  22
ENDBRANCH   1  17
TORSDOF 5
ENDMDL
MODEL 6
REMARK VINA RESULT:      -8.9      2.011      2.478
REMARK  Name = 
REMARK  6 active torsions:
REMARK  status: ('A' for Active; 'I' for Inactive)
REMARK    1  A    between atoms: C_1  and  N_2
REMARK    2  A    between atoms: C_3  and  C_5
REMARK    3  A    between atoms: N_7  and  C_8
REMARK    4  A    between atoms: C_8  and  C_9
REMARK    5  A    between atoms: C_11  and  C_12
REMARK    6  A    between atoms: C_16  and  C_17
REMARK                            x       y       z     vdW  Elec       q    Type
REMARK                         _______ _______ _______ _____ _____    ______ ____
ROOT
ATOM      1  C   UNL     1       0.889  10.304  18.548  0.00  0.00    +0.000 C 
ENDROOT
BRANCH   1   4
ATOM      2  C   UNL     1      -1.273  12.465  20.370  0.00  0.00    +0.000 C 
ATOM      3  C   UNL     1      -0.572  11.115  20.468  0.00  0.00    +0.000 C 
ATOM      4  N   UNL     1      -0.453  10.458  19.154  0.00  0.00    +0.000 N 
ATOM      5  C   UNL     1      -1.567  10.653  18.323  0.00  0.00    +0.000 A 
ATOM      6  C   UNL     1      -1.729   9.942  17.123  0.00  0.00    +0.000 A 
ATOM      7  C   UNL     1      -2.903  10.046  16.364  0.00  0.00    +0.000 A 
ATOM      8  C   UNL     1      -3.947  10.858  16.791  0.00  0.00    +0.000 A 
ATOM      9  C   UNL     1      -3.802  11.600  17.957  0.00  0.00    +0.000 A 
ATOM     10  C   UNL     1      -2.619  11.517  18.697  0.00  0.00    +0.000 A 
ATOM     11  O   UNL     1      -2.571  12.353  19.789  0.00  0.00    +0.000 OA
BRANCH   2  14
ATOM     12  C   UNL     1       1.907  14.478  19.775  0.00  0.00    +0.000 C 
ATOM     13  N   UNL     1       0.924  13.547  20.265  0.00  0.00    +0.000 N 
ATOM     14  C   UNL     1      -0.349  13.517  19.734  0.00  0.00    +0.000 C 
ATOM     15  O   UNL     1      -0.685  14.210  18.779  0.00  0.00    +0.000 OA
ATOM     16  H   UNL     1       1.047  13.128  21.181  0.00  0.00    +0.000 HD
ENDBRANCH   2  14
ENDBRANCH   1   4
BRANCH   1  17
ATOM     17  C   UNL     1       1.607   8.997  18.707  0.00  0.00    +0.000 A 
ATOM     18  N   UNL     1       2.223   8.255  17.812  0.00  0.00    +0.000 NA
ATOM     19  C   UNL     1       2.623   7.163  18.552  0.00  0.00    +0.000 A 
ATOM     20  N   UNL     1       2.279   7.231  19.849  0.00  0.00    +0.000 NA
ATOM     21  O   UNL     1       1.585   8.429  19.947  0.00  0.00    +0.000 OA
BRANCH  19  22
ATOM     22  C   UNL     1       3.281   6.008  17.951  0.00  0.00    +0.000 A 
ATOM     23  C   UNL     1       4.396   6.173  17.114  0.00  0.00    +0.000 A 
ATOM     24  C   UNL     1       5.067   5.067  16.593  0.00  0.00    +0.000 A 
ATOM     25  C   UNL     1       4.636   3.779  16.902  0.00  0.00    +0.000 A 
ATOM     26  C   UNL     1       3.518   3.582  17.730  0.00  0.00    +0.000 A 
ATOM     27  C   UNL     1       2.843   4.706  18.241  0.00  0.00    +0.000 A 
BRANCH  26  28
ATOM     28  C   UNL     1       3.051   2.194  18.089  0.00  0.00    +0.000 C 
ATOM     29  F   UNL     1       4.004   1.236  17.912  0.00  0.00    +0.000 F 
ATOM     30  F   UNL     1       2.665   2.096  19.392  0.00  0.00    +0.000 F 
ATOM     31  F   UNL     1       1.979   1.794  17.350  0.00  0.00    +0.000 F 
ENDBRANCH  26  28
ENDBRANCH  19  22
ENDBRANCH   1  17
TORSDOF 5
ENDMDL
MODEL 7
REMARK VINA RESULT:      -8.9      0.860      1.149
REMARK  Name = 
REMARK  6 active torsions:
REMARK  status: ('A' for Active; 'I' for Inactive)
REMARK    1  A    between atoms: C_1  and  N_2
REMARK    2  A    between atoms: C_3  and  C_5
REMARK    3  A    between atoms: N_7  and  C_8
REMARK    4  A    between atoms: C_8  and  C_9
REMARK    5  A    between atoms: C_11  and  C_12
REMARK    6  A    between atoms: C_16  and  C_17
REMARK                            x       y       z     vdW  Elec       q    Type
REMARK                         _______ _______ _______ _____ _____    ______ ____
ROOT
ATOM      1  C   UNL     1       0.880  10.413  18.901  0.00  0.00    +0.000 C 
ENDROOT
BRANCH   1   4
ATOM      2  C   UNL     1      -1.498  12.598  20.397  0.00  0.00    +0.000 C 
ATOM      3  C   UNL     1      -0.781  11.272  20.628  0.00  0.00    +0.000 C 
ATOM      4  N   UNL     1      -0.518  10.560  19.365  0.00  0.00    +0.000 N 
ATOM      5  C   UNL     1      -1.549  10.687  18.421  0.00  0.00    +0.000 A 
ATOM      6  C   UNL     1      -1.577   9.918  17.246  0.00  0.00    +0.000 A 
ATOM      7  C   UNL     1      -2.672   9.956  16.372  0.00  0.00    +0.000 A 
ATOM      8  C   UNL     1      -3.771  10.759  16.655  0.00  0.00    +0.000 A 
ATOM      9  C   UNL     1      -3.757  11.558  17.793  0.00  0.00    +0.000 A 
ATOM     10  C   UNL     1      -2.651  11.539  18.648  0.00  0.00    +0.000 A 
ATOM     11  O   UNL     1      -2.729  12.426  19.698  0.00  0.00    +0.000 OA
BRANCH   2  14
ATOM     12  C   UNL     1       1.676  14.675  20.029  0.00  0.00    +0.000 C 
ATOM     13  N   UNL     1       0.670  13.742  20.464  0.00  0.00    +0.000 N 
ATOM     14  C   UNL     1      -0.538  13.644  19.804  0.00  0.00    +0.000 C 
ATOM     15  O   UNL     1      -0.787  14.274  18.782  0.00  0.00    +0.000 OA
ATOM     16  H   UNL     1       0.705  13.376  21.410  0.00  0.00    +0.000 HD
ENDBRANCH   2  14
ENDBRANCH   1   4
BRANCH   1  17
ATOM     17  C   UNL     1       1.533   9.066  18.994  0.00  0.00    +0.000 A 
ATOM     18  N   UNL     1       2.145   8.356  18.071  0.00  0.00    +0.000 NA
ATOM     19  C   UNL     1       2.472   7.201  18.749  0.00  0.00    +0.000 A 
ATOM     20  N   UNL     1       2.091   7.202  20.038  0.00  0.00    +0.000 NA
ATOM     21  O   UNL     1       1.447   8.422  20.194  0.00  0.00    +0.000 OA
BRANCH  19  22
ATOM     22  C   UNL     1       3.097   6.058  18.093  0.00  0.00    +0.000 A 
ATOM     23  C   UNL     1       2.432   4.824  18.014  0.00  0.00    +0.000 A 
ATOM     24  C   UNL     1       2.998   3.751  17.328  0.00  0.00    +0.000 A 
ATOM     25  C   UNL     1       4.239   3.893  16.709  0.00  0.00    +0.000 A 
ATOM     26  C   UNL     1       4.932   5.113  16.779  0.00  0.00    +0.000 A 
ATOM     27  C   UNL     1       4.354   6.185  17.482  0.00  0.00    +0.000 A 
BRANCH  26  28
ATOM     28  C   UNL     1       6.267   5.289  16.098  0.00  0.00    +0.000 C 
ATOM     29  F   UNL     1       6.169   5.498  14.755  0.00  0.00    +0.000 F 
ATOM     30  F   UNL     1       6.964   6.352  16.588  0.00  0.00    +0.000 F 
ATOM     31  F   UNL     1       7.079   4.206  16.248  0.00  0.00    +0.000 F 
ENDBRANCH  26  28
ENDBRANCH  19  22
ENDBRANCH   1  17
TORSDOF 5
ENDMDL
MODEL 8
REMARK VINA RESULT:      -8.8      4.646      9.301
REMARK  Name = 
REMARK  6 active torsions:
REMARK  status: ('A' for Active; 'I' for Inactive)
REMARK    1  A    between atoms: C_1  and  N_2
REMARK    2  A    between atoms: C_3  and  C_5
REMARK    3  A    between atoms: N_7  and  C_8
REMARK    4  A    between atoms: C_8  and  C_9
REMARK    5  A    between atoms: C_11  and  C_12
REMARK    6  A    between atoms: C_16  and  C_17
REMARK                            x       y       z     vdW  Elec       q    Type
REMARK                         _______ _______ _______ _____ _____    ______ ____
ROOT
ATOM      1  C   UNL     1       3.411   6.688  18.677  0.00  0.00    +0.000 C 
ENDROOT
BRANCH   1   4
ATOM      2  C   UNL     1       4.358   3.538  17.316  0.00  0.00    +0.000 C 
ATOM      3  C   UNL     1       3.580   4.804  16.973  0.00  0.00    +0.000 C 
ATOM      4  N   UNL     1       2.927   5.388  18.158  0.00  0.00    +0.000 N 
ATOM      5  C   UNL     1       2.424   4.433  19.054  0.00  0.00    +0.000 A 
ATOM      6  C   UNL     1       1.594   4.788  20.129  0.00  0.00    +0.000 A 
ATOM      7  C   UNL     1       0.991   3.819  20.941  0.00  0.00    +0.000 A 
ATOM      8  C   UNL     1       1.197   2.466  20.694  0.00  0.00    +0.000 A 
ATOM      9  C   UNL     1       2.042   2.083  19.658  0.00  0.00    +0.000 A 
ATOM     10  C   UNL     1       2.664   3.054  18.867  0.00  0.00    +0.000 A 
ATOM     11  O   UNL     1       3.530   2.549  17.923  0.00  0.00    +0.000 OA
BRANCH   2  14
ATOM     12  C   UNL     1       7.973   4.631  17.829  0.00  0.00    +0.000 C 
ATOM     13  N   UNL     1       6.695   4.278  17.267  0.00  0.00    +0.000 N 
ATOM     14  C   UNL     1       5.651   3.880  18.076  0.00  0.00    +0.000 C 
ATOM     15  O   UNL     1       5.724   3.883  19.301  0.00  0.00    +0.000 OA
ATOM     16  H   UNL     1       6.635   4.025  16.286  0.00  0.00    +0.000 HD
ENDBRANCH   2  14
ENDBRANCH   1   4
BRANCH   1  17
ATOM     17  C   UNL     1       2.566   7.909  18.465  0.00  0.00    +0.000 A 
ATOM     18  N   UNL     1       1.521   8.342  19.137  0.00  0.00    +0.000 NA
ATOM     19  C   UNL     1       1.155   9.467  18.429  0.00  0.00    +0.000 A 
ATOM     20  N   UNL     1       1.946   9.725  17.374  0.00  0.00    +0.000 NA
ATOM     21  O   UNL     1       2.862   8.682  17.381  0.00  0.00    +0.000 OA
BRANCH  19  22
ATOM     22  C   UNL     1      -0.034  10.246  18.757  0.00  0.00    +0.000 A 
ATOM     23  C   UNL     1       0.002  11.217  19.770  0.00  0.00    +0.000 A 
ATOM     24  C   UNL     1      -1.114  12.009  20.039  0.00  0.00    +0.000 A 
ATOM     25  C   UNL     1      -2.282  11.845  19.297  0.00  0.00    +0.000 A 
ATOM     26  C   UNL     1      -2.350  10.876  18.283  0.00  0.00    +0.000 A 
ATOM     27  C   UNL     1      -1.221  10.076  18.028  0.00  0.00    +0.000 A 
BRANCH  26  28
ATOM     28  C   UNL     1      -3.601  10.700  17.458  0.00  0.00    +0.000 C 
ATOM     29  F   UNL     1      -4.694  10.353  18.195  0.00  0.00    +0.000 F 
ATOM     30  F   UNL     1      -3.949  11.837  16.793  0.00  0.00    +0.000 F 
ATOM     31  F   UNL     1      -3.471   9.734  16.508  0.00  0.00    +0.000 F 
ENDBRANCH  26  28
ENDBRANCH  19  22
ENDBRANCH   1  17
TORSDOF 5
ENDMDL
MODEL 9
REMARK VINA RESULT:      -8.8      0.774      1.131
REMARK  Name = 
REMARK  6 active torsions:
REMARK  status: ('A' for Active; 'I' for Inactive)
REMARK    1  A    between atoms: C_1  and  N_2
REMARK    2  A    between atoms: C_3  and  C_5
REMARK    3  A    between atoms: N_7  and  C_8
REMARK    4  A    between atoms: C_8  and  C_9
REMARK    5  A    between atoms: C_11  and  C_12
REMARK    6  A    between atoms: C_16  and  C_17
REMARK                            x       y       z     vdW  Elec       q    Type
REMARK                         _______ _______ _______ _____ _____    ______ ____
ROOT
ATOM      1  C   UNL     1       0.797  10.180  18.585  0.00  0.00    +0.000 C 
ENDROOT
BRANCH   1   4
ATOM      2  C   UNL     1      -1.340  12.381  20.391  0.00  0.00    +0.000 C 
ATOM      3  C   UNL     1      -0.686  11.007  20.482  0.00  0.00    +0.000 C 
ATOM      4  N   UNL     1      -0.555  10.369  19.160  0.00  0.00    +0.000 N 
ATOM      5  C   UNL     1      -1.640  10.614  18.305  0.00  0.00    +0.000 A 
ATOM      6  C   UNL     1      -1.795   9.930  17.089  0.00  0.00    +0.000 A 
ATOM      7  C   UNL     1      -2.945  10.085  16.303  0.00  0.00    +0.000 A 
ATOM      8  C   UNL     1      -3.973  10.924  16.717  0.00  0.00    +0.000 A 
ATOM      9  C   UNL     1      -3.833  11.642  17.900  0.00  0.00    +0.000 A 
ATOM     10  C   UNL     1      -2.672  11.507  18.668  0.00  0.00    +0.000 A 
ATOM     11  O   UNL     1      -2.625  12.323  19.775  0.00  0.00    +0.000 OA
BRANCH   2  14
ATOM     12  C   UNL     1      -0.200  15.585  18.670  0.00  0.00    +0.000 C 
ATOM     13  N   UNL     1      -0.977  14.528  19.264  0.00  0.00    +0.000 N 
ATOM     14  C   UNL     1      -0.365  13.413  19.796  0.00  0.00    +0.000 C 
ATOM     15  O   UNL     1       0.854  13.296  19.867  0.00  0.00    +0.000 OA
ATOM     16  H   UNL     1      -1.962  14.443  19.032  0.00  0.00    +0.000 HD
ENDBRANCH   2  14
ENDBRANCH   1   4
BRANCH   1  17
ATOM     17  C   UNL     1       1.510   8.884  18.829  0.00  0.00    +0.000 A 
ATOM     18  N   UNL     1       2.119   8.080  17.984  0.00  0.00    +0.000 NA
ATOM     19  C   UNL     1       2.518   7.039  18.794  0.00  0.00    +0.000 A 
ATOM     20  N   UNL     1       2.182   7.197  20.085  0.00  0.00    +0.000 NA
ATOM     21  O   UNL     1       1.493   8.402  20.105  0.00  0.00    +0.000 OA
BRANCH  19  22
ATOM     22  C   UNL     1       3.169   5.843  18.269  0.00  0.00    +0.000 A 
ATOM     23  C   UNL     1       2.864   4.575  18.789  0.00  0.00    +0.000 A 
ATOM     24  C   UNL     1       3.434   3.425  18.243  0.00  0.00    +0.000 A 
ATOM     25  C   UNL     1       4.315   3.524  17.169  0.00  0.00    +0.000 A 
ATOM     26  C   UNL     1       4.646   4.780  16.634  0.00  0.00    +0.000 A 
ATOM     27  C   UNL     1       4.072   5.933  17.199  0.00  0.00    +0.000 A 
BRANCH  26  28
ATOM     28  C   UNL     1       5.583   4.903  15.459  0.00  0.00    +0.000 C 
ATOM     29  F   UNL     1       5.638   6.159  14.934  0.00  0.00    +0.000 F 
ATOM     30  F   UNL     1       6.867   4.581  15.782  0.00  0.00    +0.000 F 
ATOM     31  F   UNL     1       5.240   4.083  14.426  0.00  0.00    +0.000 F 
ENDBRANCH  26  28
ENDBRANCH  19  22
ENDBRANCH   1  17
TORSDOF 5
ENDMDL
