MODEL 1
REMARK VINA RESULT:      -8.8      0.000      0.000
REMARK  Name = 
REMARK  5 active torsions:
REMARK  status: ('A' for Active; 'I' for Inactive)
REMARK    1  A    between atoms: C_2  and  C_10
REMARK    2  A    between atoms: N_3  and  C_4
REMARK    3  A    between atoms: C_14  and  O_15
REMARK    4  A    between atoms: O_15  and  C_16
REMARK    5  A    between atoms: C_21  and  C_22
REMARK                            x       y       z     vdW  Elec       q    Type
REMARK                         _______ _______ _______ _____ _____    ______ ____
ROOT
ATOM      1  C   UNL     1       0.940   9.343  20.094  0.00  0.00    +0.000 A 
ATOM      2  C   UNL     1       1.132   9.913  18.825  0.00  0.00    +0.000 A 
ATOM      3  C   UNL     1       1.850   9.236  17.848  0.00  0.00    +0.000 A 
ATOM      4  C   UNL     1       2.398   7.994  18.142  0.00  0.00    +0.000 A 
ATOM      5  C   UNL     1       2.308   7.461  19.437  0.00  0.00    +0.000 A 
ATOM      6  C   UNL     1       1.544   8.119  20.412  0.00  0.00    +0.000 A 
ENDROOT
BRANCH   1   8
ATOM      7  O   UNL     1      -0.492   9.384  21.902  0.00  0.00    +0.000 OA
ATOM      8  C   UNL     1      -0.023  10.046  20.980  0.00  0.00    +0.000 C 
ATOM      9  N   UNL     1      -0.354  11.354  20.667  0.00  0.00    +0.000 N 
ATOM     10  H   UNL     1      -0.044  11.722  19.779  0.00  0.00    +0.000 HD
BRANCH   9  11
ATOM     11  C   UNL     1      -1.279  12.144  21.402  0.00  0.00    +0.000 A 
ATOM     12  C   UNL     1      -2.568  12.443  20.945  0.00  0.00    +0.000 A 
ATOM     13  C   UNL     1      -3.426  13.265  21.680  0.00  0.00    +0.000 A 
ATOM     14  C   UNL     1      -3.009  13.794  22.895  0.00  0.00    +0.000 A 
ATOM     15  C   UNL     1      -1.738  13.483  23.379  0.00  0.00    +0.000 A 
ATOM     16  C   UNL     1      -0.880  12.658  22.642  0.00  0.00    +0.000 A 
ENDBRANCH   9  11
ENDBRANCH   1   8
BRANCH   5  17
ATOM     17  O   UNL     1       2.896   6.255  19.787  0.00  0.00    +0.000 OA
BRANCH  17  18
ATOM     18  C   UNL     1       2.789   5.200  18.877  0.00  0.00    +0.000 A 
ATOM     19  N   UNL     1       1.577   4.592  18.791  0.00  0.00    +0.000 NA
ATOM     20  C   UNL     1       1.484   3.545  17.970  0.00  0.00    +0.000 A 
ATOM     21  N   UNL     1       2.466   3.082  17.198  0.00  0.00    +0.000 NA
ATOM     22  C   UNL     1       3.635   3.755  17.281  0.00  0.00    +0.000 A 
ATOM     23  C   UNL     1       3.894   4.849  18.104  0.00  0.00    +0.000 A 
BRANCH  23  24
ATOM     24  C   UNL     1       5.228   5.493  18.108  0.00  0.00    +0.000 A 
ATOM     25  C   UNL     1       6.200   5.135  19.068  0.00  0.00    +0.000 A 
ATOM     26  C   UNL     1       7.447   5.765  19.130  0.00  0.00    +0.000 A 
ATOM     27  C   UNL     1       7.766   6.762  18.217  0.00  0.00    +0.000 A 
ATOM     28  C   UNL     1       6.835   7.131  17.251  0.00  0.00    +0.000 A 
ATOM     29  C   UNL     1       5.580   6.511  17.204  0.00  0.00    +0.000 A 
ENDBRANCH  23  24
ENDBRANCH  17  18
ENDBRANCH   5  17
TORSDOF 5
ENDMDL
MODEL 2
REMARK VINA RESULT:      -8.7      0.111      1.288
REMARK  Name = 
REMARK  5 active torsions:
REMARK  status: ('A' for Active; 'I' for Inactive)
REMARK    1  A    between atoms: C_2  and  C_10
REMARK    2  A    between atoms: N_3  and  C_4
REMARK    3  A    between atoms: C_14  and  O_15
REMARK    4  A    between atoms: O_15  and  C_16
REMARK    5  A    between atoms: C_21  and  C_22
REMARK                            x       y       z     vdW  Elec       q    Type
REMARK                         _______ _______ _______ _____ _____    ______ ____
ROOT
ATOM      1  C   UNL     1       0.894   9.372  20.132  0.00  0.00    +0.000 A 
ATOM      2  C   UNL     1       1.048   9.934  18.854  0.00  0.00    +0.000 A 
ATOM      3  C   UNL     1       1.740   9.253  17.862  0.00  0.00    +0.000 A 
ATOM      4  C   UNL     1       2.301   8.014  18.149  0.00  0.00    +0.000 A 
ATOM      5  C   UNL     1       2.250   7.490  19.450  0.00  0.00    +0.000 A 
ATOM      6  C   UNL     1       1.511   8.153  20.441  0.00  0.00    +0.000 A 
ENDROOT
BRANCH   1   8
ATOM      7  O   UNL     1      -0.479   9.425  21.985  0.00  0.00    +0.000 OA
ATOM      8  C   UNL     1      -0.046  10.078  21.040  0.00  0.00    +0.000 C 
ATOM      9  N   UNL     1      -0.398  11.380  20.721  0.00  0.00    +0.000 N 
ATOM     10  H   UNL     1      -0.120  11.739  19.819  0.00  0.00    +0.000 HD
BRANCH   9  11
ATOM     11  C   UNL     1      -1.306  12.171  21.476  0.00  0.00    +0.000 A 
ATOM     12  C   UNL     1      -1.014  12.670  22.752  0.00  0.00    +0.000 A 
ATOM     13  C   UNL     1      -1.958  13.402  23.477  0.00  0.00    +0.000 A 
ATOM     14  C   UNL     1      -3.209  13.656  22.931  0.00  0.00    +0.000 A 
ATOM     15  C   UNL     1      -3.507  13.190  21.650  0.00  0.00    +0.000 A 
ATOM     16  C   UNL     1      -2.559  12.459  20.923  0.00  0.00    +0.000 A 
ENDBRANCH   9  11
ENDBRANCH   1   8
BRANCH   5  17
ATOM     17  O   UNL     1       2.851   6.288  19.792  0.00  0.00    +0.000 OA
BRANCH  17  18
ATOM     18  C   UNL     1       2.786   5.249  18.860  0.00  0.00    +0.000 A 
ATOM     19  N   UNL     1       1.584   4.631  18.724  0.00  0.00    +0.000 NA
ATOM     20  C   UNL     1       1.529   3.598  17.881  0.00  0.00    +0.000 A 
ATOM     21  N   UNL     1       2.541   3.159  17.134  0.00  0.00    +0.000 NA
ATOM     22  C   UNL     1       3.700   3.842  17.269  0.00  0.00    +0.000 A 
ATOM     23  C   UNL     1       3.919   4.924  18.118  0.00  0.00    +0.000 A 
BRANCH  23  24
ATOM     24  C   UNL     1       5.246   5.580  18.178  0.00  0.00    +0.000 A 
ATOM     25  C   UNL     1       5.585   6.607  17.269  0.00  0.00    +0.000 A 
ATOM     26  C   UNL     1       6.849   7.206  17.266  0.00  0.00    +0.000 A 
ATOM     27  C   UNL     1       7.807   6.807  18.191  0.00  0.00    +0.000 A 
ATOM     28  C   UNL     1       7.500   5.806  19.108  0.00  0.00    +0.000 A 
ATOM     29  C   UNL     1       6.240   5.195  19.094  0.00  0.00    +0.000 A 
ENDBRANCH  23  24
ENDBRANCH  17  18
ENDBRANCH   5  17
TORSDOF 5
ENDMDL
MODEL 3
REMARK VINA RESULT:      -8.7      1.239      1.632
REMARK  Name = 
REMARK  5 active torsions:
REMARK  status: ('A' for Active; 'I' for Inactive)
REMARK    1  A    between atoms: C_2  and  C_10
REMARK    2  A    between atoms: N_3  and  C_4
REMARK    3  A    between atoms: C_14  and  O_15
REMARK    4  A    between atoms: O_15  and  C_16
REMARK    5  A    between atoms: C_21  and  C_22
REMARK                            x       y       z     vdW  Elec       q    Type
REMARK                         _______ _______ _______ _____ _____    ______ ____
ROOT
ATOM      1  C   UNL     1       1.227   8.709  19.924  0.00  0.00    +0.000 A 
ATOM      2  C   UNL     1       1.486   9.286  18.669  0.00  0.00    +0.000 A 
ATOM      3  C   UNL     1       2.282   8.629  17.741  0.00  0.00    +0.000 A 
ATOM      4  C   UNL     1       2.840   7.399  18.070  0.00  0.00    +0.000 A 
ATOM      5  C   UNL     1       2.679   6.862  19.357  0.00  0.00    +0.000 A 
ATOM      6  C   UNL     1       1.838   7.500  20.280  0.00  0.00    +0.000 A 
ENDROOT
BRANCH   1   8
ATOM      7  O   UNL     1      -0.414   8.680  21.545  0.00  0.00    +0.000 OA
ATOM      8  C   UNL     1       0.191   9.388  20.746  0.00  0.00    +0.000 C 
ATOM      9  N   UNL     1      -0.044  10.732  20.509  0.00  0.00    +0.000 N 
ATOM     10  H   UNL     1       0.388  11.154  19.699  0.00  0.00    +0.000 HD
BRANCH   9  11
ATOM     11  C   UNL     1      -1.019  11.507  21.193  0.00  0.00    +0.000 A 
ATOM     12  C   UNL     1      -1.067  11.625  22.588  0.00  0.00    +0.000 A 
ATOM     13  C   UNL     1      -2.075  12.358  23.219  0.00  0.00    +0.000 A 
ATOM     14  C   UNL     1      -3.049  12.995  22.461  0.00  0.00    +0.000 A 
ATOM     15  C   UNL     1      -3.000  12.912  21.070  0.00  0.00    +0.000 A 
ATOM     16  C   UNL     1      -1.988  12.179  20.438  0.00  0.00    +0.000 A 
ENDBRANCH   9  11
ENDBRANCH   1   8
BRANCH   5  17
ATOM     17  O   UNL     1       3.271   5.669  19.744  0.00  0.00    +0.000 OA
BRANCH  17  18
ATOM     18  C   UNL     1       2.697   4.485  19.276  0.00  0.00    +0.000 A 
ATOM     19  N   UNL     1       1.499   4.137  19.814  0.00  0.00    +0.000 NA
ATOM     20  C   UNL     1       0.974   2.977  19.417  0.00  0.00    +0.000 A 
ATOM     21  N   UNL     1       1.505   2.162  18.507  0.00  0.00    +0.000 NA
ATOM     22  C   UNL     1       2.670   2.580  17.964  0.00  0.00    +0.000 A 
ATOM     23  C   UNL     1       3.351   3.751  18.287  0.00  0.00    +0.000 A 
BRANCH  23  24
ATOM     24  C   UNL     1       4.630   4.090  17.622  0.00  0.00    +0.000 A 
ATOM     25  C   UNL     1       5.792   4.352  18.382  0.00  0.00    +0.000 A 
ATOM     26  C   UNL     1       6.999   4.729  17.783  0.00  0.00    +0.000 A 
ATOM     27  C   UNL     1       7.083   4.834  16.401  0.00  0.00    +0.000 A 
ATOM     28  C   UNL     1       5.960   4.571  15.623  0.00  0.00    +0.000 A 
ATOM     29  C   UNL     1       4.748   4.214  16.227  0.00  0.00    +0.000 A 
ENDBRANCH  23  24
ENDBRANCH  17  18
ENDBRANCH   5  17
TORSDOF 5
ENDMDL
MODEL 4
REMARK VINA RESULT:      -8.7      1.197      1.577
REMARK  Name = 
REMARK  5 active torsions:
REMARK  status: ('A' for Active; 'I' for Inactive)
REMARK    1  A    between atoms: C_2  and  C_10
REMARK    2  A    between atoms: N_3  and  C_4
REMARK    3  A    between atoms: C_14  and  O_15
REMARK    4  A    between atoms: O_15  and  C_16
REMARK    5  A    between atoms: C_21  and  C_22
REMARK                            x       y       z     vdW  Elec       q    Type
REMARK                         _______ _______ _______ _____ _____    ______ ____
ROOT
ATOM      1  C   UNL     1       1.212   8.793  19.908  0.00  0.00    +0.000 A 
ATOM      2  C   UNL     1       1.477   9.318  18.632  0.00  0.00    +0.000 A 
ATOM      3  C   UNL     1       2.253   8.611  17.725  0.00  0.00    +0.000 A 
ATOM      4  C   UNL     1       2.788   7.383  18.096  0.00  0.00    +0.000 A 
ATOM      5  C   UNL     1       2.623   6.896  19.402  0.00  0.00    +0.000 A 
ATOM      6  C   UNL     1       1.800   7.585  20.305  0.00  0.00    +0.000 A 
ENDROOT
BRANCH   1   8
ATOM      7  O   UNL     1      -0.430   8.854  21.527  0.00  0.00    +0.000 OA
ATOM      8  C   UNL     1       0.196   9.522  20.710  0.00  0.00    +0.000 C 
ATOM      9  N   UNL     1      -0.001  10.866  20.436  0.00  0.00    +0.000 N 
ATOM     10  H   UNL     1       0.443  11.253  19.616  0.00  0.00    +0.000 HD
BRANCH   9  11
ATOM     11  C   UNL     1      -0.955  11.687  21.098  0.00  0.00    +0.000 A 
ATOM     12  C   UNL     1      -2.099  12.194  20.471  0.00  0.00    +0.000 A 
ATOM     13  C   UNL     1      -2.984  13.037  21.149  0.00  0.00    +0.000 A 
ATOM     14  C   UNL     1      -2.741  13.379  22.473  0.00  0.00    +0.000 A 
ATOM     15  C   UNL     1      -1.620  12.860  23.121  0.00  0.00    +0.000 A 
ATOM     16  C   UNL     1      -0.736  12.013  22.442  0.00  0.00    +0.000 A 
ENDBRANCH   9  11
ENDBRANCH   1   8
BRANCH   5  17
ATOM     17  O   UNL     1       3.192   5.707  19.829  0.00  0.00    +0.000 OA
BRANCH  17  18
ATOM     18  C   UNL     1       2.630   4.518  19.355  0.00  0.00    +0.000 A 
ATOM     19  N   UNL     1       1.425   4.167  19.875  0.00  0.00    +0.000 NA
ATOM     20  C   UNL     1       0.911   3.004  19.473  0.00  0.00    +0.000 A 
ATOM     21  N   UNL     1       1.460   2.188  18.574  0.00  0.00    +0.000 NA
ATOM     22  C   UNL     1       2.632   2.610  18.049  0.00  0.00    +0.000 A 
ATOM     23  C   UNL     1       3.303   3.785  18.380  0.00  0.00    +0.000 A 
BRANCH  23  24
ATOM     24  C   UNL     1       4.592   4.126  17.735  0.00  0.00    +0.000 A 
ATOM     25  C   UNL     1       4.719   4.125  16.329  0.00  0.00    +0.000 A 
ATOM     26  C   UNL     1       5.937   4.390  15.694  0.00  0.00    +0.000 A 
ATOM     27  C   UNL     1       7.063   4.683  16.453  0.00  0.00    +0.000 A 
ATOM     28  C   UNL     1       6.970   4.704  17.840  0.00  0.00    +0.000 A 
ATOM     29  C   UNL     1       5.753   4.420  18.472  0.00  0.00    +0.000 A 
ENDBRANCH  23  24
ENDBRANCH  17  18
ENDBRANCH   5  17
TORSDOF 5
ENDMDL
MODEL 5
REMARK VINA RESULT:      -8.6      1.534      1.812
REMARK  Name = 
REMARK  5 active torsions:
REMARK  status: ('A' for Active; 'I' for Inactive)
REMARK    1  A    between atoms: C_2  and  C_10
REMARK    2  A    between atoms: N_3  and  C_4
REMARK    3  A    between atoms: C_14  and  O_15
REMARK    4  A    between atoms: O_15  and  C_16
REMARK    5  A    between atoms: C_21  and  C_22
REMARK                            x       y       z     vdW  Elec       q    Type
REMARK                         _______ _______ _______ _____ _____    ______ ____
ROOT
ATOM      1  C   UNL     1       1.444   8.915  19.382  0.00  0.00    +0.000 A 
ATOM      2  C   UNL     1       1.899   9.225  18.090  0.00  0.00    +0.000 A 
ATOM      3  C   UNL     1       2.686   8.326  17.383  0.00  0.00    +0.000 A 
ATOM      4  C   UNL     1       3.041   7.119  17.975  0.00  0.00    +0.000 A 
ATOM      5  C   UNL     1       2.686   6.842  19.304  0.00  0.00    +0.000 A 
ATOM      6  C   UNL     1       1.852   7.726  20.003  0.00  0.00    +0.000 A 
ENDROOT
BRANCH   1   8
ATOM      7  O   UNL     1      -0.579  10.019  19.281  0.00  0.00    +0.000 OA
ATOM      8  C   UNL     1       0.433   9.842  19.952  0.00  0.00    +0.000 C 
ATOM      9  N   UNL     1       0.735  10.469  21.151  0.00  0.00    +0.000 N 
ATOM     10  H   UNL     1       1.676  10.383  21.508  0.00  0.00    +0.000 HD
BRANCH   9  11
ATOM     11  C   UNL     1      -0.118  11.401  21.803  0.00  0.00    +0.000 A 
ATOM     12  C   UNL     1      -0.011  12.787  21.636  0.00  0.00    +0.000 A 
ATOM     13  C   UNL     1      -0.840  13.667  22.336  0.00  0.00    +0.000 A 
ATOM     14  C   UNL     1      -1.798  13.172  23.211  0.00  0.00    +0.000 A 
ATOM     15  C   UNL     1      -1.936  11.793  23.368  0.00  0.00    +0.000 A 
ATOM     16  C   UNL     1      -1.107  10.912  22.663  0.00  0.00    +0.000 A 
ENDBRANCH   9  11
ENDBRANCH   1   8
BRANCH   5  17
ATOM     17  O   UNL     1       3.074   5.678  19.950  0.00  0.00    +0.000 OA
BRANCH  17  18
ATOM     18  C   UNL     1       2.495   4.481  19.520  0.00  0.00    +0.000 A 
ATOM     19  N   UNL     1       1.290   4.161  20.058  0.00  0.00    +0.000 NA
ATOM     20  C   UNL     1       0.761   2.991  19.699  0.00  0.00    +0.000 A 
ATOM     21  N   UNL     1       1.294   2.140  18.825  0.00  0.00    +0.000 NA
ATOM     22  C   UNL     1       2.467   2.530  18.278  0.00  0.00    +0.000 A 
ATOM     23  C   UNL     1       3.153   3.707  18.565  0.00  0.00    +0.000 A 
BRANCH  23  24
ATOM     24  C   UNL     1       4.442   4.013  17.901  0.00  0.00    +0.000 A 
ATOM     25  C   UNL     1       5.583   4.353  18.660  0.00  0.00    +0.000 A 
ATOM     26  C   UNL     1       6.797   4.700  18.058  0.00  0.00    +0.000 A 
ATOM     27  C   UNL     1       6.909   4.697  16.673  0.00  0.00    +0.000 A 
ATOM     28  C   UNL     1       5.806   4.355  15.896  0.00  0.00    +0.000 A 
ATOM     29  C   UNL     1       4.587   4.028  16.503  0.00  0.00    +0.000 A 
ENDBRANCH  23  24
ENDBRANCH  17  18
ENDBRANCH   5  17
TORSDOF 5
ENDMDL
MODEL 6
REMARK VINA RESULT:      -8.4      0.955      1.332
REMARK  Name = 
REMARK  5 active torsions:
REMARK  status: ('A' for Active; 'I' for Inactive)
REMARK    1  A    between atoms: C_2  and  C_10
REMARK    2  A    between atoms: N_3  and  C_4
REMARK    3  A    between atoms: C_14  and  O_15
REMARK    4  A    between atoms: O_15  and  C_16
REMARK    5  A    between atoms: C_21  and  C_22
REMARK                            x       y       z     vdW  Elec       q    Type
REMARK                         _______ _______ _______ _____ _____    ______ ____
ROOT
ATOM      1  C   UNL     1       1.002   9.444  19.561  0.00  0.00    +0.000 A 
ATOM      2  C   UNL     1       1.357   9.795  18.248  0.00  0.00    +0.000 A 
ATOM      3  C   UNL     1       2.142   8.947  17.479  0.00  0.00    +0.000 A 
ATOM      4  C   UNL     1       2.595   7.752  18.026  0.00  0.00    +0.000 A 
ATOM      5  C   UNL     1       2.340   7.440  19.370  0.00  0.00    +0.000 A 
ATOM      6  C   UNL     1       1.508   8.270  20.135  0.00  0.00    +0.000 A 
ENDROOT
BRANCH   1   8
ATOM      7  O   UNL     1      -1.098  10.396  19.636  0.00  0.00    +0.000 OA
ATOM      8  C   UNL     1      -0.016  10.311  20.210  0.00  0.00    +0.000 C 
ATOM      9  N   UNL     1       0.350  10.988  21.362  0.00  0.00    +0.000 N 
ATOM     10  H   UNL     1       1.325  10.979  21.627  0.00  0.00    +0.000 HD
BRANCH   9  11
ATOM     11  C   UNL     1      -0.503  11.872  22.076  0.00  0.00    +0.000 A 
ATOM     12  C   UNL     1      -1.628  11.444  22.792  0.00  0.00    +0.000 A 
ATOM     13  C   UNL     1      -2.466  12.357  23.438  0.00  0.00    +0.000 A 
ATOM     14  C   UNL     1      -2.184  13.716  23.386  0.00  0.00    +0.000 A 
ATOM     15  C   UNL     1      -1.052  14.156  22.702  0.00  0.00    +0.000 A 
ATOM     16  C   UNL     1      -0.211  13.241  22.056  0.00  0.00    +0.000 A 
ENDBRANCH   9  11
ENDBRANCH   1   8
BRANCH   5  17
ATOM     17  O   UNL     1       2.827   6.289  19.971  0.00  0.00    +0.000 OA
BRANCH  17  18
ATOM     18  C   UNL     1       2.753   5.101  19.239  0.00  0.00    +0.000 A 
ATOM     19  N   UNL     1       1.562   4.449  19.258  0.00  0.00    +0.000 NA
ATOM     20  C   UNL     1       1.502   3.284  18.612  0.00  0.00    +0.000 A 
ATOM     21  N   UNL     1       2.496   2.736  17.917  0.00  0.00    +0.000 NA
ATOM     22  C   UNL     1       3.644   3.451  17.885  0.00  0.00    +0.000 A 
ATOM     23  C   UNL     1       3.868   4.668  18.524  0.00  0.00    +0.000 A 
BRANCH  23  24
ATOM     24  C   UNL     1       5.181   5.347  18.418  0.00  0.00    +0.000 A 
ATOM     25  C   UNL     1       5.460   6.214  17.339  0.00  0.00    +0.000 A 
ATOM     26  C   UNL     1       6.710   6.824  17.183  0.00  0.00    +0.000 A 
ATOM     27  C   UNL     1       7.712   6.598  18.119  0.00  0.00    +0.000 A 
ATOM     28  C   UNL     1       7.464   5.759  19.200  0.00  0.00    +0.000 A 
ATOM     29  C   UNL     1       6.219   5.134  19.341  0.00  0.00    +0.000 A 
ENDBRANCH  23  24
ENDBRANCH  17  18
ENDBRANCH   5  17
TORSDOF 5
ENDMDL
MODEL 7
REMARK VINA RESULT:      -8.3      1.283      1.817
REMARK  Name = 
REMARK  5 active torsions:
REMARK  status: ('A' for Active; 'I' for Inactive)
REMARK    1  A    between atoms: C_2  and  C_10
REMARK    2  A    between atoms: N_3  and  C_4
REMARK    3  A    between atoms: C_14  and  O_15
REMARK    4  A    between atoms: O_15  and  C_16
REMARK    5  A    between atoms: C_21  and  C_22
REMARK                            x       y       z     vdW  Elec       q    Type
REMARK                         _______ _______ _______ _____ _____    ______ ____
ROOT
ATOM      1  C   UNL     1       1.451   8.914  20.040  0.00  0.00    +0.000 A 
ATOM      2  C   UNL     1       1.504   9.323  18.697  0.00  0.00    +0.000 A 
ATOM      3  C   UNL     1       1.997   8.470  17.718  0.00  0.00    +0.000 A 
ATOM      4  C   UNL     1       2.458   7.210  18.080  0.00  0.00    +0.000 A 
ATOM      5  C   UNL     1       2.512   6.829  19.430  0.00  0.00    +0.000 A 
ATOM      6  C   UNL     1       1.972   7.669  20.415  0.00  0.00    +0.000 A 
ENDROOT
BRANCH   1   8
ATOM      7  O   UNL     1       1.111   9.855  22.118  0.00  0.00    +0.000 OA
ATOM      8  C   UNL     1       0.706   9.812  20.960  0.00  0.00    +0.000 C 
ATOM      9  N   UNL     1      -0.403  10.475  20.460  0.00  0.00    +0.000 N 
ATOM     10  H   UNL     1      -0.741  10.211  19.546  0.00  0.00    +0.000 HD
BRANCH   9  11
ATOM     11  C   UNL     1      -1.230  11.342  21.226  0.00  0.00    +0.000 A 
ATOM     12  C   UNL     1      -1.341  11.265  22.619  0.00  0.00    +0.000 A 
ATOM     13  C   UNL     1      -2.205  12.107  23.325  0.00  0.00    +0.000 A 
ATOM     14  C   UNL     1      -2.966  13.049  22.644  0.00  0.00    +0.000 A 
ATOM     15  C   UNL     1      -2.846  13.158  21.259  0.00  0.00    +0.000 A 
ATOM     16  C   UNL     1      -1.978  12.315  20.554  0.00  0.00    +0.000 A 
ENDBRANCH   9  11
ENDBRANCH   1   8
BRANCH   5  17
ATOM     17  O   UNL     1       3.024   5.607  19.837  0.00  0.00    +0.000 OA
BRANCH  17  18
ATOM     18  C   UNL     1       2.469   4.457  19.269  0.00  0.00    +0.000 A 
ATOM     19  N   UNL     1       1.232   4.101  19.702  0.00  0.00    +0.000 NA
ATOM     20  C   UNL     1       0.722   2.971  19.210  0.00  0.00    +0.000 A 
ATOM     21  N   UNL     1       1.307   2.195  18.299  0.00  0.00    +0.000 NA
ATOM     22  C   UNL     1       2.513   2.622  17.862  0.00  0.00    +0.000 A 
ATOM     23  C   UNL     1       3.183   3.764  18.293  0.00  0.00    +0.000 A 
BRANCH  23  24
ATOM     24  C   UNL     1       4.512   4.115  17.738  0.00  0.00    +0.000 A 
ATOM     25  C   UNL     1       4.733   4.120  16.344  0.00  0.00    +0.000 A 
ATOM     26  C   UNL     1       5.990   4.394  15.795  0.00  0.00    +0.000 A 
ATOM     27  C   UNL     1       7.061   4.691  16.629  0.00  0.00    +0.000 A 
ATOM     28  C   UNL     1       6.873   4.706  18.007  0.00  0.00    +0.000 A 
ATOM     29  C   UNL     1       5.617   4.412  18.554  0.00  0.00    +0.000 A 
ENDBRANCH  23  24
ENDBRANCH  17  18
ENDBRANCH   5  17
TORSDOF 5
ENDMDL
MODEL 8
REMARK VINA RESULT:      -8.3      4.177      7.557
REMARK  Name = 
REMARK  5 active torsions:
REMARK  status: ('A' for Active; 'I' for Inactive)
REMARK    1  A    between atoms: C_2  and  C_10
REMARK    2  A    between atoms: N_3  and  C_4
REMARK    3  A    between atoms: C_14  and  O_15
REMARK    4  A    between atoms: O_15  and  C_16
REMARK    5  A    between atoms: C_21  and  C_22
REMARK                            x       y       z     vdW  Elec       q    Type
REMARK                         _______ _______ _______ _____ _____    ______ ____
ROOT
ATOM      1  C   UNL     1       7.248   6.885  17.794  0.00  0.00    +0.000 A 
ATOM      2  C   UNL     1       7.525   6.233  16.581  0.00  0.00    +0.000 A 
ATOM      3  C   UNL     1       6.962   4.996  16.300  0.00  0.00    +0.000 A 
ATOM      4  C   UNL     1       6.136   4.392  17.241  0.00  0.00    +0.000 A 
ATOM      5  C   UNL     1       5.938   4.980  18.500  0.00  0.00    +0.000 A 
ATOM      6  C   UNL     1       6.465   6.251  18.768  0.00  0.00    +0.000 A 
ENDROOT
BRANCH   1   8
ATOM      7  O   UNL     1       7.243   9.080  17.084  0.00  0.00    +0.000 OA
ATOM      8  C   UNL     1       7.718   8.291  17.895  0.00  0.00    +0.000 C 
ATOM      9  N   UNL     1       8.683   8.583  18.846  0.00  0.00    +0.000 N 
ATOM     10  H   UNL     1       9.126   7.812  19.324  0.00  0.00    +0.000 HD
BRANCH   9  11
ATOM     11  C   UNL     1       9.249   9.873  19.042  0.00  0.00    +0.000 A 
ATOM     12  C   UNL     1       9.782  10.643  18.001  0.00  0.00    +0.000 A 
ATOM     13  C   UNL     1      10.373  11.885  18.249  0.00  0.00    +0.000 A 
ATOM     14  C   UNL     1      10.431  12.380  19.546  0.00  0.00    +0.000 A 
ATOM     15  C   UNL     1       9.879  11.638  20.589  0.00  0.00    +0.000 A 
ATOM     16  C   UNL     1       9.285  10.395  20.339  0.00  0.00    +0.000 A 
ENDBRANCH   9  11
ENDBRANCH   1   8
BRANCH   5  17
ATOM     17  O   UNL     1       5.172   4.380  19.488  0.00  0.00    +0.000 OA
BRANCH  17  18
ATOM     18  C   UNL     1       4.059   3.641  19.078  0.00  0.00    +0.000 A 
ATOM     19  N   UNL     1       4.225   2.297  18.980  0.00  0.00    +0.000 NA
ATOM     20  C   UNL     1       3.185   1.592  18.531  0.00  0.00    +0.000 A 
ATOM     21  N   UNL     1       1.992   2.093  18.217  0.00  0.00    +0.000 NA
ATOM     22  C   UNL     1       1.863   3.429  18.383  0.00  0.00    +0.000 A 
ATOM     23  C   UNL     1       2.858   4.300  18.821  0.00  0.00    +0.000 A 
BRANCH  23  24
ATOM     24  C   UNL     1       2.589   5.751  18.950  0.00  0.00    +0.000 A 
ATOM     25  C   UNL     1       2.104   6.291  20.162  0.00  0.00    +0.000 A 
ATOM     26  C   UNL     1       1.789   7.647  20.296  0.00  0.00    +0.000 A 
ATOM     27  C   UNL     1       1.969   8.508  19.221  0.00  0.00    +0.000 A 
ATOM     28  C   UNL     1       2.456   8.011  18.017  0.00  0.00    +0.000 A 
ATOM     29  C   UNL     1       2.752   6.649  17.881  0.00  0.00    +0.000 A 
ENDBRANCH  23  24
ENDBRANCH  17  18
ENDBRANCH   5  17
TORSDOF 5
ENDMDL
MODEL 9
REMARK VINA RESULT:      -8.2      0.696      1.143
REMARK  Name = 
REMARK  5 active torsions:
REMARK  status: ('A' for Active; 'I' for Inactive)
REMARK    1  A    between atoms: C_2  and  C_10
REMARK    2  A    between atoms: N_3  and  C_4
REMARK    3  A    between atoms: C_14  and  O_15
REMARK    4  A    between atoms: O_15  and  C_16
REMARK    5  A    between atoms: C_21  and  C_22
REMARK                            x       y       z     vdW  Elec       q    Type
REMARK                         _______ _______ _______ _____ _____    ______ ____
ROOT
ATOM      1  C   UNL     1       1.264   9.696  19.862  0.00  0.00    +0.000 A 
ATOM      2  C   UNL     1       1.282  10.036  18.500  0.00  0.00    +0.000 A 
ATOM      3  C   UNL     1       1.715   9.120  17.549  0.00  0.00    +0.000 A 
ATOM      4  C   UNL     1       2.152   7.866  17.960  0.00  0.00    +0.000 A 
ATOM      5  C   UNL     1       2.243   7.552  19.324  0.00  0.00    +0.000 A 
ATOM      6  C   UNL     1       1.763   8.456  20.283  0.00  0.00    +0.000 A 
ENDROOT
BRANCH   1   8
ATOM      7  O   UNL     1       1.255  11.122  21.675  0.00  0.00    +0.000 OA
ATOM      8  C   UNL     1       0.579  10.661  20.761  0.00  0.00    +0.000 C 
ATOM      9  N   UNL     1      -0.764  10.916  20.532  0.00  0.00    +0.000 N 
ATOM     10  H   UNL     1      -1.250  10.333  19.866  0.00  0.00    +0.000 HD
BRANCH   9  11
ATOM     11  C   UNL     1      -1.559  11.790  21.323  0.00  0.00    +0.000 A 
ATOM     12  C   UNL     1      -2.168  12.944  20.815  0.00  0.00    +0.000 A 
ATOM     13  C   UNL     1      -2.900  13.800  21.643  0.00  0.00    +0.000 A 
ATOM     14  C   UNL     1      -3.042  13.508  22.993  0.00  0.00    +0.000 A 
ATOM     15  C   UNL     1      -2.465  12.347  23.508  0.00  0.00    +0.000 A 
ATOM     16  C   UNL     1      -1.734  11.489  22.678  0.00  0.00    +0.000 A 
ENDBRANCH   9  11
ENDBRANCH   1   8
BRANCH   5  17
ATOM     17  O   UNL     1       2.733   6.336  19.776  0.00  0.00    +0.000 OA
BRANCH  17  18
ATOM     18  C   UNL     1       2.676   5.253  18.895  0.00  0.00    +0.000 A 
ATOM     19  N   UNL     1       1.472   4.637  18.767  0.00  0.00    +0.000 NA
ATOM     20  C   UNL     1       1.424   3.565  17.975  0.00  0.00    +0.000 A 
ATOM     21  N   UNL     1       2.445   3.083  17.269  0.00  0.00    +0.000 NA
ATOM     22  C   UNL     1       3.607   3.763  17.390  0.00  0.00    +0.000 A 
ATOM     23  C   UNL     1       3.820   4.884  18.190  0.00  0.00    +0.000 A 
BRANCH  23  24
ATOM     24  C   UNL     1       5.150   5.534  18.241  0.00  0.00    +0.000 A 
ATOM     25  C   UNL     1       5.499   6.538  17.312  0.00  0.00    +0.000 A 
ATOM     26  C   UNL     1       6.767   7.130  17.302  0.00  0.00    +0.000 A 
ATOM     27  C   UNL     1       7.718   6.745  18.239  0.00  0.00    +0.000 A 
ATOM     28  C   UNL     1       7.402   5.766  19.175  0.00  0.00    +0.000 A 
ATOM     29  C   UNL     1       6.138   5.162  19.170  0.00  0.00    +0.000 A 
ENDBRANCH  23  24
ENDBRANCH  17  18
ENDBRANCH   5  17
TORSDOF 5
ENDMDL
