MODEL 1
REMARK VINA RESULT:      -8.3      0.000      0.000
REMARK  Name = 
REMARK  3 active torsions:
REMARK  status: ('A' for Active; 'I' for Inactive)
REMARK    1  A    between atoms: C_1  and  C_2
REMARK    2  A    between atoms: C_7  and  N_8
REMARK    3  A    between atoms: N_11  and  C_12
REMARK                            x       y       z     vdW  Elec       q    Type
REMARK                         _______ _______ _______ _____ _____    ______ ____
ROOT
ATOM      1  N   UNL     1       1.304   9.284  17.698  0.00  0.00    +0.000 N 
ATOM      2  C   UNL     1       2.033   8.301  18.334  0.00  0.00    +0.000 C 
ATOM      3  O   UNL     1       2.012   8.062  19.537  0.00  0.00    +0.000 OA
ATOM      4  N   UNL     1       2.828   7.568  17.474  0.00  0.00    +0.000 N 
ATOM      5  H   UNL     1       1.337   9.295  16.691  0.00  0.00    +0.000 HD
ATOM      6  H   UNL     1       2.756   7.680  16.475  0.00  0.00    +0.000 HD
ENDROOT
BRANCH   1  13
ATOM      7  C   UNL     1      -3.620  13.103  20.462  0.00  0.00    +0.000 C 
ATOM      8  C   UNL     1      -2.168  12.820  20.361  0.00  0.00    +0.000 A 
ATOM      9  N   UNL     1      -1.288  13.505  21.099  0.00  0.00    +0.000 NA
ATOM     10  N   UNL     1      -0.100  12.971  20.758  0.00  0.00    +0.000 N 
ATOM     11  C   UNL     1      -0.180  11.970  19.828  0.00  0.00    +0.000 A 
ATOM     12  C   UNL     1       0.805  11.162  19.236  0.00  0.00    +0.000 A 
ATOM     13  C   UNL     1       0.398  10.188  18.315  0.00  0.00    +0.000 A 
ATOM     14  C   UNL     1      -0.961  10.080  17.983  0.00  0.00    +0.000 A 
ATOM     15  C   UNL     1      -1.936  10.895  18.590  0.00  0.00    +0.000 A 
ATOM     16  C   UNL     1      -1.531  11.850  19.536  0.00  0.00    +0.000 A 
ATOM     17  H   UNL     1       0.737  13.331  21.205  0.00  0.00    +0.000 HD
ENDBRANCH   1  13
BRANCH   4  18
ATOM     18  C   UNL     1       3.724   6.539  18.003  0.00  0.00    +0.000 C 
ATOM     19  C   UNL     1       5.126   6.646  17.373  0.00  0.00    +0.000 C 
ATOM     20  C   UNL     1       5.213   5.885  16.056  0.00  0.00    +0.000 C 
ATOM     21  C   UNL     1       4.991   4.398  16.304  0.00  0.00    +0.000 C 
ATOM     22  C   UNL     1       3.754   4.129  17.122  0.00  0.00    +0.000 A 
ATOM     23  C   UNL     1       3.267   2.813  17.177  0.00  0.00    +0.000 A 
ATOM     24  C   UNL     1       2.160   2.497  17.961  0.00  0.00    +0.000 A 
ATOM     25  C   UNL     1       1.523   3.496  18.690  0.00  0.00    +0.000 A 
ATOM     26  C   UNL     1       2.007   4.805  18.657  0.00  0.00    +0.000 A 
ATOM     27  C   UNL     1       3.139   5.139  17.893  0.00  0.00    +0.000 A 
ENDBRANCH   4  18
TORSDOF 2
ENDMDL
MODEL 2
REMARK VINA RESULT:      -8.2      0.995      1.444
REMARK  Name = 
REMARK  3 active torsions:
REMARK  status: ('A' for Active; 'I' for Inactive)
REMARK    1  A    between atoms: C_1  and  C_2
REMARK    2  A    between atoms: C_7  and  N_8
REMARK    3  A    between atoms: N_11  and  C_12
REMARK                            x       y       z     vdW  Elec       q    Type
REMARK                         _______ _______ _______ _____ _____    ______ ____
ROOT
ATOM      1  N   UNL     1       1.451   9.254  17.827  0.00  0.00    +0.000 N 
ATOM      2  C   UNL     1       2.137   8.230  18.447  0.00  0.00    +0.000 C 
ATOM      3  O   UNL     1       2.076   7.948  19.639  0.00  0.00    +0.000 OA
ATOM      4  N   UNL     1       2.937   7.508  17.581  0.00  0.00    +0.000 N 
ATOM      5  H   UNL     1       1.511   9.300  16.823  0.00  0.00    +0.000 HD
ATOM      6  H   UNL     1       2.895   7.658  16.586  0.00  0.00    +0.000 HD
ENDROOT
BRANCH   1  13
ATOM      7  C   UNL     1      -2.226  14.044  20.993  0.00  0.00    +0.000 C 
ATOM      8  C   UNL     1      -2.219  12.874  20.081  0.00  0.00    +0.000 A 
ATOM      9  N   UNL     1      -3.351  12.453  19.506  0.00  0.00    +0.000 NA
ATOM     10  N   UNL     1      -2.958  11.407  18.754  0.00  0.00    +0.000 N 
ATOM     11  C   UNL     1      -1.618  11.137  18.823  0.00  0.00    +0.000 A 
ATOM     12  C   UNL     1      -0.826  10.166  18.190  0.00  0.00    +0.000 A 
ATOM     13  C   UNL     1       0.550  10.159  18.453  0.00  0.00    +0.000 A 
ATOM     14  C   UNL     1       1.082  11.084  19.364  0.00  0.00    +0.000 A 
ATOM     15  C   UNL     1       0.273  12.054  19.986  0.00  0.00    +0.000 A 
ATOM     16  C   UNL     1      -1.100  12.081  19.699  0.00  0.00    +0.000 A 
ATOM     17  H   UNL     1      -3.657  10.918  18.204  0.00  0.00    +0.000 HD
ENDBRANCH   1  13
BRANCH   4  18
ATOM     18  C   UNL     1       3.792   6.437  18.096  0.00  0.00    +0.000 C 
ATOM     19  C   UNL     1       5.205   6.513  17.486  0.00  0.00    +0.000 C 
ATOM     20  C   UNL     1       5.284   5.782  16.152  0.00  0.00    +0.000 C 
ATOM     21  C   UNL     1       5.010   4.297  16.361  0.00  0.00    +0.000 C 
ATOM     22  C   UNL     1       3.755   4.050  17.158  0.00  0.00    +0.000 A 
ATOM     23  C   UNL     1       3.224   2.749  17.174  0.00  0.00    +0.000 A 
ATOM     24  C   UNL     1       2.097   2.451  17.936  0.00  0.00    +0.000 A 
ATOM     25  C   UNL     1       1.483   3.454  18.682  0.00  0.00    +0.000 A 
ATOM     26  C   UNL     1       2.010   4.746  18.687  0.00  0.00    +0.000 A 
ATOM     27  C   UNL     1       3.163   5.060  17.945  0.00  0.00    +0.000 A 
ENDBRANCH   4  18
TORSDOF 2
ENDMDL
MODEL 3
REMARK VINA RESULT:      -8.1      1.843      8.574
REMARK  Name = 
REMARK  3 active torsions:
REMARK  status: ('A' for Active; 'I' for Inactive)
REMARK    1  A    between atoms: C_1  and  C_2
REMARK    2  A    between atoms: C_7  and  N_8
REMARK    3  A    between atoms: N_11  and  C_12
REMARK                            x       y       z     vdW  Elec       q    Type
REMARK                         _______ _______ _______ _____ _____    ______ ____
ROOT
ATOM      1  N   UNL     1       2.078   7.879  18.805  0.00  0.00    +0.000 N 
ATOM      2  C   UNL     1       1.606   9.098  18.366  0.00  0.00    +0.000 C 
ATOM      3  O   UNL     1       1.936   9.659  17.325  0.00  0.00    +0.000 OA
ATOM      4  N   UNL     1       0.688   9.670  19.225  0.00  0.00    +0.000 N 
ATOM      5  H   UNL     1       1.637   7.488  19.622  0.00  0.00    +0.000 HD
ATOM      6  H   UNL     1       0.324   9.159  20.014  0.00  0.00    +0.000 HD
ENDROOT
BRANCH   1  13
ATOM      7  C   UNL     1       6.007   3.390  15.505  0.00  0.00    +0.000 C 
ATOM      8  C   UNL     1       5.827   4.787  15.970  0.00  0.00    +0.000 A 
ATOM      9  N   UNL     1       6.728   5.727  15.667  0.00  0.00    +0.000 NA
ATOM     10  N   UNL     1       6.229   6.843  16.232  0.00  0.00    +0.000 N 
ATOM     11  C   UNL     1       5.042   6.658  16.889  0.00  0.00    +0.000 A 
ATOM     12  C   UNL     1       4.206   7.552  17.576  0.00  0.00    +0.000 A 
ATOM     13  C   UNL     1       3.021   7.053  18.134  0.00  0.00    +0.000 A 
ATOM     14  C   UNL     1       2.732   5.685  18.027  0.00  0.00    +0.000 A 
ATOM     15  C   UNL     1       3.581   4.804  17.329  0.00  0.00    +0.000 A 
ATOM     16  C   UNL     1       4.752   5.309  16.744  0.00  0.00    +0.000 A 
ATOM     17  H   UNL     1       6.746   7.709  16.127  0.00  0.00    +0.000 HD
ENDBRANCH   1  13
BRANCH   4  18
ATOM     18  C   UNL     1       0.151  11.002  18.944  0.00  0.00    +0.000 C 
ATOM     19  C   UNL     1       0.390  11.959  20.127  0.00  0.00    +0.000 C 
ATOM     20  C   UNL     1      -0.717  11.857  21.168  0.00  0.00    +0.000 C 
ATOM     21  C   UNL     1      -2.043  12.292  20.555  0.00  0.00    +0.000 C 
ATOM     22  C   UNL     1      -2.325  11.601  19.245  0.00  0.00    +0.000 A 
ATOM     23  C   UNL     1      -3.626  11.677  18.721  0.00  0.00    +0.000 A 
ATOM     24  C   UNL     1      -3.930  11.104  17.488  0.00  0.00    +0.000 A 
ATOM     25  C   UNL     1      -2.938  10.441  16.772  0.00  0.00    +0.000 A 
ATOM     26  C   UNL     1      -1.638  10.372  17.274  0.00  0.00    +0.000 A 
ATOM     27  C   UNL     1      -1.305  10.967  18.504  0.00  0.00    +0.000 A 
ENDBRANCH   4  18
TORSDOF 2
ENDMDL
MODEL 4
REMARK VINA RESULT:      -8.0      2.182      8.596
REMARK  Name = 
REMARK  3 active torsions:
REMARK  status: ('A' for Active; 'I' for Inactive)
REMARK    1  A    between atoms: C_1  and  C_2
REMARK    2  A    between atoms: C_7  and  N_8
REMARK    3  A    between atoms: N_11  and  C_12
REMARK                            x       y       z     vdW  Elec       q    Type
REMARK                         _______ _______ _______ _____ _____    ______ ____
ROOT
ATOM      1  N   UNL     1       1.860   7.964  19.071  0.00  0.00    +0.000 N 
ATOM      2  C   UNL     1       1.436   9.136  18.480  0.00  0.00    +0.000 C 
ATOM      3  O   UNL     1       1.939   9.662  17.493  0.00  0.00    +0.000 OA
ATOM      4  N   UNL     1       0.344   9.702  19.112  0.00  0.00    +0.000 N 
ATOM      5  H   UNL     1       1.285   7.592  19.809  0.00  0.00    +0.000 HD
ATOM      6  H   UNL     1      -0.145   9.211  19.843  0.00  0.00    +0.000 HD
ENDROOT
BRANCH   1  13
ATOM      7  C   UNL     1       7.256   4.680  16.505  0.00  0.00    +0.000 C 
ATOM      8  C   UNL     1       6.268   4.790  17.606  0.00  0.00    +0.000 A 
ATOM      9  N   UNL     1       6.341   3.981  18.668  0.00  0.00    +0.000 NA
ATOM     10  N   UNL     1       5.315   4.378  19.444  0.00  0.00    +0.000 N 
ATOM     11  C   UNL     1       4.583   5.411  18.922  0.00  0.00    +0.000 A 
ATOM     12  C   UNL     1       3.471   6.112  19.417  0.00  0.00    +0.000 A 
ATOM     13  C   UNL     1       2.949   7.156  18.643  0.00  0.00    +0.000 A 
ATOM     14  C   UNL     1       3.519   7.438  17.392  0.00  0.00    +0.000 A 
ATOM     15  C   UNL     1       4.637   6.727  16.914  0.00  0.00    +0.000 A 
ATOM     16  C   UNL     1       5.179   5.701  17.704  0.00  0.00    +0.000 A 
ATOM     17  H   UNL     1       5.169   3.906  20.331  0.00  0.00    +0.000 HD
ENDBRANCH   1  13
BRANCH   4  18
ATOM     18  C   UNL     1      -0.180  10.989  18.656  0.00  0.00    +0.000 C 
ATOM     19  C   UNL     1       0.015  12.079  19.728  0.00  0.00    +0.000 C 
ATOM     20  C   UNL     1      -1.130  12.096  20.732  0.00  0.00    +0.000 C 
ATOM     21  C   UNL     1      -2.432  12.451  20.023  0.00  0.00    +0.000 C 
ATOM     22  C   UNL     1      -2.665  11.611  18.793  0.00  0.00    +0.000 A 
ATOM     23  C   UNL     1      -3.945  11.622  18.215  0.00  0.00    +0.000 A 
ATOM     24  C   UNL     1      -4.204  10.907  17.048  0.00  0.00    +0.000 A 
ATOM     25  C   UNL     1      -3.186  10.168  16.452  0.00  0.00    +0.000 A 
ATOM     26  C   UNL     1      -1.906  10.163  17.007  0.00  0.00    +0.000 A 
ATOM     27  C   UNL     1      -1.618  10.899  18.170  0.00  0.00    +0.000 A 
ENDBRANCH   4  18
TORSDOF 2
ENDMDL
MODEL 5
REMARK VINA RESULT:      -8.0      1.453      1.519
REMARK  Name = 
REMARK  3 active torsions:
REMARK  status: ('A' for Active; 'I' for Inactive)
REMARK    1  A    between atoms: C_1  and  C_2
REMARK    2  A    between atoms: C_7  and  N_8
REMARK    3  A    between atoms: N_11  and  C_12
REMARK                            x       y       z     vdW  Elec       q    Type
REMARK                         _______ _______ _______ _____ _____    ______ ____
ROOT
ATOM      1  N   UNL     1       1.311   9.006  18.871  0.00  0.00    +0.000 N 
ATOM      2  C   UNL     1       1.963   7.891  19.353  0.00  0.00    +0.000 C 
ATOM      3  O   UNL     1       1.947   7.500  20.516  0.00  0.00    +0.000 OA
ATOM      4  N   UNL     1       2.671   7.210  18.381  0.00  0.00    +0.000 N 
ATOM      5  H   UNL     1       1.322   9.144  17.873  0.00  0.00    +0.000 HD
ATOM      6  H   UNL     1       2.586   7.456  17.407  0.00  0.00    +0.000 HD
ENDROOT
BRANCH   1  13
ATOM      7  C   UNL     1      -2.938  13.453  21.815  0.00  0.00    +0.000 C 
ATOM      8  C   UNL     1      -1.980  12.333  21.994  0.00  0.00    +0.000 A 
ATOM      9  N   UNL     1      -1.753  11.820  23.207  0.00  0.00    +0.000 NA
ATOM     10  N   UNL     1      -0.862  10.837  22.977  0.00  0.00    +0.000 N 
ATOM     11  C   UNL     1      -0.506  10.698  21.663  0.00  0.00    +0.000 A 
ATOM     12  C   UNL     1       0.360   9.799  21.019  0.00  0.00    +0.000 A 
ATOM     13  C   UNL     1       0.502   9.897  19.629  0.00  0.00    +0.000 A 
ATOM     14  C   UNL     1      -0.185  10.905  18.936  0.00  0.00    +0.000 A 
ATOM     15  C   UNL     1      -1.053  11.795  19.597  0.00  0.00    +0.000 A 
ATOM     16  C   UNL     1      -1.218  11.677  20.986  0.00  0.00    +0.000 A 
ATOM     17  H   UNL     1      -0.538  10.285  23.765  0.00  0.00    +0.000 HD
ENDBRANCH   1  13
BRANCH   4  18
ATOM     18  C   UNL     1       3.484   6.048  18.744  0.00  0.00    +0.000 C 
ATOM     19  C   UNL     1       4.832   6.058  17.999  0.00  0.00    +0.000 C 
ATOM     20  C   UNL     1       4.722   5.409  16.625  0.00  0.00    +0.000 C 
ATOM     21  C   UNL     1       4.353   3.939  16.777  0.00  0.00    +0.000 C 
ATOM     22  C   UNL     1       3.165   3.735  17.682  0.00  0.00    +0.000 A 
ATOM     23  C   UNL     1       2.536   2.478  17.680  0.00  0.00    +0.000 A 
ATOM     24  C   UNL     1       1.468   2.217  18.536  0.00  0.00    +0.000 A 
ATOM     25  C   UNL     1       1.012   3.212  19.395  0.00  0.00    +0.000 A 
ATOM     26  C   UNL     1       1.639   4.459  19.419  0.00  0.00    +0.000 A 
ATOM     27  C   UNL     1       2.735   4.734  18.582  0.00  0.00    +0.000 A 
ENDBRANCH   4  18
TORSDOF 2
ENDMDL
MODEL 6
REMARK VINA RESULT:      -8.0      6.069      7.660
REMARK  Name = 
REMARK  3 active torsions:
REMARK  status: ('A' for Active; 'I' for Inactive)
REMARK    1  A    between atoms: C_1  and  C_2
REMARK    2  A    between atoms: C_7  and  N_8
REMARK    3  A    between atoms: N_11  and  C_12
REMARK                            x       y       z     vdW  Elec       q    Type
REMARK                         _______ _______ _______ _____ _____    ______ ____
ROOT
ATOM      1  N   UNL     1       7.527   9.230  17.380  0.00  0.00    +0.000 N 
ATOM      2  C   UNL     1       7.623   7.914  17.780  0.00  0.00    +0.000 C 
ATOM      3  O   UNL     1       8.397   7.478  18.626  0.00  0.00    +0.000 OA
ATOM      4  N   UNL     1       6.736   7.080  17.125  0.00  0.00    +0.000 N 
ATOM      5  H   UNL     1       6.772   9.463  16.756  0.00  0.00    +0.000 HD
ATOM      6  H   UNL     1       6.019   7.452  16.523  0.00  0.00    +0.000 HD
ENDROOT
BRANCH   1  13
ATOM      7  C   UNL     1      11.744  13.880  20.042  0.00  0.00    +0.000 C 
ATOM      8  C   UNL     1      10.625  13.597  19.109  0.00  0.00    +0.000 A 
ATOM      9  N   UNL     1      10.114  14.567  18.345  0.00  0.00    +0.000 NA
ATOM     10  N   UNL     1       9.153  13.945  17.637  0.00  0.00    +0.000 N 
ATOM     11  C   UNL     1       9.024  12.611  17.917  0.00  0.00    +0.000 A 
ATOM     12  C   UNL     1       8.173  11.624  17.393  0.00  0.00    +0.000 A 
ATOM     13  C   UNL     1       8.301  10.315  17.877  0.00  0.00    +0.000 A 
ATOM     14  C   UNL     1       9.233  10.043  18.889  0.00  0.00    +0.000 A 
ATOM     15  C   UNL     1      10.082  11.045  19.399  0.00  0.00    +0.000 A 
ATOM     16  C   UNL     1       9.975  12.349  18.892  0.00  0.00    +0.000 A 
ATOM     17  H   UNL     1       8.619  14.488  16.967  0.00  0.00    +0.000 HD
ENDBRANCH   1  13
BRANCH   4  18
ATOM     18  C   UNL     1       6.764   5.638  17.377  0.00  0.00    +0.000 C 
ATOM     19  C   UNL     1       7.434   4.884  16.213  0.00  0.00    +0.000 C 
ATOM     20  C   UNL     1       6.441   4.556  15.106  0.00  0.00    +0.000 C 
ATOM     21  C   UNL     1       5.368   3.613  15.638  0.00  0.00    +0.000 C 
ATOM     22  C   UNL     1       4.758   4.104  16.927  0.00  0.00    +0.000 A 
ATOM     23  C   UNL     1       3.570   3.501  17.371  0.00  0.00    +0.000 A 
ATOM     24  C   UNL     1       2.992   3.877  18.581  0.00  0.00    +0.000 A 
ATOM     25  C   UNL     1       3.592   4.866  19.355  0.00  0.00    +0.000 A 
ATOM     26  C   UNL     1       4.781   5.461  18.933  0.00  0.00    +0.000 A 
ATOM     27  C   UNL     1       5.395   5.077  17.727  0.00  0.00    +0.000 A 
ENDBRANCH   4  18
TORSDOF 2
ENDMDL
MODEL 7
REMARK VINA RESULT:      -7.9      6.247      7.540
REMARK  Name = 
REMARK  3 active torsions:
REMARK  status: ('A' for Active; 'I' for Inactive)
REMARK    1  A    between atoms: C_1  and  C_2
REMARK    2  A    between atoms: C_7  and  N_8
REMARK    3  A    between atoms: N_11  and  C_12
REMARK                            x       y       z     vdW  Elec       q    Type
REMARK                         _______ _______ _______ _____ _____    ______ ____
ROOT
ATOM      1  N   UNL     1       7.759   9.176  17.336  0.00  0.00    +0.000 N 
ATOM      2  C   UNL     1       7.752   7.842  17.685  0.00  0.00    +0.000 C 
ATOM      3  O   UNL     1       8.308   7.356  18.664  0.00  0.00    +0.000 OA
ATOM      4  N   UNL     1       7.034   7.053  16.806  0.00  0.00    +0.000 N 
ATOM      5  H   UNL     1       7.168   9.449  16.567  0.00  0.00    +0.000 HD
ATOM      6  H   UNL     1       6.476   7.463  16.074  0.00  0.00    +0.000 HD
ENDROOT
BRANCH   1  13
ATOM      7  C   UNL     1      10.461  14.710  20.264  0.00  0.00    +0.000 C 
ATOM      8  C   UNL     1      10.191  13.253  20.355  0.00  0.00    +0.000 A 
ATOM      9  N   UNL     1      10.538  12.565  21.447  0.00  0.00    +0.000 NA
ATOM     10  N   UNL     1      10.130  11.310  21.177  0.00  0.00    +0.000 N 
ATOM     11  C   UNL     1       9.535  11.164  19.953  0.00  0.00    +0.000 A 
ATOM     12  C   UNL     1       8.968  10.047  19.317  0.00  0.00    +0.000 A 
ATOM     13  C   UNL     1       8.405  10.225  18.047  0.00  0.00    +0.000 A 
ATOM     14  C   UNL     1       8.463  11.488  17.438  0.00  0.00    +0.000 A 
ATOM     15  C   UNL     1       9.031  12.597  18.093  0.00  0.00    +0.000 A 
ATOM     16  C   UNL     1       9.568  12.426  19.378  0.00  0.00    +0.000 A 
ATOM     17  H   UNL     1      10.280  10.592  21.879  0.00  0.00    +0.000 HD
ENDBRANCH   1  13
BRANCH   4  18
ATOM     18  C   UNL     1       6.994   5.601  16.991  0.00  0.00    +0.000 C 
ATOM     19  C   UNL     1       7.425   4.866  15.707  0.00  0.00    +0.000 C 
ATOM     20  C   UNL     1       6.255   4.664  14.752  0.00  0.00    +0.000 C 
ATOM     21  C   UNL     1       5.209   3.767  15.402  0.00  0.00    +0.000 C 
ATOM     22  C   UNL     1       4.836   4.228  16.788  0.00  0.00    +0.000 A 
ATOM     23  C   UNL     1       3.687   3.682  17.383  0.00  0.00    +0.000 A 
ATOM     24  C   UNL     1       3.325   4.031  18.682  0.00  0.00    +0.000 A 
ATOM     25  C   UNL     1       4.104   4.937  19.396  0.00  0.00    +0.000 A 
ATOM     26  C   UNL     1       5.258   5.474  18.822  0.00  0.00    +0.000 A 
ATOM     27  C   UNL     1       5.654   5.114  17.522  0.00  0.00    +0.000 A 
ENDBRANCH   4  18
TORSDOF 2
ENDMDL
MODEL 8
REMARK VINA RESULT:      -7.9      2.018      3.181
REMARK  Name = 
REMARK  3 active torsions:
REMARK  status: ('A' for Active; 'I' for Inactive)
REMARK    1  A    between atoms: C_1  and  C_2
REMARK    2  A    between atoms: C_7  and  N_8
REMARK    3  A    between atoms: N_11  and  C_12
REMARK                            x       y       z     vdW  Elec       q    Type
REMARK                         _______ _______ _______ _____ _____    ______ ____
ROOT
ATOM      1  N   UNL     1       1.686   8.100  20.782  0.00  0.00    +0.000 N 
ATOM      2  C   UNL     1       1.911   7.737  19.470  0.00  0.00    +0.000 C 
ATOM      3  O   UNL     1       1.520   8.349  18.482  0.00  0.00    +0.000 OA
ATOM      4  N   UNL     1       2.650   6.575  19.345  0.00  0.00    +0.000 N 
ATOM      5  H   UNL     1       2.160   7.564  21.490  0.00  0.00    +0.000 HD
ATOM      6  H   UNL     1       3.075   6.140  20.147  0.00  0.00    +0.000 HD
ENDROOT
BRANCH   1  13
ATOM      7  C   UNL     1      -1.881  13.191  23.583  0.00  0.00    +0.000 C 
ATOM      8  C   UNL     1      -0.944  12.761  22.516  0.00  0.00    +0.000 A 
ATOM      9  N   UNL     1      -0.453  13.648  21.644  0.00  0.00    +0.000 NA
ATOM     10  N   UNL     1       0.353  12.911  20.857  0.00  0.00    +0.000 N 
ATOM     11  C   UNL     1       0.399  11.583  21.187  0.00  0.00    +0.000 A 
ATOM     12  C   UNL     1       1.118  10.509  20.638  0.00  0.00    +0.000 A 
ATOM     13  C   UNL     1       0.967   9.245  21.223  0.00  0.00    +0.000 A 
ATOM     14  C   UNL     1       0.081   9.085  22.299  0.00  0.00    +0.000 A 
ATOM     15  C   UNL     1      -0.628  10.175  22.839  0.00  0.00    +0.000 A 
ATOM     16  C   UNL     1      -0.454  11.447  22.272  0.00  0.00    +0.000 A 
ATOM     17  H   UNL     1       0.856  13.378  20.109  0.00  0.00    +0.000 HD
ENDBRANCH   1  13
BRANCH   4  18
ATOM     18  C   UNL     1       2.908   6.012  18.019  0.00  0.00    +0.000 C 
ATOM     19  C   UNL     1       2.110   4.712  17.803  0.00  0.00    +0.000 C 
ATOM     20  C   UNL     1       2.854   3.496  18.341  0.00  0.00    +0.000 C 
ATOM     21  C   UNL     1       4.156   3.306  17.572  0.00  0.00    +0.000 C 
ATOM     22  C   UNL     1       4.967   4.574  17.492  0.00  0.00    +0.000 A 
ATOM     23  C   UNL     1       6.306   4.481  17.078  0.00  0.00    +0.000 A 
ATOM     24  C   UNL     1       7.087   5.625  16.935  0.00  0.00    +0.000 A 
ATOM     25  C   UNL     1       6.539   6.874  17.213  0.00  0.00    +0.000 A 
ATOM     26  C   UNL     1       5.205   6.982  17.608  0.00  0.00    +0.000 A 
ATOM     27  C   UNL     1       4.393   5.841  17.734  0.00  0.00    +0.000 A 
ENDBRANCH   4  18
TORSDOF 2
ENDMDL
MODEL 9
REMARK VINA RESULT:      -7.8      1.667      1.811
REMARK  Name = 
REMARK  3 active torsions:
REMARK  status: ('A' for Active; 'I' for Inactive)
REMARK    1  A    between atoms: C_1  and  C_2
REMARK    2  A    between atoms: C_7  and  N_8
REMARK    3  A    between atoms: N_11  and  C_12
REMARK                            x       y       z     vdW  Elec       q    Type
REMARK                         _______ _______ _______ _____ _____    ______ ____
ROOT
ATOM      1  N   UNL     1       1.342   9.071  19.169  0.00  0.00    +0.000 N 
ATOM      2  C   UNL     1       2.003   7.959  19.646  0.00  0.00    +0.000 C 
ATOM      3  O   UNL     1       2.200   7.697  20.828  0.00  0.00    +0.000 OA
ATOM      4  N   UNL     1       2.450   7.118  18.644  0.00  0.00    +0.000 N 
ATOM      5  H   UNL     1       1.158   9.101  18.179  0.00  0.00    +0.000 HD
ATOM      6  H   UNL     1       2.184   7.266  17.684  0.00  0.00    +0.000 HD
ENDROOT
BRANCH   1  13
ATOM      7  C   UNL     1      -1.618  13.463  23.463  0.00  0.00    +0.000 C 
ATOM      8  C   UNL     1      -0.703  13.266  22.311  0.00  0.00    +0.000 A 
ATOM      9  N   UNL     1      -0.060  14.304  21.768  0.00  0.00    +0.000 NA
ATOM     10  N   UNL     1       0.671  13.748  20.783  0.00  0.00    +0.000 N 
ATOM     11  C   UNL     1       0.523  12.392  20.671  0.00  0.00    +0.000 A 
ATOM     12  C   UNL     1       1.112  11.456  19.805  0.00  0.00    +0.000 A 
ATOM     13  C   UNL     1       0.767  10.107  19.955  0.00  0.00    +0.000 A 
ATOM     14  C   UNL     1      -0.178   9.741  20.926  0.00  0.00    +0.000 A 
ATOM     15  C   UNL     1      -0.754  10.693  21.789  0.00  0.00    +0.000 A 
ATOM     16  C   UNL     1      -0.386  12.041  21.658  0.00  0.00    +0.000 A 
ATOM     17  H   UNL     1       1.264  14.352  20.222  0.00  0.00    +0.000 HD
ENDBRANCH   1  13
BRANCH   4  18
ATOM     18  C   UNL     1       3.240   5.933  18.981  0.00  0.00    +0.000 C 
ATOM     19  C   UNL     1       4.577   5.921  18.216  0.00  0.00    +0.000 C 
ATOM     20  C   UNL     1       4.433   5.294  16.835  0.00  0.00    +0.000 C 
ATOM     21  C   UNL     1       4.031   3.831  16.973  0.00  0.00    +0.000 C 
ATOM     22  C   UNL     1       2.851   3.642  17.893  0.00  0.00    +0.000 A 
ATOM     23  C   UNL     1       2.193   2.401  17.883  0.00  0.00    +0.000 A 
ATOM     24  C   UNL     1       1.132   2.153  18.750  0.00  0.00    +0.000 A 
ATOM     25  C   UNL     1       0.711   3.147  19.629  0.00  0.00    +0.000 A 
ATOM     26  C   UNL     1       1.367   4.378  19.660  0.00  0.00    +0.000 A 
ATOM     27  C   UNL     1       2.458   4.639  18.812  0.00  0.00    +0.000 A 
ENDBRANCH   4  18
TORSDOF 2
ENDMDL
