MODEL 1
REMARK VINA RESULT:      -8.7      0.000      0.000
REMARK  Name = 
REMARK  6 active torsions:
REMARK  status: ('A' for Active; 'I' for Inactive)
REMARK    1  A    between atoms: C_2  and  C_3
REMARK    2  A    between atoms: C_3  and  C_4
REMARK    3  A    between atoms: N_14  and  C_15
REMARK    4  A    between atoms: C_15  and  C_16
REMARK    5  A    between atoms: C_19  and  S_20
REMARK    6  A    between atoms: S_20  and  N_23
REMARK                            x       y       z     vdW  Elec       q    Type
REMARK                         _______ _______ _______ _____ _____    ______ ____
ROOT
ATOM      1  C   UNL     1       1.315   8.032  21.156  0.00  0.00    +0.000 C 
ENDROOT
BRANCH   1   2
ATOM      2  C   UNL     1       1.840   6.865  20.354  0.00  0.00    +0.000 A 
ATOM      3  C   UNL     1       2.317   7.064  19.049  0.00  0.00    +0.000 A 
ATOM      4  C   UNL     1       2.812   5.997  18.291  0.00  0.00    +0.000 A 
ATOM      5  C   UNL     1       2.845   4.714  18.845  0.00  0.00    +0.000 A 
ATOM      6  C   UNL     1       2.348   4.494  20.135  0.00  0.00    +0.000 A 
ATOM      7  C   UNL     1       1.852   5.566  20.885  0.00  0.00    +0.000 A 
BRANCH   5   8
ATOM      8  S   UNL     1       3.371   3.311  17.864  0.00  0.00    +0.000 S 
ATOM      9  O   UNL     1       3.544   2.199  18.772  0.00  0.00    +0.000 OA
ATOM     10  O   UNL     1       2.469   3.217  16.730  0.00  0.00    +0.000 OA
BRANCH   8  11
ATOM     11  N   UNL     1       4.921   3.754  17.270  0.00  0.00    +0.000 NA
ATOM     12  C   UNL     1       4.934   4.278  15.882  0.00  0.00    +0.000 C 
ATOM     13  C   UNL     1       6.350   4.515  15.370  0.00  0.00    +0.000 C 
ATOM     14  C   UNL     1       7.156   5.363  16.341  0.00  0.00    +0.000 C 
ATOM     15  C   UNL     1       7.207   4.668  17.692  0.00  0.00    +0.000 C 
ATOM     16  C   UNL     1       5.807   4.428  18.249  0.00  0.00    +0.000 C 
ENDBRANCH   8  11
ENDBRANCH   5   8
ENDBRANCH   1   2
BRANCH   1  19
ATOM     17  O   UNL     1       0.488  10.598  22.059  0.00  0.00    +0.000 OA
ATOM     18  C   UNL     1       0.598  10.385  20.854  0.00  0.00    +0.000 C 
ATOM     19  N   UNL     1       0.967   9.165  20.328  0.00  0.00    +0.000 N 
ATOM     20  H   UNL     1       1.108   9.085  19.331  0.00  0.00    +0.000 HD
BRANCH  18  21
ATOM     21  C   UNL     1       0.311  11.452  19.808  0.00  0.00    +0.000 C 
BRANCH  21  22
ATOM     22  C   UNL     1      -1.027  11.294  19.127  0.00  0.00    +0.000 A 
ATOM     23  C   UNL     1      -1.157  10.498  17.979  0.00  0.00    +0.000 A 
ATOM     24  C   UNL     1      -2.387  10.385  17.325  0.00  0.00    +0.000 A 
ATOM     25  C   UNL     1      -3.496  11.076  17.805  0.00  0.00    +0.000 A 
ATOM     26  C   UNL     1      -3.384  11.861  18.956  0.00  0.00    +0.000 A 
ATOM     27  C   UNL     1      -2.154  11.981  19.605  0.00  0.00    +0.000 A 
ATOM     28  O   UNL     1      -4.435  12.556  19.498  0.00  0.00    +0.000 OA
ATOM     29  C   UNL     1      -5.688  12.109  18.964  0.00  0.00    +0.000 C 
ATOM     30  C   UNL     1      -5.609  11.952  17.454  0.00  0.00    +0.000 C 
ATOM     31  O   UNL     1      -4.664  10.938  17.100  0.00  0.00    +0.000 OA
ENDBRANCH  21  22
ENDBRANCH  18  21
ENDBRANCH   1  19
TORSDOF 6
ENDMDL
MODEL 2
REMARK VINA RESULT:      -8.5      0.653      1.369
REMARK  Name = 
REMARK  6 active torsions:
REMARK  status: ('A' for Active; 'I' for Inactive)
REMARK    1  A    between atoms: C_2  and  C_3
REMARK    2  A    between atoms: C_3  and  C_4
REMARK    3  A    between atoms: N_14  and  C_15
REMARK    4  A    between atoms: C_15  and  C_16
REMARK    5  A    between atoms: C_19  and  S_20
REMARK    6  A    between atoms: S_20  and  N_23
REMARK                            x       y       z     vdW  Elec       q    Type
REMARK                         _______ _______ _______ _____ _____    ______ ____
ROOT
ATOM      1  C   UNL     1       1.371   8.490  20.878  0.00  0.00    +0.000 C 
ENDROOT
BRANCH   1   2
ATOM      2  C   UNL     1       1.856   7.254  20.158  0.00  0.00    +0.000 A 
ATOM      3  C   UNL     1       2.353   7.350  18.849  0.00  0.00    +0.000 A 
ATOM      4  C   UNL     1       2.812   6.217  18.167  0.00  0.00    +0.000 A 
ATOM      5  C   UNL     1       2.787   4.972  18.802  0.00  0.00    +0.000 A 
ATOM      6  C   UNL     1       2.268   4.856  20.096  0.00  0.00    +0.000 A 
ATOM      7  C   UNL     1       1.809   5.992  20.771  0.00  0.00    +0.000 A 
BRANCH   5   8
ATOM      8  S   UNL     1       3.264   3.490  17.918  0.00  0.00    +0.000 S 
ATOM      9  O   UNL     1       3.360   2.426  18.893  0.00  0.00    +0.000 OA
ATOM     10  O   UNL     1       2.386   3.372  16.768  0.00  0.00    +0.000 OA
BRANCH   8  11
ATOM     11  N   UNL     1       4.848   3.821  17.340  0.00  0.00    +0.000 NA
ATOM     12  C   UNL     1       4.918   4.285  15.932  0.00  0.00    +0.000 C 
ATOM     13  C   UNL     1       6.354   4.422  15.442  0.00  0.00    +0.000 C 
ATOM     14  C   UNL     1       7.188   5.263  16.395  0.00  0.00    +0.000 C 
ATOM     15  C   UNL     1       7.174   4.623  17.774  0.00  0.00    +0.000 C 
ATOM     16  C   UNL     1       5.752   4.484  18.310  0.00  0.00    +0.000 C 
ENDBRANCH   8  11
ENDBRANCH   5   8
ENDBRANCH   1   2
BRANCH   1  19
ATOM     17  O   UNL     1       1.284  11.288  21.373  0.00  0.00    +0.000 OA
ATOM     18  C   UNL     1       0.909  10.852  20.287  0.00  0.00    +0.000 C 
ATOM     19  N   UNL     1       0.893   9.510  19.972  0.00  0.00    +0.000 N 
ATOM     20  H   UNL     1       0.641   9.232  19.034  0.00  0.00    +0.000 HD
BRANCH  18  21
ATOM     21  C   UNL     1       0.397  11.759  19.178  0.00  0.00    +0.000 C 
BRANCH  21  22
ATOM     22  C   UNL     1      -1.104  11.922  19.169  0.00  0.00    +0.000 A 
ATOM     23  C   UNL     1      -1.773  12.460  20.278  0.00  0.00    +0.000 A 
ATOM     24  C   UNL     1      -3.165  12.573  20.284  0.00  0.00    +0.000 A 
ATOM     25  C   UNL     1      -3.905  12.138  19.188  0.00  0.00    +0.000 A 
ATOM     26  C   UNL     1      -3.249  11.613  18.070  0.00  0.00    +0.000 A 
ATOM     27  C   UNL     1      -1.859  11.492  18.066  0.00  0.00    +0.000 A 
ATOM     28  O   UNL     1      -3.907  11.180  16.947  0.00  0.00    +0.000 OA
ATOM     29  C   UNL     1      -5.263  11.646  16.923  0.00  0.00    +0.000 C 
ATOM     30  C   UNL     1      -5.922  11.461  18.280  0.00  0.00    +0.000 C 
ATOM     31  O   UNL     1      -5.268  12.256  19.273  0.00  0.00    +0.000 OA
ENDBRANCH  21  22
ENDBRANCH  18  21
ENDBRANCH   1  19
TORSDOF 6
ENDMDL
MODEL 3
REMARK VINA RESULT:      -8.4      0.997      1.389
REMARK  Name = 
REMARK  6 active torsions:
REMARK  status: ('A' for Active; 'I' for Inactive)
REMARK    1  A    between atoms: C_2  and  C_3
REMARK    2  A    between atoms: C_3  and  C_4
REMARK    3  A    between atoms: N_14  and  C_15
REMARK    4  A    between atoms: C_15  and  C_16
REMARK    5  A    between atoms: C_19  and  S_20
REMARK    6  A    between atoms: S_20  and  N_23
REMARK                            x       y       z     vdW  Elec       q    Type
REMARK                         _______ _______ _______ _____ _____    ______ ____
ROOT
ATOM      1  C   UNL     1       0.944   8.693  20.942  0.00  0.00    +0.000 C 
ENDROOT
BRANCH   1   2
ATOM      2  C   UNL     1       1.668   7.547  20.275  0.00  0.00    +0.000 A 
ATOM      3  C   UNL     1       1.749   6.299  20.911  0.00  0.00    +0.000 A 
ATOM      4  C   UNL     1       2.411   5.224  20.308  0.00  0.00    +0.000 A 
ATOM      5  C   UNL     1       2.991   5.391  19.047  0.00  0.00    +0.000 A 
ATOM      6  C   UNL     1       2.943   6.637  18.412  0.00  0.00    +0.000 A 
ATOM      7  C   UNL     1       2.281   7.708  19.024  0.00  0.00    +0.000 A 
BRANCH   5   8
ATOM      8  S   UNL     1       3.938   4.068  18.298  0.00  0.00    +0.000 S 
ATOM      9  O   UNL     1       4.038   3.009  19.277  0.00  0.00    +0.000 OA
ATOM     10  O   UNL     1       3.368   3.821  16.985  0.00  0.00    +0.000 OA
BRANCH   8  11
ATOM     11  N   UNL     1       5.507   4.731  18.074  0.00  0.00    +0.000 NA
ATOM     12  C   UNL     1       5.700   5.474  16.805  0.00  0.00    +0.000 C 
ATOM     13  C   UNL     1       7.146   5.910  16.607  0.00  0.00    +0.000 C 
ATOM     14  C   UNL     1       7.674   6.652  17.824  0.00  0.00    +0.000 C 
ATOM     15  C   UNL     1       7.570   5.752  19.045  0.00  0.00    +0.000 C 
ATOM     16  C   UNL     1       6.132   5.307  19.290  0.00  0.00    +0.000 C 
ENDBRANCH   8  11
ENDBRANCH   5   8
ENDBRANCH   1   2
BRANCH   1  19
ATOM     17  O   UNL     1       0.784  11.501  21.355  0.00  0.00    +0.000 OA
ATOM     18  C   UNL     1       0.447  11.027  20.273  0.00  0.00    +0.000 C 
ATOM     19  N   UNL     1       0.467   9.677  19.995  0.00  0.00    +0.000 N 
ATOM     20  H   UNL     1       0.246   9.367  19.060  0.00  0.00    +0.000 HD
BRANCH  18  21
ATOM     21  C   UNL     1      -0.056  11.891  19.125  0.00  0.00    +0.000 C 
BRANCH  21  22
ATOM     22  C   UNL     1      -1.493  11.627  18.748  0.00  0.00    +0.000 A 
ATOM     23  C   UNL     1      -1.808  10.850  17.623  0.00  0.00    +0.000 A 
ATOM     24  C   UNL     1      -3.138  10.641  17.251  0.00  0.00    +0.000 A 
ATOM     25  C   UNL     1      -4.167  11.215  17.991  0.00  0.00    +0.000 A 
ATOM     26  C   UNL     1      -3.868  11.980  19.123  0.00  0.00    +0.000 A 
ATOM     27  C   UNL     1      -2.539  12.197  19.491  0.00  0.00    +0.000 A 
ATOM     28  O   UNL     1      -4.827  12.563  19.912  0.00  0.00    +0.000 OA
ATOM     29  C   UNL     1      -6.125  12.016  19.647  0.00  0.00    +0.000 C 
ATOM     30  C   UNL     1      -6.371  11.903  18.151  0.00  0.00    +0.000 C 
ATOM     31  O   UNL     1      -5.446  10.988  17.554  0.00  0.00    +0.000 OA
ENDBRANCH  21  22
ENDBRANCH  18  21
ENDBRANCH   1  19
TORSDOF 6
ENDMDL
MODEL 4
REMARK VINA RESULT:      -8.3      2.896     10.063
REMARK  Name = 
REMARK  6 active torsions:
REMARK  status: ('A' for Active; 'I' for Inactive)
REMARK    1  A    between atoms: C_2  and  C_3
REMARK    2  A    between atoms: C_3  and  C_4
REMARK    3  A    between atoms: N_14  and  C_15
REMARK    4  A    between atoms: C_15  and  C_16
REMARK    5  A    between atoms: C_19  and  S_20
REMARK    6  A    between atoms: S_20  and  N_23
REMARK                            x       y       z     vdW  Elec       q    Type
REMARK                         _______ _______ _______ _____ _____    ______ ____
ROOT
ATOM      1  C   UNL     1       2.795   6.110  19.909  0.00  0.00    +0.000 C 
ENDROOT
BRANCH   1   2
ATOM      2  C   UNL     1       2.146   7.461  19.718  0.00  0.00    +0.000 A 
ATOM      3  C   UNL     1       2.315   8.159  18.512  0.00  0.00    +0.000 A 
ATOM      4  C   UNL     1       1.718   9.410  18.314  0.00  0.00    +0.000 A 
ATOM      5  C   UNL     1       0.932   9.967  19.327  0.00  0.00    +0.000 A 
ATOM      6  C   UNL     1       0.777   9.295  20.544  0.00  0.00    +0.000 A 
ATOM      7  C   UNL     1       1.379   8.047  20.736  0.00  0.00    +0.000 A 
BRANCH   5   8
ATOM      8  S   UNL     1       0.245  11.611  19.146  0.00  0.00    +0.000 S 
ATOM      9  O   UNL     1      -0.047  12.099  20.475  0.00  0.00    +0.000 OA
ATOM     10  O   UNL     1       1.123  12.349  18.255  0.00  0.00    +0.000 OA
BRANCH   8  11
ATOM     11  N   UNL     1      -1.249  11.370  18.332  0.00  0.00    +0.000 NA
ATOM     12  C   UNL     1      -1.353  10.098  17.575  0.00  0.00    +0.000 C 
ATOM     13  C   UNL     1      -2.641  10.015  16.765  0.00  0.00    +0.000 C 
ATOM     14  C   UNL     1      -3.859  10.302  17.628  0.00  0.00    +0.000 C 
ATOM     15  C   UNL     1      -3.725  11.687  18.240  0.00  0.00    +0.000 C 
ATOM     16  C   UNL     1      -2.455  11.808  19.076  0.00  0.00    +0.000 C 
ENDBRANCH   8  11
ENDBRANCH   5   8
ENDBRANCH   1   2
BRANCH   1  19
ATOM     17  O   UNL     1       4.414   3.811  19.486  0.00  0.00    +0.000 OA
ATOM     18  C   UNL     1       3.755   4.268  18.556  0.00  0.00    +0.000 C 
ATOM     19  N   UNL     1       2.965   5.393  18.664  0.00  0.00    +0.000 N 
ATOM     20  H   UNL     1       2.395   5.668  17.877  0.00  0.00    +0.000 HD
BRANCH  18  21
ATOM     21  C   UNL     1       3.765   3.646  17.167  0.00  0.00    +0.000 C 
BRANCH  21  22
ATOM     22  C   UNL     1       4.925   4.090  16.308  0.00  0.00    +0.000 A 
ATOM     23  C   UNL     1       5.943   4.896  16.840  0.00  0.00    +0.000 A 
ATOM     24  C   UNL     1       6.994   5.340  16.034  0.00  0.00    +0.000 A 
ATOM     25  C   UNL     1       7.033   4.994  14.686  0.00  0.00    +0.000 A 
ATOM     26  C   UNL     1       6.033   4.180  14.147  0.00  0.00    +0.000 A 
ATOM     27  C   UNL     1       4.977   3.742  14.949  0.00  0.00    +0.000 A 
ATOM     28  O   UNL     1       6.012   3.783  12.834  0.00  0.00    +0.000 OA
ATOM     29  C   UNL     1       7.279   4.003  12.202  0.00  0.00    +0.000 C 
ATOM     30  C   UNL     1       7.825   5.379  12.547  0.00  0.00    +0.000 C 
ATOM     31  O   UNL     1       8.081   5.485  13.951  0.00  0.00    +0.000 OA
ENDBRANCH  21  22
ENDBRANCH  18  21
ENDBRANCH   1  19
TORSDOF 6
ENDMDL
MODEL 5
REMARK VINA RESULT:      -8.3      0.775      1.909
REMARK  Name = 
REMARK  6 active torsions:
REMARK  status: ('A' for Active; 'I' for Inactive)
REMARK    1  A    between atoms: C_2  and  C_3
REMARK    2  A    between atoms: C_3  and  C_4
REMARK    3  A    between atoms: N_14  and  C_15
REMARK    4  A    between atoms: C_15  and  C_16
REMARK    5  A    between atoms: C_19  and  S_20
REMARK    6  A    between atoms: S_20  and  N_23
REMARK                            x       y       z     vdW  Elec       q    Type
REMARK                         _______ _______ _______ _____ _____    ______ ____
ROOT
ATOM      1  C   UNL     1       1.150   8.537  21.052  0.00  0.00    +0.000 C 
ENDROOT
BRANCH   1   2
ATOM      2  C   UNL     1       1.688   7.359  20.274  0.00  0.00    +0.000 A 
ATOM      3  C   UNL     1       1.606   6.064  20.809  0.00  0.00    +0.000 A 
ATOM      4  C   UNL     1       2.094   4.960  20.100  0.00  0.00    +0.000 A 
ATOM      5  C   UNL     1       2.660   5.146  18.836  0.00  0.00    +0.000 A 
ATOM      6  C   UNL     1       2.773   6.434  18.301  0.00  0.00    +0.000 A 
ATOM      7  C   UNL     1       2.286   7.534  19.017  0.00  0.00    +0.000 A 
BRANCH   5   8
ATOM      8  S   UNL     1       3.391   3.770  17.954  0.00  0.00    +0.000 S 
ATOM      9  O   UNL     1       3.890   2.845  18.947  0.00  0.00    +0.000 OA
ATOM     10  O   UNL     1       2.431   3.344  16.951  0.00  0.00    +0.000 OA
BRANCH   8  11
ATOM     11  N   UNL     1       4.742   4.447  17.136  0.00  0.00    +0.000 NA
ATOM     12  C   UNL     1       5.980   4.549  17.947  0.00  0.00    +0.000 C 
ATOM     13  C   UNL     1       7.091   5.286  17.210  0.00  0.00    +0.000 C 
ATOM     14  C   UNL     1       7.325   4.698  15.828  0.00  0.00    +0.000 C 
ATOM     15  C   UNL     1       6.037   4.775  15.025  0.00  0.00    +0.000 C 
ATOM     16  C   UNL     1       4.900   4.033  15.720  0.00  0.00    +0.000 C 
ENDBRANCH   8  11
ENDBRANCH   5   8
ENDBRANCH   1   2
BRANCH   1  19
ATOM     17  O   UNL     1       1.326  11.318  21.614  0.00  0.00    +0.000 OA
ATOM     18  C   UNL     1       0.860  10.945  20.541  0.00  0.00    +0.000 C 
ATOM     19  N   UNL     1       0.713   9.618  20.197  0.00  0.00    +0.000 N 
ATOM     20  H   UNL     1       0.390   9.387  19.268  0.00  0.00    +0.000 HD
BRANCH  18  21
ATOM     21  C   UNL     1       0.369  11.920  19.481  0.00  0.00    +0.000 C 
BRANCH  21  22
ATOM     22  C   UNL     1      -1.135  12.030  19.404  0.00  0.00    +0.000 A 
ATOM     23  C   UNL     1      -1.874  12.522  20.490  0.00  0.00    +0.000 A 
ATOM     24  C   UNL     1      -3.269  12.585  20.432  0.00  0.00    +0.000 A 
ATOM     25  C   UNL     1      -3.939  12.145  19.294  0.00  0.00    +0.000 A 
ATOM     26  C   UNL     1      -3.214  11.666  18.200  0.00  0.00    +0.000 A 
ATOM     27  C   UNL     1      -1.821  11.595  18.259  0.00  0.00    +0.000 A 
ATOM     28  O   UNL     1      -3.802  11.232  17.039  0.00  0.00    +0.000 OA
ATOM     29  C   UNL     1      -5.171  11.649  16.959  0.00  0.00    +0.000 C 
ATOM     30  C   UNL     1      -5.887  11.415  18.280  0.00  0.00    +0.000 C 
ATOM     31  O   UNL     1      -5.309  12.213  19.317  0.00  0.00    +0.000 OA
ENDBRANCH  21  22
ENDBRANCH  18  21
ENDBRANCH   1  19
TORSDOF 6
ENDMDL
MODEL 6
REMARK VINA RESULT:      -8.3      2.323      3.019
REMARK  Name = 
REMARK  6 active torsions:
REMARK  status: ('A' for Active; 'I' for Inactive)
REMARK    1  A    between atoms: C_2  and  C_3
REMARK    2  A    between atoms: C_3  and  C_4
REMARK    3  A    between atoms: N_14  and  C_15
REMARK    4  A    between atoms: C_15  and  C_16
REMARK    5  A    between atoms: C_19  and  S_20
REMARK    6  A    between atoms: S_20  and  N_23
REMARK                            x       y       z     vdW  Elec       q    Type
REMARK                         _______ _______ _______ _____ _____    ______ ____
ROOT
ATOM      1  C   UNL     1       2.015   7.179  19.303  0.00  0.00    +0.000 C 
ENDROOT
BRANCH   1   2
ATOM      2  C   UNL     1       3.271   6.762  18.575  0.00  0.00    +0.000 A 
ATOM      3  C   UNL     1       4.058   5.711  19.070  0.00  0.00    +0.000 A 
ATOM      4  C   UNL     1       5.223   5.307  18.407  0.00  0.00    +0.000 A 
ATOM      5  C   UNL     1       5.603   5.952  17.226  0.00  0.00    +0.000 A 
ATOM      6  C   UNL     1       4.844   7.020  16.735  0.00  0.00    +0.000 A 
ATOM      7  C   UNL     1       3.682   7.419  17.405  0.00  0.00    +0.000 A 
BRANCH   5   8
ATOM      8  S   UNL     1       7.143   5.531  16.415  0.00  0.00    +0.000 S 
ATOM      9  O   UNL     1       7.919   6.748  16.320  0.00  0.00    +0.000 OA
ATOM     10  O   UNL     1       7.673   4.355  17.081  0.00  0.00    +0.000 OA
BRANCH   8  11
ATOM     11  N   UNL     1       6.683   5.073  14.824  0.00  0.00    +0.000 NA
ATOM     12  C   UNL     1       7.773   5.120  13.818  0.00  0.00    +0.000 C 
ATOM     13  C   UNL     1       7.267   4.842  12.408  0.00  0.00    +0.000 C 
ATOM     14  C   UNL     1       6.453   3.559  12.353  0.00  0.00    +0.000 C 
ATOM     15  C   UNL     1       5.277   3.670  13.310  0.00  0.00    +0.000 C 
ATOM     16  C   UNL     1       5.741   3.931  14.739  0.00  0.00    +0.000 C 
ENDBRANCH   8  11
ENDBRANCH   5   8
ENDBRANCH   1   2
BRANCH   1  19
ATOM     17  O   UNL     1       0.615   9.050  20.922  0.00  0.00    +0.000 OA
ATOM     18  C   UNL     1       0.892   9.340  19.761  0.00  0.00    +0.000 C 
ATOM     19  N   UNL     1       1.544   8.485  18.899  0.00  0.00    +0.000 N 
ATOM     20  H   UNL     1       1.803   8.820  17.982  0.00  0.00    +0.000 HD
BRANCH  18  21
ATOM     21  C   UNL     1       0.515  10.679  19.144  0.00  0.00    +0.000 C 
BRANCH  21  22
ATOM     22  C   UNL     1      -0.915  10.750  18.667  0.00  0.00    +0.000 A 
ATOM     23  C   UNL     1      -1.326  10.043  17.527  0.00  0.00    +0.000 A 
ATOM     24  C   UNL     1      -2.640  10.142  17.062  0.00  0.00    +0.000 A 
ATOM     25  C   UNL     1      -3.553  10.958  17.724  0.00  0.00    +0.000 A 
ATOM     26  C   UNL     1      -3.160  11.657  18.869  0.00  0.00    +0.000 A 
ATOM     27  C   UNL     1      -1.846  11.565  19.330  0.00  0.00    +0.000 A 
ATOM     28  O   UNL     1      -4.007  12.466  19.584  0.00  0.00    +0.000 OA
ATOM     29  C   UNL     1      -5.376  12.231  19.231  0.00  0.00    +0.000 C 
ATOM     30  C   UNL     1      -5.539  12.144  17.722  0.00  0.00    +0.000 C 
ATOM     31  O   UNL     1      -4.817  11.026  17.198  0.00  0.00    +0.000 OA
ENDBRANCH  21  22
ENDBRANCH  18  21
ENDBRANCH   1  19
TORSDOF 6
ENDMDL
MODEL 7
REMARK VINA RESULT:      -8.2      1.225      2.160
REMARK  Name = 
REMARK  6 active torsions:
REMARK  status: ('A' for Active; 'I' for Inactive)
REMARK    1  A    between atoms: C_2  and  C_3
REMARK    2  A    between atoms: C_3  and  C_4
REMARK    3  A    between atoms: N_14  and  C_15
REMARK    4  A    between atoms: C_15  and  C_16
REMARK    5  A    between atoms: C_19  and  S_20
REMARK    6  A    between atoms: S_20  and  N_23
REMARK                            x       y       z     vdW  Elec       q    Type
REMARK                         _______ _______ _______ _____ _____    ______ ____
ROOT
ATOM      1  C   UNL     1       0.764   9.454  20.831  0.00  0.00    +0.000 C 
ENDROOT
BRANCH   1   2
ATOM      2  C   UNL     1       1.389   8.196  20.275  0.00  0.00    +0.000 A 
ATOM      3  C   UNL     1       2.011   8.214  19.017  0.00  0.00    +0.000 A 
ATOM      4  C   UNL     1       2.600   7.059  18.488  0.00  0.00    +0.000 A 
ATOM      5  C   UNL     1       2.580   5.874  19.227  0.00  0.00    +0.000 A 
ATOM      6  C   UNL     1       1.940   5.833  20.471  0.00  0.00    +0.000 A 
ATOM      7  C   UNL     1       1.351   6.991  20.992  0.00  0.00    +0.000 A 
BRANCH   5   8
ATOM      8  S   UNL     1       3.228   4.356  18.532  0.00  0.00    +0.000 S 
ATOM      9  O   UNL     1       3.347   3.408  19.617  0.00  0.00    +0.000 OA
ATOM     10  O   UNL     1       2.435   4.049  17.354  0.00  0.00    +0.000 OA
BRANCH   8  11
ATOM     11  N   UNL     1       4.813   4.761  18.008  0.00  0.00    +0.000 NA
ATOM     12  C   UNL     1       5.789   5.010  19.097  0.00  0.00    +0.000 C 
ATOM     13  C   UNL     1       7.131   5.501  18.566  0.00  0.00    +0.000 C 
ATOM     14  C   UNL     1       7.665   4.586  17.477  0.00  0.00    +0.000 C 
ATOM     15  C   UNL     1       6.657   4.515  16.341  0.00  0.00    +0.000 C 
ATOM     16  C   UNL     1       5.303   4.009  16.827  0.00  0.00    +0.000 C 
ENDBRANCH   8  11
ENDBRANCH   5   8
ENDBRANCH   1   2
BRANCH   1  19
ATOM     17  O   UNL     1       0.991  12.184  20.071  0.00  0.00    +0.000 OA
ATOM     18  C   UNL     1       0.147  11.474  19.532  0.00  0.00    +0.000 C 
ATOM     19  N   UNL     1      -0.049  10.148  19.857  0.00  0.00    +0.000 N 
ATOM     20  H   UNL     1      -0.712   9.607  19.320  0.00  0.00    +0.000 HD
BRANCH  18  21
ATOM     21  C   UNL     1      -0.794  11.997  18.457  0.00  0.00    +0.000 C 
BRANCH  21  22
ATOM     22  C   UNL     1      -2.230  12.114  18.908  0.00  0.00    +0.000 A 
ATOM     23  C   UNL     1      -2.551  12.732  20.126  0.00  0.00    +0.000 A 
ATOM     24  C   UNL     1      -3.877  12.802  20.561  0.00  0.00    +0.000 A 
ATOM     25  C   UNL     1      -4.893  12.245  19.790  0.00  0.00    +0.000 A 
ATOM     26  C   UNL     1      -4.589  11.639  18.568  0.00  0.00    +0.000 A 
ATOM     27  C   UNL     1      -3.264  11.561  18.136  0.00  0.00    +0.000 A 
ATOM     28  O   UNL     1      -5.537  11.085  17.747  0.00  0.00    +0.000 OA
ATOM     29  C   UNL     1      -6.857  11.504  18.114  0.00  0.00    +0.000 C 
ATOM     30  C   UNL     1      -7.051  11.427  19.620  0.00  0.00    +0.000 C 
ATOM     31  O   UNL     1      -6.167  12.330  20.291  0.00  0.00    +0.000 OA
ENDBRANCH  21  22
ENDBRANCH  18  21
ENDBRANCH   1  19
TORSDOF 6
ENDMDL
MODEL 8
REMARK VINA RESULT:      -8.2      0.637      1.103
REMARK  Name = 
REMARK  6 active torsions:
REMARK  status: ('A' for Active; 'I' for Inactive)
REMARK    1  A    between atoms: C_2  and  C_3
REMARK    2  A    between atoms: C_3  and  C_4
REMARK    3  A    between atoms: N_14  and  C_15
REMARK    4  A    between atoms: C_15  and  C_16
REMARK    5  A    between atoms: C_19  and  S_20
REMARK    6  A    between atoms: S_20  and  N_23
REMARK                            x       y       z     vdW  Elec       q    Type
REMARK                         _______ _______ _______ _____ _____    ______ ____
ROOT
ATOM      1  C   UNL     1       1.227   8.028  21.084  0.00  0.00    +0.000 C 
ENDROOT
BRANCH   1   2
ATOM      2  C   UNL     1       1.905   6.811  20.499  0.00  0.00    +0.000 A 
ATOM      3  C   UNL     1       1.635   5.536  21.020  0.00  0.00    +0.000 A 
ATOM      4  C   UNL     1       2.249   4.395  20.489  0.00  0.00    +0.000 A 
ATOM      5  C   UNL     1       3.134   4.525  19.416  0.00  0.00    +0.000 A 
ATOM      6  C   UNL     1       3.435   5.793  18.904  0.00  0.00    +0.000 A 
ATOM      7  C   UNL     1       2.819   6.928  19.442  0.00  0.00    +0.000 A 
BRANCH   5   8
ATOM      8  S   UNL     1       4.017   3.100  18.786  0.00  0.00    +0.000 S 
ATOM      9  O   UNL     1       4.767   2.542  19.889  0.00  0.00    +0.000 OA
ATOM     10  O   UNL     1       3.062   2.294  18.047  0.00  0.00    +0.000 OA
BRANCH   8  11
ATOM     11  N   UNL     1       5.141   3.749  17.659  0.00  0.00    +0.000 NA
ATOM     12  C   UNL     1       4.545   4.248  16.395  0.00  0.00    +0.000 C 
ATOM     13  C   UNL     1       5.606   4.676  15.389  0.00  0.00    +0.000 C 
ATOM     14  C   UNL     1       6.601   5.644  16.008  0.00  0.00    +0.000 C 
ATOM     15  C   UNL     1       7.264   4.985  17.206  0.00  0.00    +0.000 C 
ATOM     16  C   UNL     1       6.236   4.557  18.249  0.00  0.00    +0.000 C 
ENDBRANCH   8  11
ENDBRANCH   5   8
ENDBRANCH   1   2
BRANCH   1  19
ATOM     17  O   UNL     1       1.046  10.841  21.448  0.00  0.00    +0.000 OA
ATOM     18  C   UNL     1       0.833  10.358  20.339  0.00  0.00    +0.000 C 
ATOM     19  N   UNL     1       0.874   9.005  20.079  0.00  0.00    +0.000 N 
ATOM     20  H   UNL     1       0.760   8.687  19.127  0.00  0.00    +0.000 HD
BRANCH  18  21
ATOM     21  C   UNL     1       0.475  11.214  19.132  0.00  0.00    +0.000 C 
BRANCH  21  22
ATOM     22  C   UNL     1      -0.970  11.101  18.712  0.00  0.00    +0.000 A 
ATOM     23  C   UNL     1      -1.346  10.256  17.657  0.00  0.00    +0.000 A 
ATOM     24  C   UNL     1      -2.678  10.183  17.242  0.00  0.00    +0.000 A 
ATOM     25  C   UNL     1      -3.646  10.963  17.868  0.00  0.00    +0.000 A 
ATOM     26  C   UNL     1      -3.288  11.798  18.930  0.00  0.00    +0.000 A 
ATOM     27  C   UNL     1      -1.956  11.878  19.340  0.00  0.00    +0.000 A 
ATOM     28  O   UNL     1      -4.187  12.582  19.607  0.00  0.00    +0.000 OA
ATOM     29  C   UNL     1      -5.537  12.184  19.335  0.00  0.00    +0.000 C 
ATOM     30  C   UNL     1      -5.741  11.945  17.847  0.00  0.00    +0.000 C 
ATOM     31  O   UNL     1      -4.928  10.859  17.393  0.00  0.00    +0.000 OA
ENDBRANCH  21  22
ENDBRANCH  18  21
ENDBRANCH   1  19
TORSDOF 6
ENDMDL
MODEL 9
REMARK VINA RESULT:      -8.2      1.177      2.038
REMARK  Name = 
REMARK  6 active torsions:
REMARK  status: ('A' for Active; 'I' for Inactive)
REMARK    1  A    between atoms: C_2  and  C_3
REMARK    2  A    between atoms: C_3  and  C_4
REMARK    3  A    between atoms: N_14  and  C_15
REMARK    4  A    between atoms: C_15  and  C_16
REMARK    5  A    between atoms: C_19  and  S_20
REMARK    6  A    between atoms: S_20  and  N_23
REMARK                            x       y       z     vdW  Elec       q    Type
REMARK                         _______ _______ _______ _____ _____    ______ ____
ROOT
ATOM      1  C   UNL     1       0.937   8.911  20.801  0.00  0.00    +0.000 C 
ENDROOT
BRANCH   1   2
ATOM      2  C   UNL     1       1.635   7.725  20.180  0.00  0.00    +0.000 A 
ATOM      3  C   UNL     1       1.683   6.499  20.861  0.00  0.00    +0.000 A 
ATOM      4  C   UNL     1       2.322   5.387  20.300  0.00  0.00    +0.000 A 
ATOM      5  C   UNL     1       2.910   5.494  19.037  0.00  0.00    +0.000 A 
ATOM      6  C   UNL     1       2.895   6.717  18.357  0.00  0.00    +0.000 A 
ATOM      7  C   UNL     1       2.257   7.825  18.926  0.00  0.00    +0.000 A 
BRANCH   5   8
ATOM      8  S   UNL     1       3.827   4.122  18.340  0.00  0.00    +0.000 S 
ATOM      9  O   UNL     1       3.892   3.095  19.356  0.00  0.00    +0.000 OA
ATOM     10  O   UNL     1       3.260   3.845  17.032  0.00  0.00    +0.000 OA
BRANCH   8  11
ATOM     11  N   UNL     1       5.415   4.736  18.107  0.00  0.00    +0.000 NA
ATOM     12  C   UNL     1       5.640   5.415  16.807  0.00  0.00    +0.000 C 
ATOM     13  C   UNL     1       7.100   5.806  16.608  0.00  0.00    +0.000 C 
ATOM     14  C   UNL     1       7.631   6.590  17.797  0.00  0.00    +0.000 C 
ATOM     15  C   UNL     1       7.491   5.750  19.056  0.00  0.00    +0.000 C 
ATOM     16  C   UNL     1       6.039   5.352  19.303  0.00  0.00    +0.000 C 
ENDBRANCH   8  11
ENDBRANCH   5   8
ENDBRANCH   1   2
BRANCH   1  19
ATOM     17  O   UNL     1       0.987  11.746  20.591  0.00  0.00    +0.000 OA
ATOM     18  C   UNL     1       0.334  11.090  19.784  0.00  0.00    +0.000 C 
ATOM     19  N   UNL     1       0.232   9.716  19.827  0.00  0.00    +0.000 N 
ATOM     20  H   UNL     1      -0.263   9.239  19.087  0.00  0.00    +0.000 HD
BRANCH  18  21
ATOM     21  C   UNL     1      -0.459  11.737  18.658  0.00  0.00    +0.000 C 
BRANCH  21  22
ATOM     22  C   UNL     1      -1.909  11.983  18.996  0.00  0.00    +0.000 A 
ATOM     23  C   UNL     1      -2.264  12.732  20.128  0.00  0.00    +0.000 A 
ATOM     24  C   UNL     1      -3.606  12.924  20.463  0.00  0.00    +0.000 A 
ATOM     25  C   UNL     1      -4.608  12.360  19.678  0.00  0.00    +0.000 A 
ATOM     26  C   UNL     1      -4.269  11.624  18.539  0.00  0.00    +0.000 A 
ATOM     27  C   UNL     1      -2.928  11.424  18.208  0.00  0.00    +0.000 A 
ATOM     28  O   UNL     1      -5.199  11.053  17.708  0.00  0.00    +0.000 OA
ATOM     29  C   UNL     1      -6.508  11.586  17.944  0.00  0.00    +0.000 C 
ATOM     30  C   UNL     1      -6.801  11.663  19.434  0.00  0.00    +0.000 C 
ATOM     31  O   UNL     1      -5.902  12.570  20.080  0.00  0.00    +0.000 OA
ENDBRANCH  21  22
ENDBRANCH  18  21
ENDBRANCH   1  19
TORSDOF 6
ENDMDL
