MODEL 1
REMARK VINA RESULT:      -8.3      0.000      0.000
REMARK  Name = 
REMARK  4 active torsions:
REMARK  status: ('A' for Active; 'I' for Inactive)
REMARK    1  A    between atoms: C_1  and  N_2
REMARK    2  A    between atoms: C_5  and  C_6
REMARK    3  A    between atoms: N_8  and  C_9
REMARK    4  A    between atoms: C_13  and  C_14
REMARK                            x       y       z     vdW  Elec       q    Type
REMARK                         _______ _______ _______ _____ _____    ______ ____
ROOT
ATOM      1  C   UNL     1       1.800   6.913  19.962  0.00  0.00    +0.000 A 
ATOM      2  C   UNL     1       1.662   5.842  20.846  0.00  0.00    +0.000 A 
ATOM      3  C   UNL     1       2.523   4.756  20.775  0.00  0.00    +0.000 A 
ATOM      4  C   UNL     1       3.533   4.731  19.815  0.00  0.00    +0.000 A 
ATOM      5  C   UNL     1       3.684   5.769  18.874  0.00  0.00    +0.000 A 
ATOM      6  C   UNL     1       2.783   6.850  18.962  0.00  0.00    +0.000 A 
ENDROOT
BRANCH   5   7
ATOM      7  C   UNL     1       4.768   5.717  17.860  0.00  0.00    +0.000 A 
ATOM      8  C   UNL     1       6.083   6.158  18.152  0.00  0.00    +0.000 A 
ATOM      9  C   UNL     1       7.120   6.067  17.213  0.00  0.00    +0.000 A 
ATOM     10  C   UNL     1       6.839   5.500  15.990  0.00  0.00    +0.000 A 
ATOM     11  C   UNL     1       5.573   5.057  15.674  0.00  0.00    +0.000 A 
ATOM     12  C   UNL     1       4.529   5.184  16.576  0.00  0.00    +0.000 A 
ATOM     13  C   UNL     1       5.563   4.485  14.313  0.00  0.00    +0.000 C 
ATOM     14  C   UNL     1       7.057   4.548  13.990  0.00  0.00    +0.000 C 
ATOM     15  O   UNL     1       7.756   5.325  14.992  0.00  0.00    +0.000 OA
ENDBRANCH   5   7
BRANCH   1  18
ATOM     16  C   UNL     1       0.925   8.952  21.083  0.00  0.00    +0.000 C 
ATOM     17  O   UNL     1       1.704   8.955  22.033  0.00  0.00    +0.000 OA
ATOM     18  N   UNL     1       0.979   8.063  20.023  0.00  0.00    +0.000 N 
ATOM     19  H   UNL     1       0.509   8.326  19.166  0.00  0.00    +0.000 HD
BRANCH  16  24
ATOM     20  C   UNL     1       2.287  12.572  18.498  0.00  0.00    +0.000 C 
ATOM     21  N   UNL     1       1.249  11.928  19.284  0.00  0.00    +0.000 N 
ATOM     22  C   UNL     1       0.583  10.788  18.668  0.00  0.00    +0.000 C 
ATOM     23  C   UNL     1      -0.570  10.235  19.494  0.00  0.00    +0.000 C 
ATOM     24  C   UNL     1      -0.144  10.040  20.946  0.00  0.00    +0.000 C 
ATOM     25  C   UNL     1       0.292  11.386  21.510  0.00  0.00    +0.000 C 
ATOM     26  C   UNL     1       1.302  12.119  20.655  0.00  0.00    +0.000 C 
ATOM     27  O   UNL     1       2.062  12.933  21.181  0.00  0.00    +0.000 OA
ENDBRANCH  16  24
ENDBRANCH   1  18
TORSDOF 3
ENDMDL
MODEL 2
REMARK VINA RESULT:      -8.2      2.478      7.857
REMARK  Name = 
REMARK  4 active torsions:
REMARK  status: ('A' for Active; 'I' for Inactive)
REMARK    1  A    between atoms: C_1  and  N_2
REMARK    2  A    between atoms: C_5  and  C_6
REMARK    3  A    between atoms: N_8  and  C_9
REMARK    4  A    between atoms: C_13  and  C_14
REMARK                            x       y       z     vdW  Elec       q    Type
REMARK                         _______ _______ _______ _____ _____    ______ ____
ROOT
ATOM      1  C   UNL     1       3.041   4.889  19.031  0.00  0.00    +0.000 A 
ATOM      2  C   UNL     1       2.333   3.853  19.643  0.00  0.00    +0.000 A 
ATOM      3  C   UNL     1       1.283   4.131  20.506  0.00  0.00    +0.000 A 
ATOM      4  C   UNL     1       0.929   5.455  20.767  0.00  0.00    +0.000 A 
ATOM      5  C   UNL     1       1.641   6.533  20.206  0.00  0.00    +0.000 A 
ATOM      6  C   UNL     1       2.714   6.218  19.347  0.00  0.00    +0.000 A 
ENDROOT
BRANCH   5   7
ATOM      7  C   UNL     1       1.245   7.934  20.502  0.00  0.00    +0.000 A 
ATOM      8  C   UNL     1       1.424   8.975  19.557  0.00  0.00    +0.000 A 
ATOM      9  C   UNL     1       1.009  10.289  19.814  0.00  0.00    +0.000 A 
ATOM     10  C   UNL     1       0.382  10.548  21.012  0.00  0.00    +0.000 A 
ATOM     11  C   UNL     1       0.187   9.559  21.952  0.00  0.00    +0.000 A 
ATOM     12  C   UNL     1       0.635   8.267  21.729  0.00  0.00    +0.000 A 
ATOM     13  C   UNL     1      -0.518  10.110  23.126  0.00  0.00    +0.000 C 
ATOM     14  C   UNL     1      -0.813  11.523  22.617  0.00  0.00    +0.000 C 
ATOM     15  O   UNL     1      -0.096  11.772  21.384  0.00  0.00    +0.000 OA
ENDBRANCH   5   7
BRANCH   1  18
ATOM     16  C   UNL     1       5.331   4.140  18.424  0.00  0.00    +0.000 C 
ATOM     17  O   UNL     1       5.630   3.653  19.512  0.00  0.00    +0.000 OA
ATOM     18  N   UNL     1       4.087   4.658  18.109  0.00  0.00    +0.000 N 
ATOM     19  H   UNL     1       3.849   4.745  17.129  0.00  0.00    +0.000 HD
BRANCH  16  24
ATOM     20  C   UNL     1       7.213   8.293  17.497  0.00  0.00    +0.000 C 
ATOM     21  N   UNL     1       7.122   6.875  17.194  0.00  0.00    +0.000 N 
ATOM     22  C   UNL     1       7.759   5.968  18.138  0.00  0.00    +0.000 C 
ATOM     23  C   UNL     1       7.727   4.510  17.701  0.00  0.00    +0.000 C 
ATOM     24  C   UNL     1       6.323   4.114  17.257  0.00  0.00    +0.000 C 
ATOM     25  C   UNL     1       5.910   5.007  16.095  0.00  0.00    +0.000 C 
ATOM     26  C   UNL     1       6.089   6.487  16.356  0.00  0.00    +0.000 C 
ATOM     27  O   UNL     1       5.393   7.297  15.743  0.00  0.00    +0.000 OA
ENDBRANCH  16  24
ENDBRANCH   1  18
TORSDOF 3
ENDMDL
MODEL 3
REMARK VINA RESULT:      -8.0      3.157      8.801
REMARK  Name = 
REMARK  4 active torsions:
REMARK  status: ('A' for Active; 'I' for Inactive)
REMARK    1  A    between atoms: C_1  and  N_2
REMARK    2  A    between atoms: C_5  and  C_6
REMARK    3  A    between atoms: N_8  and  C_9
REMARK    4  A    between atoms: C_13  and  C_14
REMARK                            x       y       z     vdW  Elec       q    Type
REMARK                         _______ _______ _______ _____ _____    ______ ____
ROOT
ATOM      1  C   UNL     1       2.558   6.920  19.250  0.00  0.00    +0.000 A 
ATOM      2  C   UNL     1       2.813   7.514  18.013  0.00  0.00    +0.000 A 
ATOM      3  C   UNL     1       2.298   8.769  17.716  0.00  0.00    +0.000 A 
ATOM      4  C   UNL     1       1.520   9.442  18.656  0.00  0.00    +0.000 A 
ATOM      5  C   UNL     1       1.201   8.863  19.901  0.00  0.00    +0.000 A 
ATOM      6  C   UNL     1       1.724   7.581  20.166  0.00  0.00    +0.000 A 
ENDROOT
BRANCH   5   7
ATOM      7  C   UNL     1       0.368   9.602  20.885  0.00  0.00    +0.000 A 
ATOM      8  C   UNL     1       0.302   9.213  22.247  0.00  0.00    +0.000 A 
ATOM      9  C   UNL     1      -0.446   9.934  23.188  0.00  0.00    +0.000 A 
ATOM     10  C   UNL     1      -1.100  11.068  22.764  0.00  0.00    +0.000 A 
ATOM     11  C   UNL     1      -1.054  11.478  21.449  0.00  0.00    +0.000 A 
ATOM     12  C   UNL     1      -0.358  10.748  20.500  0.00  0.00    +0.000 A 
ATOM     13  C   UNL     1      -1.828  12.724  21.281  0.00  0.00    +0.000 C 
ATOM     14  C   UNL     1      -2.181  13.014  22.741  0.00  0.00    +0.000 C 
ATOM     15  O   UNL     1      -1.843  11.879  23.574  0.00  0.00    +0.000 OA
ENDBRANCH   5   7
BRANCH   1  18
ATOM     16  C   UNL     1       4.066   4.973  18.915  0.00  0.00    +0.000 C 
ATOM     17  O   UNL     1       4.707   5.433  17.973  0.00  0.00    +0.000 OA
ATOM     18  N   UNL     1       3.097   5.667  19.619  0.00  0.00    +0.000 N 
ATOM     19  H   UNL     1       2.856   5.328  20.542  0.00  0.00    +0.000 HD
BRANCH  16  24
ATOM     20  C   UNL     1       0.444   2.059  18.740  0.00  0.00    +0.000 C 
ATOM     21  N   UNL     1       1.837   2.290  19.080  0.00  0.00    +0.000 N 
ATOM     22  C   UNL     1       2.770   2.377  17.966  0.00  0.00    +0.000 C 
ATOM     23  C   UNL     1       4.226   2.502  18.396  0.00  0.00    +0.000 C 
ATOM     24  C   UNL     1       4.378   3.579  19.466  0.00  0.00    +0.000 C 
ATOM     25  C   UNL     1       3.519   3.199  20.665  0.00  0.00    +0.000 C 
ATOM     26  C   UNL     1       2.085   2.860  20.318  0.00  0.00    +0.000 C 
ATOM     27  O   UNL     1       1.208   2.999  21.172  0.00  0.00    +0.000 OA
ENDBRANCH  16  24
ENDBRANCH   1  18
TORSDOF 3
ENDMDL
MODEL 4
REMARK VINA RESULT:      -8.0      2.399      7.556
REMARK  Name = 
REMARK  4 active torsions:
REMARK  status: ('A' for Active; 'I' for Inactive)
REMARK    1  A    between atoms: C_1  and  N_2
REMARK    2  A    between atoms: C_5  and  C_6
REMARK    3  A    between atoms: N_8  and  C_9
REMARK    4  A    between atoms: C_13  and  C_14
REMARK                            x       y       z     vdW  Elec       q    Type
REMARK                         _______ _______ _______ _____ _____    ______ ____
ROOT
ATOM      1  C   UNL     1       3.022   4.916  18.996  0.00  0.00    +0.000 A 
ATOM      2  C   UNL     1       2.245   3.898  19.552  0.00  0.00    +0.000 A 
ATOM      3  C   UNL     1       1.187   4.202  20.397  0.00  0.00    +0.000 A 
ATOM      4  C   UNL     1       0.896   5.533  20.698  0.00  0.00    +0.000 A 
ATOM      5  C   UNL     1       1.679   6.591  20.194  0.00  0.00    +0.000 A 
ATOM      6  C   UNL     1       2.757   6.249  19.352  0.00  0.00    +0.000 A 
ENDROOT
BRANCH   5   7
ATOM      7  C   UNL     1       1.349   7.999  20.531  0.00  0.00    +0.000 A 
ATOM      8  C   UNL     1       1.064   8.401  21.861  0.00  0.00    +0.000 A 
ATOM      9  C   UNL     1       0.797   9.737  22.190  0.00  0.00    +0.000 A 
ATOM     10  C   UNL     1       0.851  10.675  21.184  0.00  0.00    +0.000 A 
ATOM     11  C   UNL     1       1.129  10.321  19.882  0.00  0.00    +0.000 A 
ATOM     12  C   UNL     1       1.347   8.998  19.535  0.00  0.00    +0.000 A 
ATOM     13  C   UNL     1       1.136  11.522  19.022  0.00  0.00    +0.000 C 
ATOM     14  C   UNL     1       0.967  12.608  20.087  0.00  0.00    +0.000 C 
ATOM     15  O   UNL     1       0.639  12.013  21.365  0.00  0.00    +0.000 OA
ENDBRANCH   5   7
BRANCH   1  18
ATOM     16  C   UNL     1       5.321   4.157  18.437  0.00  0.00    +0.000 C 
ATOM     17  O   UNL     1       5.609   3.702  19.542  0.00  0.00    +0.000 OA
ATOM     18  N   UNL     1       4.079   4.662  18.093  0.00  0.00    +0.000 N 
ATOM     19  H   UNL     1       3.853   4.721  17.108  0.00  0.00    +0.000 HD
BRANCH  16  24
ATOM     20  C   UNL     1       7.276   8.269  17.478  0.00  0.00    +0.000 C 
ATOM     21  N   UNL     1       7.167   6.849  17.193  0.00  0.00    +0.000 N 
ATOM     22  C   UNL     1       7.780   5.945  18.157  0.00  0.00    +0.000 C 
ATOM     23  C   UNL     1       7.732   4.482  17.739  0.00  0.00    +0.000 C 
ATOM     24  C   UNL     1       6.327   4.100  17.283  0.00  0.00    +0.000 C 
ATOM     25  C   UNL     1       5.941   4.984  16.104  0.00  0.00    +0.000 C 
ATOM     26  C   UNL     1       6.139   6.464  16.348  0.00  0.00    +0.000 C 
ATOM     27  O   UNL     1       5.462   7.276  15.715  0.00  0.00    +0.000 OA
ENDBRANCH  16  24
ENDBRANCH   1  18
TORSDOF 3
ENDMDL
MODEL 5
REMARK VINA RESULT:      -7.9      1.209      1.485
REMARK  Name = 
REMARK  4 active torsions:
REMARK  status: ('A' for Active; 'I' for Inactive)
REMARK    1  A    between atoms: C_1  and  N_2
REMARK    2  A    between atoms: C_5  and  C_6
REMARK    3  A    between atoms: N_8  and  C_9
REMARK    4  A    between atoms: C_13  and  C_14
REMARK                            x       y       z     vdW  Elec       q    Type
REMARK                         _______ _______ _______ _____ _____    ______ ____
ROOT
ATOM      1  C   UNL     1       1.983   6.501  20.291  0.00  0.00    +0.000 A 
ATOM      2  C   UNL     1       1.489   5.253  20.672  0.00  0.00    +0.000 A 
ATOM      3  C   UNL     1       2.013   4.091  20.123  0.00  0.00    +0.000 A 
ATOM      4  C   UNL     1       3.039   4.167  19.182  0.00  0.00    +0.000 A 
ATOM      5  C   UNL     1       3.540   5.406  18.736  0.00  0.00    +0.000 A 
ATOM      6  C   UNL     1       2.976   6.569  19.300  0.00  0.00    +0.000 A 
ENDROOT
BRANCH   5   7
ATOM      7  C   UNL     1       4.633   5.460  17.731  0.00  0.00    +0.000 A 
ATOM      8  C   UNL     1       5.888   6.050  18.026  0.00  0.00    +0.000 A 
ATOM      9  C   UNL     1       6.938   6.061  17.097  0.00  0.00    +0.000 A 
ATOM     10  C   UNL     1       6.734   5.447  15.882  0.00  0.00    +0.000 A 
ATOM     11  C   UNL     1       5.529   4.859  15.563  0.00  0.00    +0.000 A 
ATOM     12  C   UNL     1       4.469   4.883  16.455  0.00  0.00    +0.000 A 
ATOM     13  C   UNL     1       5.596   4.269  14.212  0.00  0.00    +0.000 C 
ATOM     14  C   UNL     1       7.077   4.493  13.900  0.00  0.00    +0.000 C 
ATOM     15  O   UNL     1       7.674   5.360  14.894  0.00  0.00    +0.000 OA
ENDBRANCH   5   7
BRANCH   1  18
ATOM     16  C   UNL     1       1.369   8.906  20.174  0.00  0.00    +0.000 C 
ATOM     17  O   UNL     1       1.457   9.031  18.955  0.00  0.00    +0.000 OA
ATOM     18  N   UNL     1       1.517   7.711  20.855  0.00  0.00    +0.000 N 
ATOM     19  H   UNL     1       1.131   7.652  21.789  0.00  0.00    +0.000 HD
BRANCH  16  24
ATOM     20  C   UNL     1      -1.481  11.909  18.050  0.00  0.00    +0.000 C 
ATOM     21  N   UNL     1      -0.746  11.525  19.243  0.00  0.00    +0.000 N 
ATOM     22  C   UNL     1      -1.285  10.407  20.004  0.00  0.00    +0.000 C 
ATOM     23  C   UNL     1      -0.536  10.133  21.301  0.00  0.00    +0.000 C 
ATOM     24  C   UNL     1       0.969  10.095  21.054  0.00  0.00    +0.000 C 
ATOM     25  C   UNL     1       1.403  11.439  20.483  0.00  0.00    +0.000 C 
ATOM     26  C   UNL     1       0.586  11.902  19.297  0.00  0.00    +0.000 C 
ATOM     27  O   UNL     1       1.089  12.677  18.483  0.00  0.00    +0.000 OA
ENDBRANCH  16  24
ENDBRANCH   1  18
TORSDOF 3
ENDMDL
MODEL 6
REMARK VINA RESULT:      -7.8      3.163      8.075
REMARK  Name = 
REMARK  4 active torsions:
REMARK  status: ('A' for Active; 'I' for Inactive)
REMARK    1  A    between atoms: C_1  and  N_2
REMARK    2  A    between atoms: C_5  and  C_6
REMARK    3  A    between atoms: N_8  and  C_9
REMARK    4  A    between atoms: C_13  and  C_14
REMARK                            x       y       z     vdW  Elec       q    Type
REMARK                         _______ _______ _______ _____ _____    ______ ____
ROOT
ATOM      1  C   UNL     1       1.493   8.398  20.669  0.00  0.00    +0.000 A 
ATOM      2  C   UNL     1       1.453   8.891  21.974  0.00  0.00    +0.000 A 
ATOM      3  C   UNL     1       0.490   9.818  22.347  0.00  0.00    +0.000 A 
ATOM      4  C   UNL     1      -0.445  10.264  21.414  0.00  0.00    +0.000 A 
ATOM      5  C   UNL     1      -0.417   9.827  20.075  0.00  0.00    +0.000 A 
ATOM      6  C   UNL     1       0.583   8.898  19.722  0.00  0.00    +0.000 A 
ENDROOT
BRANCH   5   7
ATOM      7  C   UNL     1      -1.424  10.319  19.100  0.00  0.00    +0.000 A 
ATOM      8  C   UNL     1      -2.227  11.457  19.368  0.00  0.00    +0.000 A 
ATOM      9  C   UNL     1      -3.146  11.952  18.432  0.00  0.00    +0.000 A 
ATOM     10  C   UNL     1      -3.231  11.322  17.211  0.00  0.00    +0.000 A 
ATOM     11  C   UNL     1      -2.463  10.216  16.915  0.00  0.00    +0.000 A 
ATOM     12  C   UNL     1      -1.586   9.689  17.849  0.00  0.00    +0.000 A 
ATOM     13  C   UNL     1      -2.747   9.757  15.541  0.00  0.00    +0.000 C 
ATOM     14  C   UNL     1      -3.682  10.876  15.078  0.00  0.00    +0.000 C 
ATOM     15  O   UNL     1      -4.062  11.710  16.198  0.00  0.00    +0.000 OA
ENDBRANCH   5   7
BRANCH   1  18
ATOM     16  C   UNL     1       2.665   7.054  18.939  0.00  0.00    +0.000 C 
ATOM     17  O   UNL     1       2.233   7.652  17.956  0.00  0.00    +0.000 OA
ATOM     18  N   UNL     1       2.422   7.419  20.251  0.00  0.00    +0.000 N 
ATOM     19  H   UNL     1       3.054   7.067  20.960  0.00  0.00    +0.000 HD
BRANCH  16  24
ATOM     20  C   UNL     1       0.614   2.905  19.404  0.00  0.00    +0.000 C 
ATOM     21  N   UNL     1       1.819   3.672  19.143  0.00  0.00    +0.000 N 
ATOM     22  C   UNL     1       1.913   4.308  17.837  0.00  0.00    +0.000 C 
ATOM     23  C   UNL     1       3.248   4.996  17.586  0.00  0.00    +0.000 C 
ATOM     24  C   UNL     1       3.629   5.875  18.773  0.00  0.00    +0.000 C 
ATOM     25  C   UNL     1       3.728   4.999  20.015  0.00  0.00    +0.000 C 
ATOM     26  C   UNL     1       2.520   4.120  20.252  0.00  0.00    +0.000 C 
ATOM     27  O   UNL     1       2.260   3.744  21.395  0.00  0.00    +0.000 OA
ENDBRANCH  16  24
ENDBRANCH   1  18
TORSDOF 3
ENDMDL
MODEL 7
REMARK VINA RESULT:      -7.8      2.974      4.265
REMARK  Name = 
REMARK  4 active torsions:
REMARK  status: ('A' for Active; 'I' for Inactive)
REMARK    1  A    between atoms: C_1  and  N_2
REMARK    2  A    between atoms: C_5  and  C_6
REMARK    3  A    between atoms: N_8  and  C_9
REMARK    4  A    between atoms: C_13  and  C_14
REMARK                            x       y       z     vdW  Elec       q    Type
REMARK                         _______ _______ _______ _____ _____    ______ ____
ROOT
ATOM      1  C   UNL     1       0.931   9.934  19.822  0.00  0.00    +0.000 A 
ATOM      2  C   UNL     1       1.411  10.546  18.663  0.00  0.00    +0.000 A 
ATOM      3  C   UNL     1       2.151   9.822  17.740  0.00  0.00    +0.000 A 
ATOM      4  C   UNL     1       2.420   8.473  17.968  0.00  0.00    +0.000 A 
ATOM      5  C   UNL     1       1.993   7.823  19.143  0.00  0.00    +0.000 A 
ATOM      6  C   UNL     1       1.258   8.591  20.070  0.00  0.00    +0.000 A 
ENDROOT
BRANCH   5   7
ATOM      7  C   UNL     1       2.295   6.386  19.363  0.00  0.00    +0.000 A 
ATOM      8  C   UNL     1       1.971   5.733  20.579  0.00  0.00    +0.000 A 
ATOM      9  C   UNL     1       2.212   4.366  20.773  0.00  0.00    +0.000 A 
ATOM     10  C   UNL     1       2.748   3.648  19.729  0.00  0.00    +0.000 A 
ATOM     11  C   UNL     1       3.071   4.249  18.531  0.00  0.00    +0.000 A 
ATOM     12  C   UNL     1       2.882   5.608  18.343  0.00  0.00    +0.000 A 
ATOM     13  C   UNL     1       3.611   3.246  17.592  0.00  0.00    +0.000 C 
ATOM     14  C   UNL     1       3.392   1.972  18.413  0.00  0.00    +0.000 C 
ATOM     15  O   UNL     1       3.011   2.308  19.768  0.00  0.00    +0.000 OA
ENDBRANCH   5   7
BRANCH   1  18
ATOM     16  C   UNL     1      -1.069  11.244  20.500  0.00  0.00    +0.000 C 
ATOM     17  O   UNL     1      -1.685  11.148  19.442  0.00  0.00    +0.000 OA
ATOM     18  N   UNL     1       0.134  10.615  20.770  0.00  0.00    +0.000 N 
ATOM     19  H   UNL     1       0.397  10.504  21.742  0.00  0.00    +0.000 HD
BRANCH  16  24
ATOM     20  C   UNL     1      -0.109  15.796  20.408  0.00  0.00    +0.000 C 
ATOM     21  N   UNL     1      -0.764  14.678  21.064  0.00  0.00    +0.000 N 
ATOM     22  C   UNL     1      -1.965  14.162  20.422  0.00  0.00    +0.000 C 
ATOM     23  C   UNL     1      -2.665  13.071  21.222  0.00  0.00    +0.000 C 
ATOM     24  C   UNL     1      -1.662  12.017  21.682  0.00  0.00    +0.000 C 
ATOM     25  C   UNL     1      -0.609  12.693  22.550  0.00  0.00    +0.000 C 
ATOM     26  C   UNL     1       0.018  13.919  21.922  0.00  0.00    +0.000 C 
ATOM     27  O   UNL     1       1.148  14.264  22.267  0.00  0.00    +0.000 OA
ENDBRANCH  16  24
ENDBRANCH   1  18
TORSDOF 3
ENDMDL
MODEL 8
REMARK VINA RESULT:      -7.7      4.571      6.866
REMARK  Name = 
REMARK  4 active torsions:
REMARK  status: ('A' for Active; 'I' for Inactive)
REMARK    1  A    between atoms: C_1  and  N_2
REMARK    2  A    between atoms: C_5  and  C_6
REMARK    3  A    between atoms: N_8  and  C_9
REMARK    4  A    between atoms: C_13  and  C_14
REMARK                            x       y       z     vdW  Elec       q    Type
REMARK                         _______ _______ _______ _____ _____    ______ ____
ROOT
ATOM      1  C   UNL     1      -1.640  11.699  18.046  0.00  0.00    +0.000 A 
ATOM      2  C   UNL     1      -0.998  12.935  18.132  0.00  0.00    +0.000 A 
ATOM      3  C   UNL     1       0.343  13.008  18.483  0.00  0.00    +0.000 A 
ATOM      4  C   UNL     1       1.057  11.841  18.753  0.00  0.00    +0.000 A 
ATOM      5  C   UNL     1       0.439  10.575  18.720  0.00  0.00    +0.000 A 
ATOM      6  C   UNL     1      -0.928  10.535  18.378  0.00  0.00    +0.000 A 
ENDROOT
BRANCH   5   7
ATOM      7  C   UNL     1       1.222   9.347  19.014  0.00  0.00    +0.000 A 
ATOM      8  C   UNL     1       1.079   8.647  20.239  0.00  0.00    +0.000 A 
ATOM      9  C   UNL     1       1.781   7.462  20.501  0.00  0.00    +0.000 A 
ATOM     10  C   UNL     1       2.602   6.964  19.516  0.00  0.00    +0.000 A 
ATOM     11  C   UNL     1       2.762   7.616  18.312  0.00  0.00    +0.000 A 
ATOM     12  C   UNL     1       2.110   8.812  18.059  0.00  0.00    +0.000 A 
ATOM     13  C   UNL     1       3.682   6.855  17.444  0.00  0.00    +0.000 C 
ATOM     14  C   UNL     1       3.884   5.606  18.304  0.00  0.00    +0.000 C 
ATOM     15  O   UNL     1       3.325   5.809  19.624  0.00  0.00    +0.000 OA
ENDBRANCH   5   7
BRANCH   1  18
ATOM     16  C   UNL     1      -4.086  11.688  18.484  0.00  0.00    +0.000 C 
ATOM     17  O   UNL     1      -4.040  12.095  19.642  0.00  0.00    +0.000 OA
ATOM     18  N   UNL     1      -2.990  11.567  17.648  0.00  0.00    +0.000 N 
ATOM     19  H   UNL     1      -3.163  11.525  16.651  0.00  0.00    +0.000 HD
BRANCH  16  24
ATOM     20  C   UNL     1      -7.742  13.415  20.784  0.00  0.00    +0.000 C 
ATOM     21  N   UNL     1      -7.229  12.675  19.645  0.00  0.00    +0.000 N 
ATOM     22  C   UNL     1      -6.571  13.457  18.607  0.00  0.00    +0.000 C 
ATOM     23  C   UNL     1      -6.162  12.637  17.391  0.00  0.00    +0.000 C 
ATOM     24  C   UNL     1      -5.430  11.370  17.821  0.00  0.00    +0.000 C 
ATOM     25  C   UNL     1      -6.358  10.548  18.706  0.00  0.00    +0.000 C 
ATOM     26  C   UNL     1      -6.980  11.327  19.844  0.00  0.00    +0.000 C 
ATOM     27  O   UNL     1      -7.342  10.729  20.859  0.00  0.00    +0.000 OA
ENDBRANCH  16  24
ENDBRANCH   1  18
TORSDOF 3
ENDMDL
MODEL 9
REMARK VINA RESULT:      -7.7      3.079      8.480
REMARK  Name = 
REMARK  4 active torsions:
REMARK  status: ('A' for Active; 'I' for Inactive)
REMARK    1  A    between atoms: C_1  and  N_2
REMARK    2  A    between atoms: C_5  and  C_6
REMARK    3  A    between atoms: N_8  and  C_9
REMARK    4  A    between atoms: C_13  and  C_14
REMARK                            x       y       z     vdW  Elec       q    Type
REMARK                         _______ _______ _______ _____ _____    ______ ____
ROOT
ATOM      1  C   UNL     1       3.141   6.125  18.903  0.00  0.00    +0.000 A 
ATOM      2  C   UNL     1       3.759   6.542  17.723  0.00  0.00    +0.000 A 
ATOM      3  C   UNL     1       3.543   7.821  17.229  0.00  0.00    +0.000 A 
ATOM      4  C   UNL     1       2.701   8.698  17.912  0.00  0.00    +0.000 A 
ATOM      5  C   UNL     1       2.022   8.307  19.084  0.00  0.00    +0.000 A 
ATOM      6  C   UNL     1       2.250   6.996  19.551  0.00  0.00    +0.000 A 
ENDROOT
BRANCH   5   7
ATOM      7  C   UNL     1       1.130   9.260  19.792  0.00  0.00    +0.000 A 
ATOM      8  C   UNL     1       0.448  10.294  19.103  0.00  0.00    +0.000 A 
ATOM      9  C   UNL     1      -0.431  11.167  19.759  0.00  0.00    +0.000 A 
ATOM     10  C   UNL     1      -0.649  10.976  21.105  0.00  0.00    +0.000 A 
ATOM     11  C   UNL     1      -0.007   9.978  21.805  0.00  0.00    +0.000 A 
ATOM     12  C   UNL     1       0.900   9.140  21.178  0.00  0.00    +0.000 A 
ATOM     13  C   UNL     1      -0.436   9.995  23.217  0.00  0.00    +0.000 C 
ATOM     14  C   UNL     1      -1.530  11.063  23.147  0.00  0.00    +0.000 C 
ATOM     15  O   UNL     1      -1.496  11.733  21.864  0.00  0.00    +0.000 OA
ENDBRANCH   5   7
BRANCH   1  18
ATOM     16  C   UNL     1       4.514   4.096  19.317  0.00  0.00    +0.000 C 
ATOM     17  O   UNL     1       5.556   4.506  18.809  0.00  0.00    +0.000 OA
ATOM     18  N   UNL     1       3.365   4.851  19.473  0.00  0.00    +0.000 N 
ATOM     19  H   UNL     1       2.690   4.541  20.159  0.00  0.00    +0.000 HD
BRANCH  16  24
ATOM     20  C   UNL     1       0.376   2.039  18.782  0.00  0.00    +0.000 C 
ATOM     21  N   UNL     1       1.739   1.976  19.280  0.00  0.00    +0.000 N 
ATOM     22  C   UNL     1       2.786   1.802  18.283  0.00  0.00    +0.000 C 
ATOM     23  C   UNL     1       4.176   1.627  18.880  0.00  0.00    +0.000 C 
ATOM     24  C   UNL     1       4.445   2.696  19.935  0.00  0.00    +0.000 C 
ATOM     25  C   UNL     1       3.395   2.573  21.031  0.00  0.00    +0.000 C 
ATOM     26  C   UNL     1       1.970   2.539  20.525  0.00  0.00    +0.000 C 
ATOM     27  O   UNL     1       1.057   2.908  21.264  0.00  0.00    +0.000 OA
ENDBRANCH  16  24
ENDBRANCH   1  18
TORSDOF 3
ENDMDL
