MODEL 1
REMARK VINA RESULT:      -7.7      0.000      0.000
REMARK  Name = 
REMARK  7 active torsions:
REMARK  status: ('A' for Active; 'I' for Inactive)
REMARK    1  A    between atoms: C_1  and  C_2
REMARK    2  A    between atoms: C_2  and  C_3
REMARK    3  A    between atoms: C_3  and  C_4
REMARK    4  A    between atoms: N_8  and  C_9
REMARK    5  A    between atoms: C_9  and  C_10
REMARK    6  A    between atoms: C_14  and  N_15
REMARK    7  A    between atoms: C_22  and  C_23
REMARK                            x       y       z     vdW  Elec       q    Type
REMARK                         _______ _______ _______ _____ _____    ______ ____
ROOT
ATOM      1  C   UNL     1      -4.995  11.568  17.884  0.00  0.00    +0.000 A 
ATOM      2  C   UNL     1      -4.558  11.434  16.559  0.00  0.00    +0.000 A 
ATOM      3  C   UNL     1      -3.286  10.942  16.305  0.00  0.00    +0.000 A 
ATOM      4  C   UNL     1      -2.407  10.736  17.361  0.00  0.00    +0.000 A 
ATOM      5  C   UNL     1      -2.706  11.326  18.594  0.00  0.00    +0.000 A 
ATOM      6  C   UNL     1      -4.049  11.543  18.916  0.00  0.00    +0.000 A 
ENDROOT
BRANCH   5   7
ATOM      7  N   UNL     1      -1.723  12.250  19.163  0.00  0.00    +0.000 N 
ATOM      8  C   UNL     1      -0.362  11.908  18.672  0.00  0.00    +0.000 C 
ATOM      9  C   UNL     1       0.142  10.973  19.730  0.00  0.00    +0.000 A 
ATOM     10  C   UNL     1      -0.538  11.283  20.910  0.00  0.00    +0.000 A 
ATOM     11  C   UNL     1      -0.475  10.483  22.048  0.00  0.00    +0.000 A 
ATOM     12  C   UNL     1       0.289   9.323  21.965  0.00  0.00    +0.000 A 
ATOM     13  C   UNL     1       0.978   8.994  20.779  0.00  0.00    +0.000 A 
ATOM     14  C   UNL     1       0.927   9.823  19.639  0.00  0.00    +0.000 A 
ATOM     15  C   UNL     1      -1.620  12.236  20.580  0.00  0.00    +0.000 C 
ATOM     16  O   UNL     1      -2.385  12.711  21.400  0.00  0.00    +0.000 OA
BRANCH  14  17
ATOM     17  C   UNL     1       1.612   9.381  18.369  0.00  0.00    +0.000 C 
ATOM     18  F   UNL     1       2.428   8.305  18.531  0.00  0.00    +0.000 F 
ATOM     19  F   UNL     1       0.729   9.027  17.395  0.00  0.00    +0.000 F 
ATOM     20  F   UNL     1       2.396  10.355  17.826  0.00  0.00    +0.000 F 
ENDBRANCH  14  17
ENDBRANCH   5   7
BRANCH   1  21
ATOM     21  C   UNL     1      -6.468  11.672  18.170  0.00  0.00    +0.000 C 
BRANCH  21  26
ATOM     22  C   UNL     1      -7.339  11.284  20.506  0.00  0.00    +0.000 A 
ATOM     23  N   UNL     1      -7.694  10.252  21.240  0.00  0.00    +0.000 NA
ATOM     24  N   UNL     1      -7.434   9.114  20.521  0.00  0.00    +0.000 NA
ATOM     25  C   UNL     1      -6.949   9.471  19.369  0.00  0.00    +0.000 A 
ATOM     26  N   UNL     1      -6.893  10.836  19.283  0.00  0.00    +0.000 N 
BRANCH  22  27
ATOM     27  C   UNL     1      -7.389  12.708  20.931  0.00  0.00    +0.000 C 
BRANCH  27  29
ATOM     28  C   UNL     1      -5.494  14.349  20.829  0.00  0.00    +0.000 C 
ATOM     29  C   UNL     1      -6.078  13.156  21.570  0.00  0.00    +0.000 C 
ENDBRANCH  27  29
ENDBRANCH  22  27
ENDBRANCH  21  26
ENDBRANCH   1  21
TORSDOF 6
ENDMDL
MODEL 2
REMARK VINA RESULT:      -7.6      4.337      7.846
REMARK  Name = 
REMARK  7 active torsions:
REMARK  status: ('A' for Active; 'I' for Inactive)
REMARK    1  A    between atoms: C_1  and  C_2
REMARK    2  A    between atoms: C_2  and  C_3
REMARK    3  A    between atoms: C_3  and  C_4
REMARK    4  A    between atoms: N_8  and  C_9
REMARK    5  A    between atoms: C_9  and  C_10
REMARK    6  A    between atoms: C_14  and  N_15
REMARK    7  A    between atoms: C_22  and  C_23
REMARK                            x       y       z     vdW  Elec       q    Type
REMARK                         _______ _______ _______ _____ _____    ______ ____
ROOT
ATOM      1  C   UNL     1       2.404   7.080  19.290  0.00  0.00    +0.000 A 
ATOM      2  C   UNL     1       2.140   7.591  18.012  0.00  0.00    +0.000 A 
ATOM      3  C   UNL     1       1.773   8.922  17.871  0.00  0.00    +0.000 A 
ATOM      4  C   UNL     1       1.520   9.688  19.002  0.00  0.00    +0.000 A 
ATOM      5  C   UNL     1       1.328   9.025  20.219  0.00  0.00    +0.000 A 
ATOM      6  C   UNL     1       1.965   7.795  20.411  0.00  0.00    +0.000 A 
ENDROOT
BRANCH   5   7
ATOM      7  N   UNL     1       0.060   9.239  20.918  0.00  0.00    +0.000 N 
ATOM      8  C   UNL     1      -1.073   9.112  19.964  0.00  0.00    +0.000 C 
ATOM      9  C   UNL     1      -1.272  10.525  19.503  0.00  0.00    +0.000 A 
ATOM     10  C   UNL     1      -0.799  11.359  20.520  0.00  0.00    +0.000 A 
ATOM     11  C   UNL     1      -0.636  12.732  20.353  0.00  0.00    +0.000 A 
ATOM     12  C   UNL     1      -0.946  13.259  19.102  0.00  0.00    +0.000 A 
ATOM     13  C   UNL     1      -1.420  12.428  18.065  0.00  0.00    +0.000 A 
ATOM     14  C   UNL     1      -1.605  11.043  18.251  0.00  0.00    +0.000 A 
ATOM     15  C   UNL     1      -0.100  10.518  21.515  0.00  0.00    +0.000 C 
ATOM     16  O   UNL     1       0.413  10.948  22.532  0.00  0.00    +0.000 OA
BRANCH  14  17
ATOM     17  C   UNL     1      -2.033  10.188  17.083  0.00  0.00    +0.000 C 
ATOM     18  F   UNL     1      -2.267  10.893  15.943  0.00  0.00    +0.000 F 
ATOM     19  F   UNL     1      -1.100   9.254  16.750  0.00  0.00    +0.000 F 
ATOM     20  F   UNL     1      -3.181   9.496  17.328  0.00  0.00    +0.000 F 
ENDBRANCH  14  17
ENDBRANCH   5   7
BRANCH   1  21
ATOM     21  C   UNL     1       3.204   5.814  19.429  0.00  0.00    +0.000 C 
BRANCH  21  26
ATOM     22  C   UNL     1       1.593   3.910  19.047  0.00  0.00    +0.000 A 
ATOM     23  N   UNL     1       1.332   3.050  18.088  0.00  0.00    +0.000 NA
ATOM     24  N   UNL     1       2.254   3.239  17.090  0.00  0.00    +0.000 NA
ATOM     25  C   UNL     1       3.037   4.213  17.449  0.00  0.00    +0.000 A 
ATOM     26  N   UNL     1       2.652   4.703  18.667  0.00  0.00    +0.000 N 
BRANCH  22  27
ATOM     27  C   UNL     1       0.876   4.002  20.347  0.00  0.00    +0.000 C 
BRANCH  27  29
ATOM     28  C   UNL     1       2.696   2.672  21.449  0.00  0.00    +0.000 C 
ATOM     29  C   UNL     1       1.194   2.819  21.256  0.00  0.00    +0.000 C 
ENDBRANCH  27  29
ENDBRANCH  22  27
ENDBRANCH  21  26
ENDBRANCH   1  21
TORSDOF 6
ENDMDL
MODEL 3
REMARK VINA RESULT:      -7.6      4.401      7.804
REMARK  Name = 
REMARK  7 active torsions:
REMARK  status: ('A' for Active; 'I' for Inactive)
REMARK    1  A    between atoms: C_1  and  C_2
REMARK    2  A    between atoms: C_2  and  C_3
REMARK    3  A    between atoms: C_3  and  C_4
REMARK    4  A    between atoms: N_8  and  C_9
REMARK    5  A    between atoms: C_9  and  C_10
REMARK    6  A    between atoms: C_14  and  N_15
REMARK    7  A    between atoms: C_22  and  C_23
REMARK                            x       y       z     vdW  Elec       q    Type
REMARK                         _______ _______ _______ _____ _____    ______ ____
ROOT
ATOM      1  C   UNL     1       2.456   7.267  19.171  0.00  0.00    +0.000 A 
ATOM      2  C   UNL     1       2.609   7.921  17.941  0.00  0.00    +0.000 A 
ATOM      3  C   UNL     1       2.277   9.264  17.834  0.00  0.00    +0.000 A 
ATOM      4  C   UNL     1       1.653   9.903  18.899  0.00  0.00    +0.000 A 
ATOM      5  C   UNL     1       1.092   9.112  19.907  0.00  0.00    +0.000 A 
ATOM      6  C   UNL     1       1.660   7.860  20.160  0.00  0.00    +0.000 A 
ENDROOT
BRANCH   5   7
ATOM      7  N   UNL     1      -0.339   9.265  20.175  0.00  0.00    +0.000 N 
ATOM      8  C   UNL     1      -0.911  10.317  19.292  0.00  0.00    +0.000 C 
ATOM      9  C   UNL     1      -0.784  11.552  20.134  0.00  0.00    +0.000 A 
ATOM     10  C   UNL     1      -0.781  11.141  21.468  0.00  0.00    +0.000 A 
ATOM     11  C   UNL     1      -0.472  12.000  22.520  0.00  0.00    +0.000 A 
ATOM     12  C   UNL     1      -0.136  13.310  22.190  0.00  0.00    +0.000 A 
ATOM     13  C   UNL     1      -0.131  13.738  20.845  0.00  0.00    +0.000 A 
ATOM     14  C   UNL     1      -0.469  12.867  19.790  0.00  0.00    +0.000 A 
ATOM     15  C   UNL     1      -0.674   9.666  21.495  0.00  0.00    +0.000 C 
ATOM     16  O   UNL     1      -0.662   9.001  22.515  0.00  0.00    +0.000 OA
BRANCH  14  17
ATOM     17  C   UNL     1      -0.364  13.352  18.364  0.00  0.00    +0.000 C 
ATOM     18  F   UNL     1      -1.250  12.763  17.517  0.00  0.00    +0.000 F 
ATOM     19  F   UNL     1      -0.582  14.691  18.250  0.00  0.00    +0.000 F 
ATOM     20  F   UNL     1       0.865  13.128  17.820  0.00  0.00    +0.000 F 
ENDBRANCH  14  17
ENDBRANCH   5   7
BRANCH   1  21
ATOM     21  C   UNL     1       3.196   5.983  19.424  0.00  0.00    +0.000 C 
BRANCH  21  26
ATOM     22  C   UNL     1       1.633   4.040  19.041  0.00  0.00    +0.000 A 
ATOM     23  N   UNL     1       1.390   3.176  18.079  0.00  0.00    +0.000 NA
ATOM     24  N   UNL     1       2.302   3.393  17.078  0.00  0.00    +0.000 NA
ATOM     25  C   UNL     1       3.061   4.385  17.438  0.00  0.00    +0.000 A 
ATOM     26  N   UNL     1       2.669   4.861  18.659  0.00  0.00    +0.000 N 
BRANCH  22  27
ATOM     27  C   UNL     1       0.920   4.108  20.345  0.00  0.00    +0.000 C 
BRANCH  27  29
ATOM     28  C   UNL     1       2.645   2.747  21.554  0.00  0.00    +0.000 C 
ATOM     29  C   UNL     1       1.172   2.867  21.196  0.00  0.00    +0.000 C 
ENDBRANCH  27  29
ENDBRANCH  22  27
ENDBRANCH  21  26
ENDBRANCH   1  21
TORSDOF 6
ENDMDL
MODEL 4
REMARK VINA RESULT:      -7.5      1.931      2.501
REMARK  Name = 
REMARK  7 active torsions:
REMARK  status: ('A' for Active; 'I' for Inactive)
REMARK    1  A    between atoms: C_1  and  C_2
REMARK    2  A    between atoms: C_2  and  C_3
REMARK    3  A    between atoms: C_3  and  C_4
REMARK    4  A    between atoms: N_8  and  C_9
REMARK    5  A    between atoms: C_9  and  C_10
REMARK    6  A    between atoms: C_14  and  N_15
REMARK    7  A    between atoms: C_22  and  C_23
REMARK                            x       y       z     vdW  Elec       q    Type
REMARK                         _______ _______ _______ _____ _____    ______ ____
ROOT
ATOM      1  C   UNL     1      -4.063  11.558  17.892  0.00  0.00    +0.000 A 
ATOM      2  C   UNL     1      -4.031  11.120  16.561  0.00  0.00    +0.000 A 
ATOM      3  C   UNL     1      -3.087  10.179  16.174  0.00  0.00    +0.000 A 
ATOM      4  C   UNL     1      -2.090   9.801  17.064  0.00  0.00    +0.000 A 
ATOM      5  C   UNL     1      -1.872  10.602  18.191  0.00  0.00    +0.000 A 
ATOM      6  C   UNL     1      -2.952  11.320  18.712  0.00  0.00    +0.000 A 
ENDROOT
BRANCH   5   7
ATOM      7  N   UNL     1      -0.537  11.174  18.370  0.00  0.00    +0.000 N 
ATOM      8  C   UNL     1       0.231  10.371  19.358  0.00  0.00    +0.000 C 
ATOM      9  C   UNL     1      -0.068  11.071  20.651  0.00  0.00    +0.000 A 
ATOM     10  C   UNL     1      -0.377  12.396  20.337  0.00  0.00    +0.000 A 
ATOM     11  C   UNL     1      -0.906  13.286  21.269  0.00  0.00    +0.000 A 
ATOM     12  C   UNL     1      -1.143  12.795  22.550  0.00  0.00    +0.000 A 
ATOM     13  C   UNL     1      -0.840  11.458  22.879  0.00  0.00    +0.000 A 
ATOM     14  C   UNL     1      -0.282  10.571  21.936  0.00  0.00    +0.000 A 
ATOM     15  C   UNL     1      -0.504  12.504  18.868  0.00  0.00    +0.000 C 
ATOM     16  O   UNL     1      -0.754  13.540  18.279  0.00  0.00    +0.000 OA
BRANCH  14  17
ATOM     17  C   UNL     1      -0.057   9.128  22.316  0.00  0.00    +0.000 C 
ATOM     18  F   UNL     1      -0.323   8.856  23.622  0.00  0.00    +0.000 F 
ATOM     19  F   UNL     1      -0.834   8.271  21.599  0.00  0.00    +0.000 F 
ATOM     20  F   UNL     1       1.228   8.723  22.114  0.00  0.00    +0.000 F 
ENDBRANCH  14  17
ENDBRANCH   5   7
BRANCH   1  21
ATOM     21  C   UNL     1      -5.306  12.214  18.425  0.00  0.00    +0.000 C 
BRANCH  21  26
ATOM     22  C   UNL     1      -6.593  11.629  20.515  0.00  0.00    +0.000 A 
ATOM     23  N   UNL     1      -7.317  10.620  20.947  0.00  0.00    +0.000 NA
ATOM     24  N   UNL     1      -7.266   9.629  20.001  0.00  0.00    +0.000 NA
ATOM     25  C   UNL     1      -6.534  10.056  19.015  0.00  0.00    +0.000 A 
ATOM     26  N   UNL     1      -6.103  11.331  19.264  0.00  0.00    +0.000 N 
BRANCH  22  27
ATOM     27  C   UNL     1      -6.323  12.886  21.265  0.00  0.00    +0.000 C 
BRANCH  27  29
ATOM     28  C   UNL     1      -4.348  14.302  21.886  0.00  0.00    +0.000 C 
ATOM     29  C   UNL     1      -4.925  12.895  21.874  0.00  0.00    +0.000 C 
ENDBRANCH  27  29
ENDBRANCH  22  27
ENDBRANCH  21  26
ENDBRANCH   1  21
TORSDOF 6
ENDMDL
MODEL 5
REMARK VINA RESULT:      -7.5      4.587      7.497
REMARK  Name = 
REMARK  7 active torsions:
REMARK  status: ('A' for Active; 'I' for Inactive)
REMARK    1  A    between atoms: C_1  and  C_2
REMARK    2  A    between atoms: C_2  and  C_3
REMARK    3  A    between atoms: C_3  and  C_4
REMARK    4  A    between atoms: N_8  and  C_9
REMARK    5  A    between atoms: C_9  and  C_10
REMARK    6  A    between atoms: C_14  and  N_15
REMARK    7  A    between atoms: C_22  and  C_23
REMARK                            x       y       z     vdW  Elec       q    Type
REMARK                         _______ _______ _______ _____ _____    ______ ____
ROOT
ATOM      1  C   UNL     1       1.360   9.026  19.697  0.00  0.00    +0.000 A 
ATOM      2  C   UNL     1       2.019   9.373  18.510  0.00  0.00    +0.000 A 
ATOM      3  C   UNL     1       2.463   8.373  17.656  0.00  0.00    +0.000 A 
ATOM      4  C   UNL     1       2.390   7.046  18.059  0.00  0.00    +0.000 A 
ATOM      5  C   UNL     1       2.179   6.778  19.416  0.00  0.00    +0.000 A 
ATOM      6  C   UNL     1       1.467   7.713  20.173  0.00  0.00    +0.000 A 
ENDROOT
BRANCH   5   7
ATOM      7  N   UNL     1       3.183   5.974  20.115  0.00  0.00    +0.000 N 
ATOM      8  C   UNL     1       4.345   5.725  19.222  0.00  0.00    +0.000 C 
ATOM      9  C   UNL     1       3.985   4.420  18.575  0.00  0.00    +0.000 A 
ATOM     10  C   UNL     1       3.128   3.751  19.451  0.00  0.00    +0.000 A 
ATOM     11  C   UNL     1       2.431   2.601  19.090  0.00  0.00    +0.000 A 
ATOM     12  C   UNL     1       2.602   2.139  17.788  0.00  0.00    +0.000 A 
ATOM     13  C   UNL     1       3.461   2.808  16.891  0.00  0.00    +0.000 A 
ATOM     14  C   UNL     1       4.181   3.958  17.273  0.00  0.00    +0.000 A 
ATOM     15  C   UNL     1       2.754   4.687  20.533  0.00  0.00    +0.000 C 
ATOM     16  O   UNL     1       2.026   4.397  21.465  0.00  0.00    +0.000 OA
BRANCH  14  17
ATOM     17  C   UNL     1       5.019   4.684  16.249  0.00  0.00    +0.000 C 
ATOM     18  F   UNL     1       4.647   5.978  16.053  0.00  0.00    +0.000 F 
ATOM     19  F   UNL     1       6.336   4.729  16.588  0.00  0.00    +0.000 F 
ATOM     20  F   UNL     1       4.970   4.101  15.018  0.00  0.00    +0.000 F 
ENDBRANCH  14  17
ENDBRANCH   5   7
BRANCH   1  21
ATOM     21  C   UNL     1       0.508  10.048  20.397  0.00  0.00    +0.000 C 
BRANCH  21  26
ATOM     22  C   UNL     1      -0.765  11.505  18.777  0.00  0.00    +0.000 A 
ATOM     23  N   UNL     1      -0.649  12.716  18.279  0.00  0.00    +0.000 NA
ATOM     24  N   UNL     1       0.526  13.252  18.742  0.00  0.00    +0.000 NA
ATOM     25  C   UNL     1       1.086  12.373  19.519  0.00  0.00    +0.000 A 
ATOM     26  N   UNL     1       0.303  11.255  19.609  0.00  0.00    +0.000 N 
BRANCH  22  27
ATOM     27  C   UNL     1      -1.861  10.546  18.476  0.00  0.00    +0.000 C 
BRANCH  27  29
ATOM     28  C   UNL     1      -2.550  10.429  16.067  0.00  0.00    +0.000 C 
ATOM     29  C   UNL     1      -1.648   9.841  17.140  0.00  0.00    +0.000 C 
ENDBRANCH  27  29
ENDBRANCH  22  27
ENDBRANCH  21  26
ENDBRANCH   1  21
TORSDOF 6
ENDMDL
MODEL 6
REMARK VINA RESULT:      -7.4      4.632      7.298
REMARK  Name = 
REMARK  7 active torsions:
REMARK  status: ('A' for Active; 'I' for Inactive)
REMARK    1  A    between atoms: C_1  and  C_2
REMARK    2  A    between atoms: C_2  and  C_3
REMARK    3  A    between atoms: C_3  and  C_4
REMARK    4  A    between atoms: N_8  and  C_9
REMARK    5  A    between atoms: C_9  and  C_10
REMARK    6  A    between atoms: C_14  and  N_15
REMARK    7  A    between atoms: C_22  and  C_23
REMARK                            x       y       z     vdW  Elec       q    Type
REMARK                         _______ _______ _______ _____ _____    ______ ____
ROOT
ATOM      1  C   UNL     1       1.488   9.290  19.131  0.00  0.00    +0.000 A 
ATOM      2  C   UNL     1       0.884   8.609  20.196  0.00  0.00    +0.000 A 
ATOM      3  C   UNL     1       1.439   7.421  20.650  0.00  0.00    +0.000 A 
ATOM      4  C   UNL     1       2.489   6.842  19.949  0.00  0.00    +0.000 A 
ATOM      5  C   UNL     1       2.741   7.291  18.647  0.00  0.00    +0.000 A 
ATOM      6  C   UNL     1       2.410   8.611  18.326  0.00  0.00    +0.000 A 
ENDROOT
BRANCH   5   7
ATOM      7  N   UNL     1       2.689   6.305  17.566  0.00  0.00    +0.000 N 
ATOM      8  C   UNL     1       1.718   5.231  17.904  0.00  0.00    +0.000 C 
ATOM      9  C   UNL     1       2.584   4.209  18.579  0.00  0.00    +0.000 A 
ATOM     10  C   UNL     1       3.881   4.383  18.091  0.00  0.00    +0.000 A 
ATOM     11  C   UNL     1       4.987   3.745  18.648  0.00  0.00    +0.000 A 
ATOM     12  C   UNL     1       4.757   2.924  19.748  0.00  0.00    +0.000 A 
ATOM     13  C   UNL     1       3.453   2.742  20.254  0.00  0.00    +0.000 A 
ATOM     14  C   UNL     1       2.336   3.373  19.669  0.00  0.00    +0.000 A 
ATOM     15  C   UNL     1       3.909   5.630  17.296  0.00  0.00    +0.000 C 
ATOM     16  O   UNL     1       4.898   6.051  16.723  0.00  0.00    +0.000 OA
BRANCH  14  17
ATOM     17  C   UNL     1       0.976   3.213  20.303  0.00  0.00    +0.000 C 
ATOM     18  F   UNL     1       0.368   4.393  20.602  0.00  0.00    +0.000 F 
ATOM     19  F   UNL     1       0.102   2.543  19.503  0.00  0.00    +0.000 F 
ATOM     20  F   UNL     1       1.018   2.518  21.474  0.00  0.00    +0.000 F 
ENDBRANCH  14  17
ENDBRANCH   5   7
BRANCH   1  21
ATOM     21  C   UNL     1       1.182  10.747  18.916  0.00  0.00    +0.000 C 
BRANCH  21  26
ATOM     22  C   UNL     1      -0.823  11.699  20.117  0.00  0.00    +0.000 A 
ATOM     23  N   UNL     1      -2.103  11.864  19.868  0.00  0.00    +0.000 NA
ATOM     24  N   UNL     1      -2.375  11.285  18.654  0.00  0.00    +0.000 NA
ATOM     25  C   UNL     1      -1.263  10.801  18.185  0.00  0.00    +0.000 A 
ATOM     26  N   UNL     1      -0.234  11.058  19.050  0.00  0.00    +0.000 N 
BRANCH  22  27
ATOM     27  C   UNL     1      -0.121  12.116  21.360  0.00  0.00    +0.000 C 
BRANCH  27  29
ATOM     28  C   UNL     1      -0.762  10.325  22.996  0.00  0.00    +0.000 C 
ATOM     29  C   UNL     1      -0.933  11.785  22.608  0.00  0.00    +0.000 C 
ENDBRANCH  27  29
ENDBRANCH  22  27
ENDBRANCH  21  26
ENDBRANCH   1  21
TORSDOF 6
ENDMDL
MODEL 7
REMARK VINA RESULT:      -7.4      4.646      7.404
REMARK  Name = 
REMARK  7 active torsions:
REMARK  status: ('A' for Active; 'I' for Inactive)
REMARK    1  A    between atoms: C_1  and  C_2
REMARK    2  A    between atoms: C_2  and  C_3
REMARK    3  A    between atoms: C_3  and  C_4
REMARK    4  A    between atoms: N_8  and  C_9
REMARK    5  A    between atoms: C_9  and  C_10
REMARK    6  A    between atoms: C_14  and  N_15
REMARK    7  A    between atoms: C_22  and  C_23
REMARK                            x       y       z     vdW  Elec       q    Type
REMARK                         _______ _______ _______ _____ _____    ______ ____
ROOT
ATOM      1  C   UNL     1       1.530   9.291  18.976  0.00  0.00    +0.000 A 
ATOM      2  C   UNL     1       0.923   8.667  20.074  0.00  0.00    +0.000 A 
ATOM      3  C   UNL     1       1.461   7.490  20.576  0.00  0.00    +0.000 A 
ATOM      4  C   UNL     1       2.496   6.863  19.893  0.00  0.00    +0.000 A 
ATOM      5  C   UNL     1       2.744   7.250  18.570  0.00  0.00    +0.000 A 
ATOM      6  C   UNL     1       2.433   8.560  18.194  0.00  0.00    +0.000 A 
ENDROOT
BRANCH   5   7
ATOM      7  N   UNL     1       2.667   6.219  17.534  0.00  0.00    +0.000 N 
ATOM      8  C   UNL     1       1.692   5.170  17.934  0.00  0.00    +0.000 C 
ATOM      9  C   UNL     1       2.559   4.170  18.639  0.00  0.00    +0.000 A 
ATOM     10  C   UNL     1       3.850   4.310  18.124  0.00  0.00    +0.000 A 
ATOM     11  C   UNL     1       4.959   3.687  18.690  0.00  0.00    +0.000 A 
ATOM     12  C   UNL     1       4.739   2.916  19.829  0.00  0.00    +0.000 A 
ATOM     13  C   UNL     1       3.441   2.769  20.362  0.00  0.00    +0.000 A 
ATOM     14  C   UNL     1       2.321   3.384  19.768  0.00  0.00    +0.000 A 
ATOM     15  C   UNL     1       3.876   5.521  17.275  0.00  0.00    +0.000 C 
ATOM     16  O   UNL     1       4.859   5.908  16.669  0.00  0.00    +0.000 OA
BRANCH  14  17
ATOM     17  C   UNL     1       0.970   3.265  20.429  0.00  0.00    +0.000 C 
ATOM     18  F   UNL     1       0.058   2.574  19.693  0.00  0.00    +0.000 F 
ATOM     19  F   UNL     1       1.030   2.626  21.630  0.00  0.00    +0.000 F 
ATOM     20  F   UNL     1       0.396   4.475  20.679  0.00  0.00    +0.000 F 
ENDBRANCH  14  17
ENDBRANCH   5   7
BRANCH   1  21
ATOM     21  C   UNL     1       1.247  10.741  18.700  0.00  0.00    +0.000 C 
BRANCH  21  26
ATOM     22  C   UNL     1      -1.264  10.758  18.448  0.00  0.00    +0.000 A 
ATOM     23  N   UNL     1      -2.291  11.260  19.096  0.00  0.00    +0.000 NA
ATOM     24  N   UNL     1      -1.807  12.023  20.128  0.00  0.00    +0.000 NA
ATOM     25  C   UNL     1      -0.509  11.955  20.099  0.00  0.00    +0.000 A 
ATOM     26  N   UNL     1      -0.101  11.142  19.077  0.00  0.00    +0.000 N 
BRANCH  22  27
ATOM     27  C   UNL     1      -1.338   9.924  17.218  0.00  0.00    +0.000 C 
BRANCH  27  29
ATOM     28  C   UNL     1      -2.965  10.890  15.571  0.00  0.00    +0.000 C 
ATOM     29  C   UNL     1      -2.758   9.855  16.665  0.00  0.00    +0.000 C 
ENDBRANCH  27  29
ENDBRANCH  22  27
ENDBRANCH  21  26
ENDBRANCH   1  21
TORSDOF 6
ENDMDL
MODEL 8
REMARK VINA RESULT:      -7.3      4.773      7.654
REMARK  Name = 
REMARK  7 active torsions:
REMARK  status: ('A' for Active; 'I' for Inactive)
REMARK    1  A    between atoms: C_1  and  C_2
REMARK    2  A    between atoms: C_2  and  C_3
REMARK    3  A    between atoms: C_3  and  C_4
REMARK    4  A    between atoms: N_8  and  C_9
REMARK    5  A    between atoms: C_9  and  C_10
REMARK    6  A    between atoms: C_14  and  N_15
REMARK    7  A    between atoms: C_22  and  C_23
REMARK                            x       y       z     vdW  Elec       q    Type
REMARK                         _______ _______ _______ _____ _____    ______ ____
ROOT
ATOM      1  C   UNL     1       1.732   9.244  18.817  0.00  0.00    +0.000 A 
ATOM      2  C   UNL     1       1.045   8.669  19.895  0.00  0.00    +0.000 A 
ATOM      3  C   UNL     1       1.504   7.479  20.441  0.00  0.00    +0.000 A 
ATOM      4  C   UNL     1       2.539   6.793  19.819  0.00  0.00    +0.000 A 
ATOM      5  C   UNL     1       2.868   7.143  18.505  0.00  0.00    +0.000 A 
ATOM      6  C   UNL     1       2.637   8.459  18.092  0.00  0.00    +0.000 A 
ENDROOT
BRANCH   5   7
ATOM      7  N   UNL     1       2.793   6.097  17.483  0.00  0.00    +0.000 N 
ATOM      8  C   UNL     1       1.783   5.077  17.874  0.00  0.00    +0.000 C 
ATOM      9  C   UNL     1       2.610   4.069  18.617  0.00  0.00    +0.000 A 
ATOM     10  C   UNL     1       3.915   4.172  18.132  0.00  0.00    +0.000 A 
ATOM     11  C   UNL     1       4.995   3.532  18.736  0.00  0.00    +0.000 A 
ATOM     12  C   UNL     1       4.729   2.785  19.880  0.00  0.00    +0.000 A 
ATOM     13  C   UNL     1       3.416   2.677  20.383  0.00  0.00    +0.000 A 
ATOM     14  C   UNL     1       2.325   3.308  19.751  0.00  0.00    +0.000 A 
ATOM     15  C   UNL     1       3.992   5.368  17.266  0.00  0.00    +0.000 C 
ATOM     16  O   UNL     1       4.998   5.723  16.679  0.00  0.00    +0.000 OA
BRANCH  14  17
ATOM     17  C   UNL     1       0.955   3.231  20.380  0.00  0.00    +0.000 C 
ATOM     18  F   UNL     1       0.403   4.446  20.643  0.00  0.00    +0.000 F 
ATOM     19  F   UNL     1       0.055   2.582  19.592  0.00  0.00    +0.000 F 
ATOM     20  F   UNL     1       0.958   2.565  21.570  0.00  0.00    +0.000 F 
ENDBRANCH  14  17
ENDBRANCH   5   7
BRANCH   1  21
ATOM     21  C   UNL     1       1.530  10.701  18.504  0.00  0.00    +0.000 C 
BRANCH  21  26
ATOM     22  C   UNL     1      -0.497  11.824  19.502  0.00  0.00    +0.000 A 
ATOM     23  N   UNL     1      -0.819  12.385  20.647  0.00  0.00    +0.000 NA
ATOM     24  N   UNL     1       0.300  12.396  21.440  0.00  0.00    +0.000 NA
ATOM     25  C   UNL     1       1.265  11.831  20.777  0.00  0.00    +0.000 A 
ATOM     26  N   UNL     1       0.817  11.417  19.552  0.00  0.00    +0.000 N 
BRANCH  22  27
ATOM     27  C   UNL     1      -1.398  11.670  18.329  0.00  0.00    +0.000 C 
BRANCH  27  29
ATOM     28  C   UNL     1      -2.265   9.897  16.780  0.00  0.00    +0.000 C 
ATOM     29  C   UNL     1      -1.961  10.256  18.226  0.00  0.00    +0.000 C 
ENDBRANCH  27  29
ENDBRANCH  22  27
ENDBRANCH  21  26
ENDBRANCH   1  21
TORSDOF 6
ENDMDL
MODEL 9
REMARK VINA RESULT:      -7.2      4.989      7.435
REMARK  Name = 
REMARK  7 active torsions:
REMARK  status: ('A' for Active; 'I' for Inactive)
REMARK    1  A    between atoms: C_1  and  C_2
REMARK    2  A    between atoms: C_2  and  C_3
REMARK    3  A    between atoms: C_3  and  C_4
REMARK    4  A    between atoms: N_8  and  C_9
REMARK    5  A    between atoms: C_9  and  C_10
REMARK    6  A    between atoms: C_14  and  N_15
REMARK    7  A    between atoms: C_22  and  C_23
REMARK                            x       y       z     vdW  Elec       q    Type
REMARK                         _______ _______ _______ _____ _____    ______ ____
ROOT
ATOM      1  C   UNL     1       1.382   8.849  19.354  0.00  0.00    +0.000 A 
ATOM      2  C   UNL     1       2.250   9.282  18.342  0.00  0.00    +0.000 A 
ATOM      3  C   UNL     1       2.925   8.345  17.572  0.00  0.00    +0.000 A 
ATOM      4  C   UNL     1       2.855   7.000  17.912  0.00  0.00    +0.000 A 
ATOM      5  C   UNL     1       2.384   6.665  19.187  0.00  0.00    +0.000 A 
ATOM      6  C   UNL     1       1.471   7.526  19.803  0.00  0.00    +0.000 A 
ENDROOT
BRANCH   5   7
ATOM      7  N   UNL     1       3.270   5.892  20.058  0.00  0.00    +0.000 N 
ATOM      8  C   UNL     1       4.503   5.512  19.320  0.00  0.00    +0.000 C 
ATOM      9  C   UNL     1       4.146   4.167  18.759  0.00  0.00    +0.000 A 
ATOM     10  C   UNL     1       3.172   3.619  19.595  0.00  0.00    +0.000 A 
ATOM     11  C   UNL     1       2.458   2.469  19.267  0.00  0.00    +0.000 A 
ATOM     12  C   UNL     1       2.738   1.879  18.038  0.00  0.00    +0.000 A 
ATOM     13  C   UNL     1       3.716   2.425  17.181  0.00  0.00    +0.000 A 
ATOM     14  C   UNL     1       4.451   3.575  17.532  0.00  0.00    +0.000 A 
ATOM     15  C   UNL     1       2.736   4.668  20.543  0.00  0.00    +0.000 C 
ATOM     16  O   UNL     1       1.903   4.497  21.414  0.00  0.00    +0.000 OA
BRANCH  14  17
ATOM     17  C   UNL     1       5.424   4.167  16.541  0.00  0.00    +0.000 C 
ATOM     18  F   UNL     1       5.729   3.335  15.509  0.00  0.00    +0.000 F 
ATOM     19  F   UNL     1       4.956   5.308  15.966  0.00  0.00    +0.000 F 
ATOM     20  F   UNL     1       6.618   4.498  17.108  0.00  0.00    +0.000 F 
ENDBRANCH  14  17
ENDBRANCH   5   7
BRANCH   1  21
ATOM     21  C   UNL     1       0.339   9.792  19.887  0.00  0.00    +0.000 C 
BRANCH  21  26
ATOM     22  C   UNL     1      -0.460  10.704  22.099  0.00  0.00    +0.000 A 
ATOM     23  N   UNL     1      -0.231  10.473  23.373  0.00  0.00    +0.000 NA
ATOM     24  N   UNL     1       0.760   9.529  23.459  0.00  0.00    +0.000 NA
ATOM     25  C   UNL     1       1.098   9.195  22.249  0.00  0.00    +0.000 A 
ATOM     26  N   UNL     1       0.339   9.880  21.340  0.00  0.00    +0.000 N 
BRANCH  22  27
ATOM     27  C   UNL     1      -1.413  11.710  21.559  0.00  0.00    +0.000 C 
BRANCH  27  29
ATOM     28  C   UNL     1      -3.670  12.693  22.046  0.00  0.00    +0.000 C 
ATOM     29  C   UNL     1      -2.342  12.251  22.642  0.00  0.00    +0.000 C 
ENDBRANCH  27  29
ENDBRANCH  22  27
ENDBRANCH  21  26
ENDBRANCH   1  21
TORSDOF 6
ENDMDL
