MODEL 1
REMARK VINA RESULT:      -8.7      0.000      0.000
REMARK  Name = 
REMARK  4 active torsions:
REMARK  status: ('A' for Active; 'I' for Inactive)
REMARK    1  A    between atoms: C_6  and  C_7
REMARK    2  A    between atoms: C_11  and  C_12
REMARK    3  A    between atoms: N_15  and  C_16
REMARK    4  A    between atoms: C_16  and  C_17
REMARK                            x       y       z     vdW  Elec       q    Type
REMARK                         _______ _______ _______ _____ _____    ______ ____
ROOT
ATOM      1  C   UNL     1       3.779   4.116  18.680  0.00  0.00    +0.000 C 
ATOM      2  C   UNL     1       2.667   4.422  17.668  0.00  0.00    +0.000 C 
ATOM      3  C   UNL     1       2.501   5.924  17.429  0.00  0.00    +0.000 C 
ATOM      4  N   UNL     1       2.248   6.663  18.678  0.00  0.00    +0.000 NA
ATOM      5  C   UNL     1       3.320   6.419  19.664  0.00  0.00    +0.000 C 
ATOM      6  C   UNL     1       3.520   4.930  19.952  0.00  0.00    +0.000 C 
ENDROOT
BRANCH   1  11
ATOM      7  C   UNL     1       6.543   4.470  16.233  0.00  0.00    +0.000 A 
ATOM      8  C   UNL     1       7.633   4.700  17.047  0.00  0.00    +0.000 A 
ATOM      9  C   UNL     1       7.391   4.720  18.401  0.00  0.00    +0.000 A 
ATOM     10  N   UNL     1       6.176   4.533  18.943  0.00  0.00    +0.000 NA
ATOM     11  C   UNL     1       5.162   4.323  18.087  0.00  0.00    +0.000 A 
ATOM     12  N   UNL     1       5.306   4.304  16.748  0.00  0.00    +0.000 NA
BRANCH   7  18
ATOM     13  F   UNL     1       4.978   2.754  11.946  0.00  0.00    +0.000 F 
ATOM     14  C   UNL     1       5.845   3.516  12.627  0.00  0.00    +0.000 A 
ATOM     15  C   UNL     1       6.811   4.232  11.937  0.00  0.00    +0.000 A 
ATOM     16  C   UNL     1       7.705   5.027  12.648  0.00  0.00    +0.000 A 
ATOM     17  C   UNL     1       7.616   5.095  14.045  0.00  0.00    +0.000 A 
ATOM     18  C   UNL     1       6.641   4.368  14.761  0.00  0.00    +0.000 A 
ATOM     19  C   UNL     1       5.753   3.578  14.015  0.00  0.00    +0.000 A 
ENDBRANCH   7  18
ENDBRANCH   1  11
BRANCH   4  20
ATOM     20  C   UNL     1       2.149   8.117  18.363  0.00  0.00    +0.000 C 
BRANCH  20  21
ATOM     21  C   UNL     1       1.529   8.946  19.463  0.00  0.00    +0.000 A 
ATOM     22  N   UNL     1       1.288   8.480  20.678  0.00  0.00    +0.000 NA
ATOM     23  C   UNL     1       0.622   9.437  21.402  0.00  0.00    +0.000 A 
ATOM     24  C   UNL     1       0.429  10.645  20.770  0.00  0.00    +0.000 A 
ATOM     25  S   UNL     1       1.046  10.581  19.186  0.00  0.00    +0.000 S 
ATOM     26  C   UNL     1      -0.295  11.803  21.366  0.00  0.00    +0.000 C 
ATOM     27  N   UNL     1      -0.481  11.622  22.824  0.00  0.00    +0.000 NA
ATOM     28  C   UNL     1      -0.929  10.254  23.154  0.00  0.00    +0.000 C 
ATOM     29  C   UNL     1       0.117   9.181  22.777  0.00  0.00    +0.000 C 
ATOM     30  H   UNL     1      -1.171  12.295  23.150  0.00  0.00    +0.000 HD
ENDBRANCH  20  21
ENDBRANCH   4  20
TORSDOF 4
ENDMDL
MODEL 2
REMARK VINA RESULT:      -8.7      0.821      1.216
REMARK  Name = 
REMARK  4 active torsions:
REMARK  status: ('A' for Active; 'I' for Inactive)
REMARK    1  A    between atoms: C_6  and  C_7
REMARK    2  A    between atoms: C_11  and  C_12
REMARK    3  A    between atoms: N_15  and  C_16
REMARK    4  A    between atoms: C_16  and  C_17
REMARK                            x       y       z     vdW  Elec       q    Type
REMARK                         _______ _______ _______ _____ _____    ______ ____
ROOT
ATOM      1  C   UNL     1       3.571   4.092  18.547  0.00  0.00    +0.000 C 
ATOM      2  C   UNL     1       2.490   4.599  17.582  0.00  0.00    +0.000 C 
ATOM      3  C   UNL     1       2.410   6.127  17.557  0.00  0.00    +0.000 C 
ATOM      4  N   UNL     1       2.181   6.695  18.896  0.00  0.00    +0.000 NA
ATOM      5  C   UNL     1       3.225   6.256  19.843  0.00  0.00    +0.000 C 
ATOM      6  C   UNL     1       3.340   4.732  19.920  0.00  0.00    +0.000 C 
ENDROOT
BRANCH   1  11
ATOM      7  C   UNL     1       6.407   4.447  16.185  0.00  0.00    +0.000 A 
ATOM      8  C   UNL     1       7.471   4.686  17.031  0.00  0.00    +0.000 A 
ATOM      9  C   UNL     1       7.186   4.713  18.377  0.00  0.00    +0.000 A 
ATOM     10  N   UNL     1       5.956   4.522  18.882  0.00  0.00    +0.000 NA
ATOM     11  C   UNL     1       4.970   4.302  17.996  0.00  0.00    +0.000 A 
ATOM     12  N   UNL     1       5.156   4.278  16.662  0.00  0.00    +0.000 NA
BRANCH   7  18
ATOM     13  F   UNL     1       4.922   2.786  11.848  0.00  0.00    +0.000 F 
ATOM     14  C   UNL     1       5.796   3.514  12.557  0.00  0.00    +0.000 A 
ATOM     15  C   UNL     1       6.813   4.189  11.901  0.00  0.00    +0.000 A 
ATOM     16  C   UNL     1       7.713   4.949  12.642  0.00  0.00    +0.000 A 
ATOM     17  C   UNL     1       7.579   5.023  14.034  0.00  0.00    +0.000 A 
ATOM     18  C   UNL     1       6.552   4.339  14.717  0.00  0.00    +0.000 A 
ATOM     19  C   UNL     1       5.659   3.582  13.942  0.00  0.00    +0.000 A 
ENDBRANCH   7  18
ENDBRANCH   1  11
BRANCH   4  20
ATOM     20  C   UNL     1       2.166   8.182  18.789  0.00  0.00    +0.000 C 
BRANCH  20  21
ATOM     21  C   UNL     1       1.296   8.867  19.818  0.00  0.00    +0.000 A 
ATOM     22  N   UNL     1       0.720  10.041  19.617  0.00  0.00    +0.000 NA
ATOM     23  C   UNL     1       0.097  10.440  20.773  0.00  0.00    +0.000 A 
ATOM     24  C   UNL     1       0.133   9.541  21.816  0.00  0.00    +0.000 A 
ATOM     25  S   UNL     1       1.027   8.164  21.372  0.00  0.00    +0.000 S 
ATOM     26  C   UNL     1      -0.455   9.789  23.163  0.00  0.00    +0.000 C 
ATOM     27  N   UNL     1      -1.364  10.957  23.141  0.00  0.00    +0.000 NA
ATOM     28  C   UNL     1      -0.781  12.092  22.397  0.00  0.00    +0.000 C 
ATOM     29  C   UNL     1      -0.558  11.768  20.903  0.00  0.00    +0.000 C 
ATOM     30  H   UNL     1      -1.554  11.239  24.101  0.00  0.00    +0.000 HD
ENDBRANCH  20  21
ENDBRANCH   4  20
TORSDOF 4
ENDMDL
MODEL 3
REMARK VINA RESULT:      -8.4      1.265      1.788
REMARK  Name = 
REMARK  4 active torsions:
REMARK  status: ('A' for Active; 'I' for Inactive)
REMARK    1  A    between atoms: C_6  and  C_7
REMARK    2  A    between atoms: C_11  and  C_12
REMARK    3  A    between atoms: N_15  and  C_16
REMARK    4  A    between atoms: C_16  and  C_17
REMARK                            x       y       z     vdW  Elec       q    Type
REMARK                         _______ _______ _______ _____ _____    ______ ____
ROOT
ATOM      1  C   UNL     1       3.380   4.158  18.661  0.00  0.00    +0.000 C 
ATOM      2  C   UNL     1       2.350   4.721  17.673  0.00  0.00    +0.000 C 
ATOM      3  C   UNL     1       2.319   6.251  17.681  0.00  0.00    +0.000 C 
ATOM      4  N   UNL     1       2.063   6.796  19.025  0.00  0.00    +0.000 NA
ATOM      5  C   UNL     1       3.059   6.302  19.996  0.00  0.00    +0.000 C 
ATOM      6  C   UNL     1       3.123   4.773  20.040  0.00  0.00    +0.000 C 
ENDROOT
BRANCH   1  11
ATOM      7  C   UNL     1       6.303   4.496  16.404  0.00  0.00    +0.000 A 
ATOM      8  C   UNL     1       7.347   4.658  17.292  0.00  0.00    +0.000 A 
ATOM      9  C   UNL     1       7.020   4.641  18.629  0.00  0.00    +0.000 A 
ATOM     10  N   UNL     1       5.768   4.478  19.087  0.00  0.00    +0.000 NA
ATOM     11  C   UNL     1       4.804   4.335  18.162  0.00  0.00    +0.000 A 
ATOM     12  N   UNL     1       5.032   4.357  16.835  0.00  0.00    +0.000 NA
BRANCH   7  18
ATOM     13  F   UNL     1       8.583   5.888  12.325  0.00  0.00    +0.000 F 
ATOM     14  C   UNL     1       7.643   5.134  12.911  0.00  0.00    +0.000 A 
ATOM     15  C   UNL     1       6.874   4.279  12.137  0.00  0.00    +0.000 A 
ATOM     16  C   UNL     1       5.904   3.493  12.751  0.00  0.00    +0.000 A 
ATOM     17  C   UNL     1       5.719   3.573  14.138  0.00  0.00    +0.000 A 
ATOM     18  C   UNL     1       6.491   4.441  14.939  0.00  0.00    +0.000 A 
ATOM     19  C   UNL     1       7.463   5.220  14.289  0.00  0.00    +0.000 A 
ENDBRANCH   7  18
ENDBRANCH   1  11
BRANCH   4  20
ATOM     20  C   UNL     1       2.099   8.285  18.953  0.00  0.00    +0.000 C 
BRANCH  20  21
ATOM     21  C   UNL     1       1.168   8.974  19.924  0.00  0.00    +0.000 A 
ATOM     22  N   UNL     1       0.377   9.978  19.584  0.00  0.00    +0.000 NA
ATOM     23  C   UNL     1      -0.252  10.454  20.708  0.00  0.00    +0.000 A 
ATOM     24  C   UNL     1      -0.001   9.767  21.875  0.00  0.00    +0.000 A 
ATOM     25  S   UNL     1       1.109   8.510  21.587  0.00  0.00    +0.000 S 
ATOM     26  C   UNL     1      -0.558  10.135  23.207  0.00  0.00    +0.000 C 
ATOM     27  N   UNL     1      -1.668  11.106  23.070  0.00  0.00    +0.000 NA
ATOM     28  C   UNL     1      -1.341  12.181  22.112  0.00  0.00    +0.000 C 
ATOM     29  C   UNL     1      -1.134  11.650  20.675  0.00  0.00    +0.000 C 
ATOM     30  H   UNL     1      -1.860  11.510  23.985  0.00  0.00    +0.000 HD
ENDBRANCH  20  21
ENDBRANCH   4  20
TORSDOF 4
ENDMDL
MODEL 4
REMARK VINA RESULT:      -8.3      3.779      8.751
REMARK  Name = 
REMARK  4 active torsions:
REMARK  status: ('A' for Active; 'I' for Inactive)
REMARK    1  A    between atoms: C_6  and  C_7
REMARK    2  A    between atoms: C_11  and  C_12
REMARK    3  A    between atoms: N_15  and  C_16
REMARK    4  A    between atoms: C_16  and  C_17
REMARK                            x       y       z     vdW  Elec       q    Type
REMARK                         _______ _______ _______ _____ _____    ______ ____
ROOT
ATOM      1  C   UNL     1       1.188   4.415  20.826  0.00  0.00    +0.000 C 
ATOM      2  C   UNL     1       2.405   3.744  21.477  0.00  0.00    +0.000 C 
ATOM      3  C   UNL     1       3.434   3.287  20.441  0.00  0.00    +0.000 C 
ATOM      4  N   UNL     1       2.851   2.383  19.436  0.00  0.00    +0.000 NA
ATOM      5  C   UNL     1       1.696   3.013  18.764  0.00  0.00    +0.000 C 
ATOM      6  C   UNL     1       0.626   3.477  19.754  0.00  0.00    +0.000 C 
ENDROOT
BRANCH   1  11
ATOM      7  C   UNL     1       1.280   8.108  20.496  0.00  0.00    +0.000 A 
ATOM      8  C   UNL     1       2.102   8.287  19.402  0.00  0.00    +0.000 A 
ATOM      9  C   UNL     1       2.592   7.146  18.812  0.00  0.00    +0.000 A 
ATOM     10  N   UNL     1       2.311   5.905  19.244  0.00  0.00    +0.000 NA
ATOM     11  C   UNL     1       1.510   5.810  20.318  0.00  0.00    +0.000 A 
ATOM     12  N   UNL     1       1.002   6.874  20.968  0.00  0.00    +0.000 NA
BRANCH   7  18
ATOM     13  F   UNL     1       0.038  12.808  20.862  0.00  0.00    +0.000 F 
ATOM     14  C   UNL     1       0.008  11.573  21.379  0.00  0.00    +0.000 A 
ATOM     15  C   UNL     1      -0.661  11.348  22.572  0.00  0.00    +0.000 A 
ATOM     16  C   UNL     1      -0.695  10.062  23.102  0.00  0.00    +0.000 A 
ATOM     17  C   UNL     1      -0.056   9.015  22.425  0.00  0.00    +0.000 A 
ATOM     18  C   UNL     1       0.633   9.228  21.212  0.00  0.00    +0.000 A 
ATOM     19  C   UNL     1       0.647  10.536  20.703  0.00  0.00    +0.000 A 
ENDBRANCH   7  18
ENDBRANCH   1  11
BRANCH   4  20
ATOM     20  C   UNL     1       3.903   2.028  18.442  0.00  0.00    +0.000 C 
BRANCH  20  21
ATOM     21  C   UNL     1       4.781   3.187  18.029  0.00  0.00    +0.000 A 
ATOM     22  N   UNL     1       5.837   3.580  18.720  0.00  0.00    +0.000 NA
ATOM     23  C   UNL     1       6.349   4.720  18.151  0.00  0.00    +0.000 A 
ATOM     24  C   UNL     1       5.734   5.141  16.992  0.00  0.00    +0.000 A 
ATOM     25  S   UNL     1       4.426   4.119  16.619  0.00  0.00    +0.000 S 
ATOM     26  C   UNL     1       6.114   6.365  16.233  0.00  0.00    +0.000 C 
ATOM     27  N   UNL     1       7.429   6.881  16.676  0.00  0.00    +0.000 NA
ATOM     28  C   UNL     1       7.548   6.888  18.148  0.00  0.00    +0.000 C 
ATOM     29  C   UNL     1       7.483   5.468  18.754  0.00  0.00    +0.000 C 
ATOM     30  H   UNL     1       7.545   7.827  16.319  0.00  0.00    +0.000 HD
ENDBRANCH  20  21
ENDBRANCH   4  20
TORSDOF 4
ENDMDL
MODEL 5
REMARK VINA RESULT:      -8.1      3.880      8.723
REMARK  Name = 
REMARK  4 active torsions:
REMARK  status: ('A' for Active; 'I' for Inactive)
REMARK    1  A    between atoms: C_6  and  C_7
REMARK    2  A    between atoms: C_11  and  C_12
REMARK    3  A    between atoms: N_15  and  C_16
REMARK    4  A    between atoms: C_16  and  C_17
REMARK                            x       y       z     vdW  Elec       q    Type
REMARK                         _______ _______ _______ _____ _____    ______ ____
ROOT
ATOM      1  C   UNL     1       1.150   4.583  20.787  0.00  0.00    +0.000 C 
ATOM      2  C   UNL     1       2.332   3.947  21.531  0.00  0.00    +0.000 C 
ATOM      3  C   UNL     1       3.388   3.395  20.571  0.00  0.00    +0.000 C 
ATOM      4  N   UNL     1       2.824   2.424  19.619  0.00  0.00    +0.000 NA
ATOM      5  C   UNL     1       1.704   3.015  18.859  0.00  0.00    +0.000 C 
ATOM      6  C   UNL     1       0.609   3.571  19.772  0.00  0.00    +0.000 C 
ENDROOT
BRANCH   1  11
ATOM      7  C   UNL     1       1.337   8.237  20.188  0.00  0.00    +0.000 A 
ATOM      8  C   UNL     1       2.179   8.317  19.098  0.00  0.00    +0.000 A 
ATOM      9  C   UNL     1       2.649   7.124  18.601  0.00  0.00    +0.000 A 
ATOM     10  N   UNL     1       2.332   5.925  19.118  0.00  0.00    +0.000 NA
ATOM     11  C   UNL     1       1.513   5.928  20.184  0.00  0.00    +0.000 A 
ATOM     12  N   UNL     1       1.021   7.049  20.745  0.00  0.00    +0.000 NA
BRANCH   7  18
ATOM     13  F   UNL     1      -1.399  10.307  23.654  0.00  0.00    +0.000 F 
ATOM     14  C   UNL     1      -0.651  10.445  22.551  0.00  0.00    +0.000 A 
ATOM     15  C   UNL     1      -0.445  11.709  22.020  0.00  0.00    +0.000 A 
ATOM     16  C   UNL     1       0.339  11.848  20.879  0.00  0.00    +0.000 A 
ATOM     17  C   UNL     1       0.910  10.715  20.285  0.00  0.00    +0.000 A 
ATOM     18  C   UNL     1       0.706   9.422  20.811  0.00  0.00    +0.000 A 
ATOM     19  C   UNL     1      -0.087   9.315  21.964  0.00  0.00    +0.000 A 
ENDBRANCH   7  18
ENDBRANCH   1  11
BRANCH   4  20
ATOM     20  C   UNL     1       3.904   1.977  18.694  0.00  0.00    +0.000 C 
BRANCH  20  21
ATOM     21  C   UNL     1       4.782   3.095  18.181  0.00  0.00    +0.000 A 
ATOM     22  N   UNL     1       5.793   3.598  18.869  0.00  0.00    +0.000 NA
ATOM     23  C   UNL     1       6.314   4.668  18.184  0.00  0.00    +0.000 A 
ATOM     24  C   UNL     1       5.755   4.923  16.952  0.00  0.00    +0.000 A 
ATOM     25  S   UNL     1       4.487   3.831  16.647  0.00  0.00    +0.000 S 
ATOM     26  C   UNL     1       6.153   6.051  16.062  0.00  0.00    +0.000 C 
ATOM     27  N   UNL     1       7.433   6.650  16.502  0.00  0.00    +0.000 NA
ATOM     28  C   UNL     1       7.473   6.847  17.965  0.00  0.00    +0.000 C 
ATOM     29  C   UNL     1       7.401   5.514  18.744  0.00  0.00    +0.000 C 
ATOM     30  H   UNL     1       7.551   7.546  16.033  0.00  0.00    +0.000 HD
ENDBRANCH  20  21
ENDBRANCH   4  20
TORSDOF 4
ENDMDL
MODEL 6
REMARK VINA RESULT:      -8.0      2.190      2.653
REMARK  Name = 
REMARK  4 active torsions:
REMARK  status: ('A' for Active; 'I' for Inactive)
REMARK    1  A    between atoms: C_6  and  C_7
REMARK    2  A    between atoms: C_11  and  C_12
REMARK    3  A    between atoms: N_15  and  C_16
REMARK    4  A    between atoms: C_16  and  C_17
REMARK                            x       y       z     vdW  Elec       q    Type
REMARK                         _______ _______ _______ _____ _____    ______ ____
ROOT
ATOM      1  C   UNL     1       3.246   4.477  18.671  0.00  0.00    +0.000 C 
ATOM      2  C   UNL     1       2.276   5.048  17.627  0.00  0.00    +0.000 C 
ATOM      3  C   UNL     1       2.340   6.574  17.553  0.00  0.00    +0.000 C 
ATOM      4  N   UNL     1       2.087   7.207  18.858  0.00  0.00    +0.000 NA
ATOM      5  C   UNL     1       3.027   6.706  19.881  0.00  0.00    +0.000 C 
ATOM      6  C   UNL     1       2.995   5.182  20.008  0.00  0.00    +0.000 C 
ENDROOT
BRANCH   1  11
ATOM      7  C   UNL     1       6.233   4.567  16.475  0.00  0.00    +0.000 A 
ATOM      8  C   UNL     1       7.267   4.658  17.384  0.00  0.00    +0.000 A 
ATOM      9  C   UNL     1       6.912   4.680  18.713  0.00  0.00    +0.000 A 
ATOM     10  N   UNL     1       5.642   4.619  19.145  0.00  0.00    +0.000 NA
ATOM     11  C   UNL     1       4.689   4.540  18.202  0.00  0.00    +0.000 A 
ATOM     12  N   UNL     1       4.945   4.530  16.879  0.00  0.00    +0.000 NA
BRANCH   7  18
ATOM     13  F   UNL     1       8.565   5.899  12.406  0.00  0.00    +0.000 F 
ATOM     14  C   UNL     1       7.625   5.146  12.992  0.00  0.00    +0.000 A 
ATOM     15  C   UNL     1       6.879   4.265  12.224  0.00  0.00    +0.000 A 
ATOM     16  C   UNL     1       5.909   3.480  12.839  0.00  0.00    +0.000 A 
ATOM     17  C   UNL     1       5.699   3.588  14.220  0.00  0.00    +0.000 A 
ATOM     18  C   UNL     1       6.446   4.483  15.015  0.00  0.00    +0.000 A 
ATOM     19  C   UNL     1       7.420   5.259  14.365  0.00  0.00    +0.000 A 
ENDBRANCH   7  18
ENDBRANCH   1  11
BRANCH   4  20
ATOM     20  C   UNL     1       2.217   8.685  18.708  0.00  0.00    +0.000 C 
BRANCH  20  21
ATOM     21  C   UNL     1       0.897   9.416  18.625  0.00  0.00    +0.000 A 
ATOM     22  N   UNL     1      -0.006   9.182  17.687  0.00  0.00    +0.000 NA
ATOM     23  C   UNL     1      -1.034  10.082  17.818  0.00  0.00    +0.000 A 
ATOM     24  C   UNL     1      -0.950  10.939  18.893  0.00  0.00    +0.000 A 
ATOM     25  S   UNL     1       0.494  10.663  19.750  0.00  0.00    +0.000 S 
ATOM     26  C   UNL     1      -1.942  12.007  19.200  0.00  0.00    +0.000 C 
ATOM     27  N   UNL     1      -3.187  11.819  18.420  0.00  0.00    +0.000 NA
ATOM     28  C   UNL     1      -2.904  11.491  17.008  0.00  0.00    +0.000 C 
ATOM     29  C   UNL     1      -2.160  10.146  16.849  0.00  0.00    +0.000 C 
ATOM     30  H   UNL     1      -3.734  12.676  18.469  0.00  0.00    +0.000 HD
ENDBRANCH  20  21
ENDBRANCH   4  20
TORSDOF 4
ENDMDL
MODEL 7
REMARK VINA RESULT:      -7.9      1.511      2.087
REMARK  Name = 
REMARK  4 active torsions:
REMARK  status: ('A' for Active; 'I' for Inactive)
REMARK    1  A    between atoms: C_6  and  C_7
REMARK    2  A    between atoms: C_11  and  C_12
REMARK    3  A    between atoms: N_15  and  C_16
REMARK    4  A    between atoms: C_16  and  C_17
REMARK                            x       y       z     vdW  Elec       q    Type
REMARK                         _______ _______ _______ _____ _____    ______ ____
ROOT
ATOM      1  C   UNL     1       3.079   3.391  17.906  0.00  0.00    +0.000 C 
ATOM      2  C   UNL     1       2.043   4.494  17.651  0.00  0.00    +0.000 C 
ATOM      3  C   UNL     1       2.109   5.601  18.705  0.00  0.00    +0.000 C 
ATOM      4  N   UNL     1       1.949   5.081  20.073  0.00  0.00    +0.000 NA
ATOM      5  C   UNL     1       2.954   4.039  20.364  0.00  0.00    +0.000 C 
ATOM      6  C   UNL     1       2.924   2.896  19.348  0.00  0.00    +0.000 C 
ENDROOT
BRANCH   1  11
ATOM      7  C   UNL     1       6.107   4.286  15.962  0.00  0.00    +0.000 A 
ATOM      8  C   UNL     1       6.998   4.650  16.951  0.00  0.00    +0.000 A 
ATOM      9  C   UNL     1       6.539   4.572  18.246  0.00  0.00    +0.000 A 
ATOM     10  N   UNL     1       5.300   4.171  18.573  0.00  0.00    +0.000 NA
ATOM     11  C   UNL     1       4.487   3.840  17.556  0.00  0.00    +0.000 A 
ATOM     12  N   UNL     1       4.848   3.903  16.260  0.00  0.00    +0.000 NA
BRANCH   7  18
ATOM     13  F   UNL     1       5.505   2.590  11.431  0.00  0.00    +0.000 F 
ATOM     14  C   UNL     1       6.142   3.420  12.267  0.00  0.00    +0.000 A 
ATOM     15  C   UNL     1       7.108   4.282  11.769  0.00  0.00    +0.000 A 
ATOM     16  C   UNL     1       7.762   5.147  12.641  0.00  0.00    +0.000 A 
ATOM     17  C   UNL     1       7.436   5.139  14.004  0.00  0.00    +0.000 A 
ATOM     18  C   UNL     1       6.459   4.265  14.526  0.00  0.00    +0.000 A 
ATOM     19  C   UNL     1       5.816   3.406  13.621  0.00  0.00    +0.000 A 
ENDBRANCH   7  18
ENDBRANCH   1  11
BRANCH   4  20
ATOM     20  C   UNL     1       2.075   6.213  21.035  0.00  0.00    +0.000 C 
BRANCH  20  21
ATOM     21  C   UNL     1       1.528   7.524  20.521  0.00  0.00    +0.000 A 
ATOM     22  N   UNL     1       1.962   8.111  19.418  0.00  0.00    +0.000 NA
ATOM     23  C   UNL     1       1.351   9.333  19.288  0.00  0.00    +0.000 A 
ATOM     24  C   UNL     1       0.405   9.637  20.241  0.00  0.00    +0.000 A 
ATOM     25  S   UNL     1       0.304   8.382  21.386  0.00  0.00    +0.000 S 
ATOM     26  C   UNL     1      -0.352  10.919  20.301  0.00  0.00    +0.000 C 
ATOM     27  N   UNL     1      -0.215  11.678  19.036  0.00  0.00    +0.000 NA
ATOM     28  C   UNL     1       1.182  11.694  18.555  0.00  0.00    +0.000 C 
ATOM     29  C   UNL     1       1.702  10.283  18.200  0.00  0.00    +0.000 C 
ATOM     30  H   UNL     1      -0.533  12.632  19.193  0.00  0.00    +0.000 HD
ENDBRANCH  20  21
ENDBRANCH   4  20
TORSDOF 4
ENDMDL
MODEL 8
REMARK VINA RESULT:      -7.7      1.969      2.665
REMARK  Name = 
REMARK  4 active torsions:
REMARK  status: ('A' for Active; 'I' for Inactive)
REMARK    1  A    between atoms: C_6  and  C_7
REMARK    2  A    between atoms: C_11  and  C_12
REMARK    3  A    between atoms: N_15  and  C_16
REMARK    4  A    between atoms: C_16  and  C_17
REMARK                            x       y       z     vdW  Elec       q    Type
REMARK                         _______ _______ _______ _____ _____    ______ ____
ROOT
ATOM      1  C   UNL     1       3.320   2.864  17.933  0.00  0.00    +0.000 C 
ATOM      2  C   UNL     1       2.109   3.768  17.665  0.00  0.00    +0.000 C 
ATOM      3  C   UNL     1       1.965   4.867  18.720  0.00  0.00    +0.000 C 
ATOM      4  N   UNL     1       1.882   4.323  20.085  0.00  0.00    +0.000 NA
ATOM      5  C   UNL     1       3.052   3.475  20.390  0.00  0.00    +0.000 C 
ATOM      6  C   UNL     1       3.236   2.346  19.372  0.00  0.00    +0.000 C 
ENDROOT
BRANCH   1  11
ATOM      7  C   UNL     1       6.157   4.304  16.028  0.00  0.00    +0.000 A 
ATOM      8  C   UNL     1       6.968   4.796  17.029  0.00  0.00    +0.000 A 
ATOM      9  C   UNL     1       6.524   4.615  18.319  0.00  0.00    +0.000 A 
ATOM     10  N   UNL     1       5.371   4.000  18.630  0.00  0.00    +0.000 NA
ATOM     11  C   UNL     1       4.631   3.555  17.601  0.00  0.00    +0.000 A 
ATOM     12  N   UNL     1       4.980   3.704  16.309  0.00  0.00    +0.000 NA
BRANCH   7  18
ATOM     13  F   UNL     1       8.770   6.148  12.348  0.00  0.00    +0.000 F 
ATOM     14  C   UNL     1       7.830   5.291  12.767  0.00  0.00    +0.000 A 
ATOM     15  C   UNL     1       7.218   4.448  11.852  0.00  0.00    +0.000 A 
ATOM     16  C   UNL     1       6.247   3.554  12.294  0.00  0.00    +0.000 A 
ATOM     17  C   UNL     1       5.902   3.517  13.651  0.00  0.00    +0.000 A 
ATOM     18  C   UNL     1       6.512   4.372  14.594  0.00  0.00    +0.000 A 
ATOM     19  C   UNL     1       7.490   5.260  14.117  0.00  0.00    +0.000 A 
ENDBRANCH   7  18
ENDBRANCH   1  11
BRANCH   4  20
ATOM     20  C   UNL     1       1.795   5.457  21.049  0.00  0.00    +0.000 C 
BRANCH  20  21
ATOM     21  C   UNL     1       1.725   6.819  20.397  0.00  0.00    +0.000 A 
ATOM     22  N   UNL     1       0.972   7.805  20.855  0.00  0.00    +0.000 NA
ATOM     23  C   UNL     1       1.040   8.864  19.983  0.00  0.00    +0.000 A 
ATOM     24  C   UNL     1       1.898   8.711  18.917  0.00  0.00    +0.000 A 
ATOM     25  S   UNL     1       2.611   7.167  18.956  0.00  0.00    +0.000 S 
ATOM     26  C   UNL     1       2.098   9.724  17.843  0.00  0.00    +0.000 C 
ATOM     27  N   UNL     1       1.530  11.035  18.234  0.00  0.00    +0.000 NA
ATOM     28  C   UNL     1       0.191  10.893  18.842  0.00  0.00    +0.000 C 
ATOM     29  C   UNL     1       0.223  10.093  20.164  0.00  0.00    +0.000 C 
ATOM     30  H   UNL     1       1.469  11.623  17.406  0.00  0.00    +0.000 HD
ENDBRANCH  20  21
ENDBRANCH   4  20
TORSDOF 4
ENDMDL
MODEL 9
REMARK VINA RESULT:      -7.7      3.237      6.258
REMARK  Name = 
REMARK  4 active torsions:
REMARK  status: ('A' for Active; 'I' for Inactive)
REMARK    1  A    between atoms: C_6  and  C_7
REMARK    2  A    between atoms: C_11  and  C_12
REMARK    3  A    between atoms: N_15  and  C_16
REMARK    4  A    between atoms: C_16  and  C_17
REMARK                            x       y       z     vdW  Elec       q    Type
REMARK                         _______ _______ _______ _____ _____    ______ ____
ROOT
ATOM      1  C   UNL     1       0.545  10.687  18.502  0.00  0.00    +0.000 C 
ATOM      2  C   UNL     1       1.456  11.896  18.753  0.00  0.00    +0.000 C 
ATOM      3  C   UNL     1       1.337  12.420  20.186  0.00  0.00    +0.000 C 
ATOM      4  N   UNL     1      -0.050  12.765  20.540  0.00  0.00    +0.000 NA
ATOM      5  C   UNL     1      -0.950  11.611  20.343  0.00  0.00    +0.000 C 
ATOM      6  C   UNL     1      -0.882  11.053  18.920  0.00  0.00    +0.000 C 
ENDROOT
BRANCH   1  11
ATOM      7  C   UNL     1       2.332   7.483  19.045  0.00  0.00    +0.000 A 
ATOM      8  C   UNL     1       2.020   7.188  20.357  0.00  0.00    +0.000 A 
ATOM      9  C   UNL     1       1.208   8.087  21.009  0.00  0.00    +0.000 A 
ATOM     10  N   UNL     1       0.724   9.202  20.438  0.00  0.00    +0.000 NA
ATOM     11  C   UNL     1       1.077   9.427  19.161  0.00  0.00    +0.000 A 
ATOM     12  N   UNL     1       1.881   8.610  18.454  0.00  0.00    +0.000 NA
BRANCH   7  18
ATOM     13  F   UNL     1       3.404   3.091  17.220  0.00  0.00    +0.000 F 
ATOM     14  C   UNL     1       3.670   4.403  17.277  0.00  0.00    +0.000 A 
ATOM     15  C   UNL     1       4.695   4.926  16.504  0.00  0.00    +0.000 A 
ATOM     16  C   UNL     1       4.962   6.290  16.562  0.00  0.00    +0.000 A 
ATOM     17  C   UNL     1       4.195   7.114  17.395  0.00  0.00    +0.000 A 
ATOM     18  C   UNL     1       3.151   6.597  18.191  0.00  0.00    +0.000 A 
ATOM     19  C   UNL     1       2.904   5.217  18.108  0.00  0.00    +0.000 A 
ENDBRANCH   7  18
ENDBRANCH   1  11
BRANCH   4  20
ATOM     20  C   UNL     1      -0.084  13.217  21.961  0.00  0.00    +0.000 C 
BRANCH  20  21
ATOM     21  C   UNL     1      -1.474  13.469  22.496  0.00  0.00    +0.000 A 
ATOM     22  N   UNL     1      -2.042  12.719  23.425  0.00  0.00    +0.000 NA
ATOM     23  C   UNL     1      -3.337  13.135  23.610  0.00  0.00    +0.000 A 
ATOM     24  C   UNL     1      -3.722  14.242  22.886  0.00  0.00    +0.000 A 
ATOM     25  S   UNL     1      -2.447  14.759  21.885  0.00  0.00    +0.000 S 
ATOM     26  C   UNL     1      -5.087  14.838  22.918  0.00  0.00    +0.000 C 
ATOM     27  N   UNL     1      -5.871  14.315  24.060  0.00  0.00    +0.000 NA
ATOM     28  C   UNL     1      -5.727  12.851  24.199  0.00  0.00    +0.000 C 
ATOM     29  C   UNL     1      -4.276  12.426  24.518  0.00  0.00    +0.000 C 
ATOM     30  H   UNL     1      -6.851  14.550  23.917  0.00  0.00    +0.000 HD
ENDBRANCH  20  21
ENDBRANCH   4  20
TORSDOF 4
ENDMDL
