MODEL 1
REMARK VINA RESULT:      -9.0      0.000      0.000
REMARK  Name = 
REMARK  5 active torsions:
REMARK  status: ('A' for Active; 'I' for Inactive)
REMARK    1  A    between atoms: C_1  and  N_2
REMARK    2  A    between atoms: C_6  and  C_7
REMARK    3  A    between atoms: C_8  and  C_9
REMARK    4  A    between atoms: C_13  and  N_14
REMARK    5  A    between atoms: C_21  and  C_22
REMARK                            x       y       z     vdW  Elec       q    Type
REMARK                         _______ _______ _______ _____ _____    ______ ____
ROOT
ATOM      1  C   UNL     1       2.156   7.544  19.517  0.00  0.00    +0.000 A 
ATOM      2  C   UNL     1       2.593   8.262  18.398  0.00  0.00    +0.000 A 
ATOM      3  C   UNL     1       3.192   7.597  17.331  0.00  0.00    +0.000 A 
ATOM      4  C   UNL     1       3.452   6.233  17.424  0.00  0.00    +0.000 A 
ATOM      5  C   UNL     1       3.234   5.568  18.643  0.00  0.00    +0.000 A 
ATOM      6  C   UNL     1       2.446   6.183  19.622  0.00  0.00    +0.000 A 
ENDROOT
BRANCH   5   7
ATOM      7  N   UNL     1       4.182   4.546  19.083  0.00  0.00    +0.000 N 
ATOM      8  C   UNL     1       5.525   5.153  19.258  0.00  0.00    +0.000 C 
ATOM      9  C   UNL     1       6.114   4.996  17.888  0.00  0.00    +0.000 A 
ATOM     10  C   UNL     1       5.523   3.864  17.316  0.00  0.00    +0.000 A 
ATOM     11  C   UNL     1       5.692   3.514  15.988  0.00  0.00    +0.000 A 
ATOM     12  C   UNL     1       6.471   4.360  15.203  0.00  0.00    +0.000 A 
ATOM     13  C   UNL     1       7.052   5.519  15.757  0.00  0.00    +0.000 A 
ATOM     14  C   UNL     1       6.884   5.861  17.117  0.00  0.00    +0.000 A 
ATOM     15  C   UNL     1       4.383   3.475  18.178  0.00  0.00    +0.000 C 
ATOM     16  O   UNL     1       3.661   2.511  17.964  0.00  0.00    +0.000 OA
BRANCH  14  17
ATOM     17  C   UNL     1       7.423   7.176  17.617  0.00  0.00    +0.000 C 
ATOM     18  F   UNL     1       8.147   7.090  18.767  0.00  0.00    +0.000 F 
ATOM     19  F   UNL     1       8.247   7.774  16.713  0.00  0.00    +0.000 F 
ATOM     20  F   UNL     1       6.438   8.081  17.877  0.00  0.00    +0.000 F 
ENDBRANCH  14  17
ENDBRANCH   5   7
BRANCH   1  22
ATOM     21  C   UNL     1       0.811   9.376  20.442  0.00  0.00    +0.000 C 
ATOM     22  C   UNL     1       1.503   8.240  20.621  0.00  0.00    +0.000 C 
BRANCH  21  28
ATOM     23  C   UNL     1      -1.231  11.591  20.194  0.00  0.00    +0.000 C 
ATOM     24  N   UNL     1      -0.740  10.996  21.407  0.00  0.00    +0.000 N 
ATOM     25  C   UNL     1      -1.125  11.351  22.668  0.00  0.00    +0.000 A 
ATOM     26  N   UNL     1      -0.485  10.615  23.546  0.00  0.00    +0.000 NA
ATOM     27  N   UNL     1       0.334   9.764  22.849  0.00  0.00    +0.000 NA
ATOM     28  C   UNL     1       0.179   9.986  21.557  0.00  0.00    +0.000 A 
ENDBRANCH  21  28
ENDBRANCH   1  22
TORSDOF 4
ENDMDL
MODEL 2
REMARK VINA RESULT:      -8.9      4.384      6.415
REMARK  Name = 
REMARK  5 active torsions:
REMARK  status: ('A' for Active; 'I' for Inactive)
REMARK    1  A    between atoms: C_1  and  N_2
REMARK    2  A    between atoms: C_6  and  C_7
REMARK    3  A    between atoms: C_8  and  C_9
REMARK    4  A    between atoms: C_13  and  N_14
REMARK    5  A    between atoms: C_21  and  C_22
REMARK                            x       y       z     vdW  Elec       q    Type
REMARK                         _______ _______ _______ _____ _____    ______ ____
ROOT
ATOM      1  C   UNL     1       7.823   7.642  17.809  0.00  0.00    +0.000 A 
ATOM      2  C   UNL     1       7.848   6.836  18.954  0.00  0.00    +0.000 A 
ATOM      3  C   UNL     1       7.702   5.456  18.839  0.00  0.00    +0.000 A 
ATOM      4  C   UNL     1       7.423   4.890  17.599  0.00  0.00    +0.000 A 
ATOM      5  C   UNL     1       7.156   5.725  16.500  0.00  0.00    +0.000 A 
ATOM      6  C   UNL     1       7.511   7.077  16.572  0.00  0.00    +0.000 A 
ENDROOT
BRANCH   5   7
ATOM      7  N   UNL     1       6.110   5.352  15.551  0.00  0.00    +0.000 N 
ATOM      8  C   UNL     1       4.922   6.219  15.750  0.00  0.00    +0.000 C 
ATOM      9  C   UNL     1       4.150   5.452  16.780  0.00  0.00    +0.000 A 
ATOM     10  C   UNL     1       4.463   4.100  16.605  0.00  0.00    +0.000 A 
ATOM     11  C   UNL     1       4.074   3.112  17.492  0.00  0.00    +0.000 A 
ATOM     12  C   UNL     1       3.360   3.517  18.617  0.00  0.00    +0.000 A 
ATOM     13  C   UNL     1       3.059   4.878  18.824  0.00  0.00    +0.000 A 
ATOM     14  C   UNL     1       3.450   5.877  17.905  0.00  0.00    +0.000 A 
ATOM     15  C   UNL     1       5.619   4.029  15.679  0.00  0.00    +0.000 C 
ATOM     16  O   UNL     1       6.133   2.985  15.306  0.00  0.00    +0.000 OA
BRANCH  14  17
ATOM     17  C   UNL     1       3.210   7.325  18.246  0.00  0.00    +0.000 C 
ATOM     18  F   UNL     1       2.834   7.547  19.537  0.00  0.00    +0.000 F 
ATOM     19  F   UNL     1       4.318   8.092  18.053  0.00  0.00    +0.000 F 
ATOM     20  F   UNL     1       2.231   7.887  17.483  0.00  0.00    +0.000 F 
ENDBRANCH  14  17
ENDBRANCH   5   7
BRANCH   1  22
ATOM     21  C   UNL     1       8.974   9.623  18.687  0.00  0.00    +0.000 C 
ATOM     22  C   UNL     1       8.005   9.085  17.930  0.00  0.00    +0.000 C 
BRANCH  21  28
ATOM     23  C   UNL     1       9.234  11.182  21.265  0.00  0.00    +0.000 C 
ATOM     24  N   UNL     1       9.219  11.713  19.928  0.00  0.00    +0.000 N 
ATOM     25  C   UNL     1       9.317  13.035  19.606  0.00  0.00    +0.000 A 
ATOM     26  N   UNL     1       9.268  13.176  18.302  0.00  0.00    +0.000 NA
ATOM     27  N   UNL     1       9.135  11.923  17.760  0.00  0.00    +0.000 NA
ATOM     28  C   UNL     1       9.110  11.035  18.738  0.00  0.00    +0.000 A 
ENDBRANCH  21  28
ENDBRANCH   1  22
TORSDOF 4
ENDMDL
MODEL 3
REMARK VINA RESULT:      -8.6      2.056      2.934
REMARK  Name = 
REMARK  5 active torsions:
REMARK  status: ('A' for Active; 'I' for Inactive)
REMARK    1  A    between atoms: C_1  and  N_2
REMARK    2  A    between atoms: C_6  and  C_7
REMARK    3  A    between atoms: C_8  and  C_9
REMARK    4  A    between atoms: C_13  and  N_14
REMARK    5  A    between atoms: C_21  and  C_22
REMARK                            x       y       z     vdW  Elec       q    Type
REMARK                         _______ _______ _______ _____ _____    ______ ____
ROOT
ATOM      1  C   UNL     1       1.488   8.960  19.608  0.00  0.00    +0.000 A 
ATOM      2  C   UNL     1       1.962   9.249  18.323  0.00  0.00    +0.000 A 
ATOM      3  C   UNL     1       2.494   8.235  17.530  0.00  0.00    +0.000 A 
ATOM      4  C   UNL     1       2.652   6.956  18.056  0.00  0.00    +0.000 A 
ATOM      5  C   UNL     1       2.403   6.733  19.421  0.00  0.00    +0.000 A 
ATOM      6  C   UNL     1       1.677   7.685  20.144  0.00  0.00    +0.000 A 
ENDROOT
BRANCH   5   7
ATOM      7  N   UNL     1       3.277   5.837  20.174  0.00  0.00    +0.000 N 
ATOM      8  C   UNL     1       4.458   5.481  19.348  0.00  0.00    +0.000 C 
ATOM      9  C   UNL     1       3.969   4.264  18.621  0.00  0.00    +0.000 A 
ATOM     10  C   UNL     1       3.021   3.647  19.446  0.00  0.00    +0.000 A 
ATOM     11  C   UNL     1       2.227   2.595  19.027  0.00  0.00    +0.000 A 
ATOM     12  C   UNL     1       2.382   2.167  17.712  0.00  0.00    +0.000 A 
ATOM     13  C   UNL     1       3.313   2.794  16.859  0.00  0.00    +0.000 A 
ATOM     14  C   UNL     1       4.129   3.860  17.300  0.00  0.00    +0.000 A 
ATOM     15  C   UNL     1       2.703   4.595  20.540  0.00  0.00    +0.000 C 
ATOM     16  O   UNL     1       1.915   4.355  21.444  0.00  0.00    +0.000 OA
BRANCH  14  17
ATOM     17  C   UNL     1       5.011   4.570  16.306  0.00  0.00    +0.000 C 
ATOM     18  F   UNL     1       4.688   5.877  16.096  0.00  0.00    +0.000 F 
ATOM     19  F   UNL     1       6.318   4.577  16.687  0.00  0.00    +0.000 F 
ATOM     20  F   UNL     1       4.986   3.990  15.074  0.00  0.00    +0.000 F 
ENDBRANCH  14  17
ENDBRANCH   5   7
BRANCH   1  22
ATOM     21  C   UNL     1      -0.304   9.899  20.996  0.00  0.00    +0.000 C 
ATOM     22  C   UNL     1       0.904  10.019  20.425  0.00  0.00    +0.000 C 
BRANCH  21  28
ATOM     23  C   UNL     1      -2.036  12.136  19.928  0.00  0.00    +0.000 C 
ATOM     24  N   UNL     1      -1.578  11.964  21.280  0.00  0.00    +0.000 N 
ATOM     25  C   UNL     1      -1.856  12.806  22.317  0.00  0.00    +0.000 A 
ATOM     26  N   UNL     1      -1.285  12.361  23.412  0.00  0.00    +0.000 NA
ATOM     27  N   UNL     1      -0.620  11.206  23.086  0.00  0.00    +0.000 NA
ATOM     28  C   UNL     1      -0.799  10.959  21.801  0.00  0.00    +0.000 A 
ENDBRANCH  21  28
ENDBRANCH   1  22
TORSDOF 4
ENDMDL
MODEL 4
REMARK VINA RESULT:      -8.5      6.755      9.799
REMARK  Name = 
REMARK  5 active torsions:
REMARK  status: ('A' for Active; 'I' for Inactive)
REMARK    1  A    between atoms: C_1  and  N_2
REMARK    2  A    between atoms: C_6  and  C_7
REMARK    3  A    between atoms: C_8  and  C_9
REMARK    4  A    between atoms: C_13  and  N_14
REMARK    5  A    between atoms: C_21  and  C_22
REMARK                            x       y       z     vdW  Elec       q    Type
REMARK                         _______ _______ _______ _____ _____    ______ ____
ROOT
ATOM      1  C   UNL     1       8.980  10.436  18.212  0.00  0.00    +0.000 A 
ATOM      2  C   UNL     1       8.026  11.343  17.734  0.00  0.00    +0.000 A 
ATOM      3  C   UNL     1       8.404  12.640  17.395  0.00  0.00    +0.000 A 
ATOM      4  C   UNL     1       9.707  13.066  17.632  0.00  0.00    +0.000 A 
ATOM      5  C   UNL     1      10.591  12.231  18.336  0.00  0.00    +0.000 A 
ATOM      6  C   UNL     1      10.278  10.875  18.479  0.00  0.00    +0.000 A 
ENDROOT
BRANCH   5   7
ATOM      7  N   UNL     1      11.512  12.817  19.308  0.00  0.00    +0.000 N 
ATOM      8  C   UNL     1      11.117  12.409  20.679  0.00  0.00    +0.000 C 
ATOM      9  C   UNL     1      10.154  13.494  21.057  0.00  0.00    +0.000 A 
ATOM     10  C   UNL     1      10.536  14.644  20.356  0.00  0.00    +0.000 A 
ATOM     11  C   UNL     1       9.770  15.795  20.319  0.00  0.00    +0.000 A 
ATOM     12  C   UNL     1       8.556  15.771  20.999  0.00  0.00    +0.000 A 
ATOM     13  C   UNL     1       8.142  14.612  21.688  0.00  0.00    +0.000 A 
ATOM     14  C   UNL     1       8.938  13.446  21.731  0.00  0.00    +0.000 A 
ATOM     15  C   UNL     1      11.537  14.233  19.343  0.00  0.00    +0.000 C 
ATOM     16  O   UNL     1      12.084  15.006  18.570  0.00  0.00    +0.000 OA
BRANCH  14  17
ATOM     17  C   UNL     1       8.384  12.201  22.375  0.00  0.00    +0.000 C 
ATOM     18  F   UNL     1       8.949  11.886  23.574  0.00  0.00    +0.000 F 
ATOM     19  F   UNL     1       7.048  12.295  22.616  0.00  0.00    +0.000 F 
ATOM     20  F   UNL     1       8.545  11.094  21.598  0.00  0.00    +0.000 F 
ENDBRANCH  14  17
ENDBRANCH   5   7
BRANCH   1  22
ATOM     21  C   UNL     1       7.860   8.313  17.702  0.00  0.00    +0.000 C 
ATOM     22  C   UNL     1       8.587   9.069  18.539  0.00  0.00    +0.000 C 
BRANCH  21  28
ATOM     23  C   UNL     1       5.549   6.767  16.516  0.00  0.00    +0.000 C 
ATOM     24  N   UNL     1       6.473   6.311  17.519  0.00  0.00    +0.000 N 
ATOM     25  C   UNL     1       6.448   5.082  18.111  0.00  0.00    +0.000 A 
ATOM     26  N   UNL     1       7.426   4.992  18.981  0.00  0.00    +0.000 NA
ATOM     27  N   UNL     1       8.104   6.184  18.960  0.00  0.00    +0.000 NA
ATOM     28  C   UNL     1       7.536   6.982  18.074  0.00  0.00    +0.000 A 
ENDBRANCH  21  28
ENDBRANCH   1  22
TORSDOF 4
ENDMDL
MODEL 5
REMARK VINA RESULT:      -8.4      1.861      3.032
REMARK  Name = 
REMARK  5 active torsions:
REMARK  status: ('A' for Active; 'I' for Inactive)
REMARK    1  A    between atoms: C_1  and  N_2
REMARK    2  A    between atoms: C_6  and  C_7
REMARK    3  A    between atoms: C_8  and  C_9
REMARK    4  A    between atoms: C_13  and  N_14
REMARK    5  A    between atoms: C_21  and  C_22
REMARK                            x       y       z     vdW  Elec       q    Type
REMARK                         _______ _______ _______ _____ _____    ______ ____
ROOT
ATOM      1  C   UNL     1       2.183   4.969  20.735  0.00  0.00    +0.000 A 
ATOM      2  C   UNL     1       1.679   3.894  21.477  0.00  0.00    +0.000 A 
ATOM      3  C   UNL     1       2.317   2.657  21.434  0.00  0.00    +0.000 A 
ATOM      4  C   UNL     1       3.392   2.461  20.573  0.00  0.00    +0.000 A 
ATOM      5  C   UNL     1       3.737   3.468  19.656  0.00  0.00    +0.000 A 
ATOM      6  C   UNL     1       3.241   4.762  19.848  0.00  0.00    +0.000 A 
ENDROOT
BRANCH   5   7
ATOM      7  N   UNL     1       4.148   3.097  18.303  0.00  0.00    +0.000 N 
ATOM      8  C   UNL     1       5.599   3.359  18.134  0.00  0.00    +0.000 C 
ATOM      9  C   UNL     1       5.602   4.781  17.659  0.00  0.00    +0.000 A 
ATOM     10  C   UNL     1       4.396   4.988  16.980  0.00  0.00    +0.000 A 
ATOM     11  C   UNL     1       3.971   6.236  16.559  0.00  0.00    +0.000 A 
ATOM     12  C   UNL     1       4.791   7.320  16.860  0.00  0.00    +0.000 A 
ATOM     13  C   UNL     1       5.996   7.133  17.567  0.00  0.00    +0.000 A 
ATOM     14  C   UNL     1       6.427   5.853  17.981  0.00  0.00    +0.000 A 
ATOM     15  C   UNL     1       3.524   3.823  17.259  0.00  0.00    +0.000 C 
ATOM     16  O   UNL     1       2.399   3.685  16.801  0.00  0.00    +0.000 OA
BRANCH  14  17
ATOM     17  C   UNL     1       7.659   5.735  18.842  0.00  0.00    +0.000 C 
ATOM     18  F   UNL     1       7.405   5.525  20.165  0.00  0.00    +0.000 F 
ATOM     19  F   UNL     1       8.461   4.704  18.458  0.00  0.00    +0.000 F 
ATOM     20  F   UNL     1       8.439   6.850  18.796  0.00  0.00    +0.000 F 
ENDBRANCH  14  17
ENDBRANCH   5   7
BRANCH   1  22
ATOM     21  C   UNL     1       2.005   7.347  20.155  0.00  0.00    +0.000 C 
ATOM     22  C   UNL     1       1.529   6.272  20.803  0.00  0.00    +0.000 C 
BRANCH  21  28
ATOM     23  C   UNL     1       1.765   9.299  17.859  0.00  0.00    +0.000 C 
ATOM     24  N   UNL     1       1.220   9.445  19.182  0.00  0.00    +0.000 N 
ATOM     25  C   UNL     1       0.497  10.516  19.620  0.00  0.00    +0.000 A 
ATOM     26  N   UNL     1       0.155  10.332  20.874  0.00  0.00    +0.000 NA
ATOM     27  N   UNL     1       0.663   9.120  21.264  0.00  0.00    +0.000 NA
ATOM     28  C   UNL     1       1.303   8.577  20.244  0.00  0.00    +0.000 A 
ENDBRANCH  21  28
ENDBRANCH   1  22
TORSDOF 4
ENDMDL
MODEL 6
REMARK VINA RESULT:      -8.2      2.069      3.077
REMARK  Name = 
REMARK  5 active torsions:
REMARK  status: ('A' for Active; 'I' for Inactive)
REMARK    1  A    between atoms: C_1  and  N_2
REMARK    2  A    between atoms: C_6  and  C_7
REMARK    3  A    between atoms: C_8  and  C_9
REMARK    4  A    between atoms: C_13  and  N_14
REMARK    5  A    between atoms: C_21  and  C_22
REMARK                            x       y       z     vdW  Elec       q    Type
REMARK                         _______ _______ _______ _____ _____    ______ ____
ROOT
ATOM      1  C   UNL     1       1.616   8.843  19.359  0.00  0.00    +0.000 A 
ATOM      2  C   UNL     1       2.184   9.103  18.106  0.00  0.00    +0.000 A 
ATOM      3  C   UNL     1       2.780   8.073  17.383  0.00  0.00    +0.000 A 
ATOM      4  C   UNL     1       2.907   6.810  17.953  0.00  0.00    +0.000 A 
ATOM      5  C   UNL     1       2.556   6.620  19.301  0.00  0.00    +0.000 A 
ATOM      6  C   UNL     1       1.772   7.585  19.942  0.00  0.00    +0.000 A 
ENDROOT
BRANCH   5   7
ATOM      7  N   UNL     1       3.378   5.751  20.141  0.00  0.00    +0.000 N 
ATOM      8  C   UNL     1       4.591   5.336  19.394  0.00  0.00    +0.000 C 
ATOM      9  C   UNL     1       4.119   4.091  18.706  0.00  0.00    +0.000 A 
ATOM     10  C   UNL     1       3.121   3.531  19.512  0.00  0.00    +0.000 A 
ATOM     11  C   UNL     1       2.330   2.470  19.108  0.00  0.00    +0.000 A 
ATOM     12  C   UNL     1       2.543   1.974  17.825  0.00  0.00    +0.000 A 
ATOM     13  C   UNL     1       3.525   2.543  16.989  0.00  0.00    +0.000 A 
ATOM     14  C   UNL     1       4.336   3.618  17.416  0.00  0.00    +0.000 A 
ATOM     15  C   UNL     1       2.765   4.538  20.540  0.00  0.00    +0.000 C 
ATOM     16  O   UNL     1       1.929   4.356  21.414  0.00  0.00    +0.000 OA
BRANCH  14  17
ATOM     17  C   UNL     1       5.279   4.264  16.434  0.00  0.00    +0.000 C 
ATOM     18  F   UNL     1       5.530   3.521  15.319  0.00  0.00    +0.000 F 
ATOM     19  F   UNL     1       4.810   5.457  15.976  0.00  0.00    +0.000 F 
ATOM     20  F   UNL     1       6.501   4.527  16.975  0.00  0.00    +0.000 F 
ENDBRANCH  14  17
ENDBRANCH   5   7
BRANCH   1  22
ATOM     21  C   UNL     1      -0.364   9.971  20.270  0.00  0.00    +0.000 C 
ATOM     22  C   UNL     1       0.966   9.919  20.102  0.00  0.00    +0.000 C 
BRANCH  21  28
ATOM     23  C   UNL     1      -0.564   9.943  23.286  0.00  0.00    +0.000 C 
ATOM     24  N   UNL     1      -1.009  10.983  22.397  0.00  0.00    +0.000 N 
ATOM     25  C   UNL     1      -1.610  12.145  22.785  0.00  0.00    +0.000 A 
ATOM     26  N   UNL     1      -1.890  12.870  21.728  0.00  0.00    +0.000 NA
ATOM     27  N   UNL     1      -1.465  12.170  20.627  0.00  0.00    +0.000 NA
ATOM     28  C   UNL     1      -0.927  11.032  21.026  0.00  0.00    +0.000 A 
ENDBRANCH  21  28
ENDBRANCH   1  22
TORSDOF 4
ENDMDL
MODEL 7
REMARK VINA RESULT:      -8.2      1.701      2.681
REMARK  Name = 
REMARK  5 active torsions:
REMARK  status: ('A' for Active; 'I' for Inactive)
REMARK    1  A    between atoms: C_1  and  N_2
REMARK    2  A    between atoms: C_6  and  C_7
REMARK    3  A    between atoms: C_8  and  C_9
REMARK    4  A    between atoms: C_13  and  N_14
REMARK    5  A    between atoms: C_21  and  C_22
REMARK                            x       y       z     vdW  Elec       q    Type
REMARK                         _______ _______ _______ _____ _____    ______ ____
ROOT
ATOM      1  C   UNL     1       2.304   5.751  20.273  0.00  0.00    +0.000 A 
ATOM      2  C   UNL     1       1.418   4.925  20.976  0.00  0.00    +0.000 A 
ATOM      3  C   UNL     1       1.715   3.576  21.155  0.00  0.00    +0.000 A 
ATOM      4  C   UNL     1       2.839   3.027  20.545  0.00  0.00    +0.000 A 
ATOM      5  C   UNL     1       3.587   3.804  19.643  0.00  0.00    +0.000 A 
ATOM      6  C   UNL     1       3.413   5.192  19.635  0.00  0.00    +0.000 A 
ENDROOT
BRANCH   5   7
ATOM      7  N   UNL     1       4.122   3.184  18.433  0.00  0.00    +0.000 N 
ATOM      8  C   UNL     1       5.595   3.359  18.392  0.00  0.00    +0.000 C 
ATOM      9  C   UNL     1       5.730   4.672  17.683  0.00  0.00    +0.000 A 
ATOM     10  C   UNL     1       4.618   4.799  16.842  0.00  0.00    +0.000 A 
ATOM     11  C   UNL     1       4.313   5.966  16.164  0.00  0.00    +0.000 A 
ATOM     12  C   UNL     1       5.155   7.056  16.368  0.00  0.00    +0.000 A 
ATOM     13  C   UNL     1       6.264   6.954  17.233  0.00  0.00    +0.000 A 
ATOM     14  C   UNL     1       6.574   5.754  17.910  0.00  0.00    +0.000 A 
ATOM     15  C   UNL     1       3.657   3.734  17.213  0.00  0.00    +0.000 C 
ATOM     16  O   UNL     1       2.582   3.558  16.657  0.00  0.00    +0.000 OA
BRANCH  14  17
ATOM     17  C   UNL     1       7.695   5.746  18.916  0.00  0.00    +0.000 C 
ATOM     18  F   UNL     1       7.292   5.612  20.211  0.00  0.00    +0.000 F 
ATOM     19  F   UNL     1       8.575   4.730  18.702  0.00  0.00    +0.000 F 
ATOM     20  F   UNL     1       8.435   6.890  18.886  0.00  0.00    +0.000 F 
ENDBRANCH  14  17
ENDBRANCH   5   7
BRANCH   1  22
ATOM     21  C   UNL     1       1.136   7.814  20.906  0.00  0.00    +0.000 C 
ATOM     22  C   UNL     1       2.004   7.170  20.111  0.00  0.00    +0.000 C 
BRANCH  21  28
ATOM     23  C   UNL     1       0.011   9.641  23.037  0.00  0.00    +0.000 C 
ATOM     24  N   UNL     1       0.392  10.001  21.698  0.00  0.00    +0.000 N 
ATOM     25  C   UNL     1       0.298  11.254  21.164  0.00  0.00    +0.000 A 
ATOM     26  N   UNL     1       0.726  11.237  19.924  0.00  0.00    +0.000 NA
ATOM     27  N   UNL     1       1.107   9.951  19.639  0.00  0.00    +0.000 NA
ATOM     28  C   UNL     1       0.912   9.201  20.709  0.00  0.00    +0.000 A 
ENDBRANCH  21  28
ENDBRANCH   1  22
TORSDOF 4
ENDMDL
MODEL 8
REMARK VINA RESULT:      -8.2      2.155      3.116
REMARK  Name = 
REMARK  5 active torsions:
REMARK  status: ('A' for Active; 'I' for Inactive)
REMARK    1  A    between atoms: C_1  and  N_2
REMARK    2  A    between atoms: C_6  and  C_7
REMARK    3  A    between atoms: C_8  and  C_9
REMARK    4  A    between atoms: C_13  and  N_14
REMARK    5  A    between atoms: C_21  and  C_22
REMARK                            x       y       z     vdW  Elec       q    Type
REMARK                         _______ _______ _______ _____ _____    ______ ____
ROOT
ATOM      1  C   UNL     1       1.514   8.776  19.213  0.00  0.00    +0.000 A 
ATOM      2  C   UNL     1       2.217   9.149  18.061  0.00  0.00    +0.000 A 
ATOM      3  C   UNL     1       2.988   8.211  17.380  0.00  0.00    +0.000 A 
ATOM      4  C   UNL     1       3.146   6.931  17.905  0.00  0.00    +0.000 A 
ATOM      5  C   UNL     1       2.640   6.640  19.183  0.00  0.00    +0.000 A 
ATOM      6  C   UNL     1       1.699   7.504  19.755  0.00  0.00    +0.000 A 
ENDROOT
BRANCH   5   7
ATOM      7  N   UNL     1       3.415   5.793  20.087  0.00  0.00    +0.000 N 
ATOM      8  C   UNL     1       4.645   5.326  19.401  0.00  0.00    +0.000 C 
ATOM      9  C   UNL     1       4.173   4.061  18.749  0.00  0.00    +0.000 A 
ATOM     10  C   UNL     1       3.137   3.553  19.542  0.00  0.00    +0.000 A 
ATOM     11  C   UNL     1       2.341   2.491  19.154  0.00  0.00    +0.000 A 
ATOM     12  C   UNL     1       2.588   1.937  17.901  0.00  0.00    +0.000 A 
ATOM     13  C   UNL     1       3.610   2.453  17.078  0.00  0.00    +0.000 A 
ATOM     14  C   UNL     1       4.426   3.531  17.488  0.00  0.00    +0.000 A 
ATOM     15  C   UNL     1       2.765   4.608  20.514  0.00  0.00    +0.000 C 
ATOM     16  O   UNL     1       1.897   4.479  21.365  0.00  0.00    +0.000 OA
BRANCH  14  17
ATOM     17  C   UNL     1       5.414   4.118  16.514  0.00  0.00    +0.000 C 
ATOM     18  F   UNL     1       5.808   3.266  15.526  0.00  0.00    +0.000 F 
ATOM     19  F   UNL     1       4.919   5.213  15.873  0.00  0.00    +0.000 F 
ATOM     20  F   UNL     1       6.564   4.528  17.117  0.00  0.00    +0.000 F 
ENDBRANCH  14  17
ENDBRANCH   5   7
BRANCH   1  22
ATOM     21  C   UNL     1      -0.338  10.383  19.307  0.00  0.00    +0.000 C 
ATOM     22  C   UNL     1       0.684   9.755  19.909  0.00  0.00    +0.000 C 
BRANCH  21  28
ATOM     23  C   UNL     1      -2.897  11.615  18.271  0.00  0.00    +0.000 C 
ATOM     24  N   UNL     1      -2.276  11.850  19.547  0.00  0.00    +0.000 N 
ATOM     25  C   UNL     1      -2.753  12.691  20.510  0.00  0.00    +0.000 A 
ATOM     26  N   UNL     1      -1.948  12.675  21.546  0.00  0.00    +0.000 NA
ATOM     27  N   UNL     1      -0.924  11.809  21.256  0.00  0.00    +0.000 NA
ATOM     28  C   UNL     1      -1.121  11.304  20.052  0.00  0.00    +0.000 A 
ENDBRANCH  21  28
ENDBRANCH   1  22
TORSDOF 4
ENDMDL
MODEL 9
REMARK VINA RESULT:      -8.0      2.172      3.078
REMARK  Name = 
REMARK  5 active torsions:
REMARK  status: ('A' for Active; 'I' for Inactive)
REMARK    1  A    between atoms: C_1  and  N_2
REMARK    2  A    between atoms: C_6  and  C_7
REMARK    3  A    between atoms: C_8  and  C_9
REMARK    4  A    between atoms: C_13  and  N_14
REMARK    5  A    between atoms: C_21  and  C_22
REMARK                            x       y       z     vdW  Elec       q    Type
REMARK                         _______ _______ _______ _____ _____    ______ ____
ROOT
ATOM      1  C   UNL     1       1.572   8.831  19.262  0.00  0.00    +0.000 A 
ATOM      2  C   UNL     1       2.223   9.127  18.059  0.00  0.00    +0.000 A 
ATOM      3  C   UNL     1       2.904   8.127  17.369  0.00  0.00    +0.000 A 
ATOM      4  C   UNL     1       3.027   6.859  17.930  0.00  0.00    +0.000 A 
ATOM      5  C   UNL     1       2.582   6.638  19.244  0.00  0.00    +0.000 A 
ATOM      6  C   UNL     1       1.722   7.568  19.838  0.00  0.00    +0.000 A 
ENDROOT
BRANCH   5   7
ATOM      7  N   UNL     1       3.364   5.780  20.132  0.00  0.00    +0.000 N 
ATOM      8  C   UNL     1       4.598   5.335  19.438  0.00  0.00    +0.000 C 
ATOM      9  C   UNL     1       4.136   4.079  18.763  0.00  0.00    +0.000 A 
ATOM     10  C   UNL     1       3.105   3.549  19.547  0.00  0.00    +0.000 A 
ATOM     11  C   UNL     1       2.317   2.487  19.140  0.00  0.00    +0.000 A 
ATOM     12  C   UNL     1       2.568   1.958  17.877  0.00  0.00    +0.000 A 
ATOM     13  C   UNL     1       3.585   2.498  17.063  0.00  0.00    +0.000 A 
ATOM     14  C   UNL     1       4.392   3.574  17.493  0.00  0.00    +0.000 A 
ATOM     15  C   UNL     1       2.724   4.583  20.538  0.00  0.00    +0.000 C 
ATOM     16  O   UNL     1       1.858   4.431  21.387  0.00  0.00    +0.000 OA
BRANCH  14  17
ATOM     17  C   UNL     1       5.375   4.187  16.529  0.00  0.00    +0.000 C 
ATOM     18  F   UNL     1       6.532   4.622  17.102  0.00  0.00    +0.000 F 
ATOM     19  F   UNL     1       5.757   3.315  15.556  0.00  0.00    +0.000 F 
ATOM     20  F   UNL     1       4.865   5.269  15.878  0.00  0.00    +0.000 F 
ENDBRANCH  14  17
ENDBRANCH   5   7
BRANCH   1  22
ATOM     21  C   UNL     1      -0.063  10.659  19.352  0.00  0.00    +0.000 C 
ATOM     22  C   UNL     1       0.835   9.874  19.968  0.00  0.00    +0.000 C 
BRANCH  21  28
ATOM     23  C   UNL     1      -0.415  13.523  18.450  0.00  0.00    +0.000 C 
ATOM     24  N   UNL     1      -0.897  12.932  19.669  0.00  0.00    +0.000 N 
ATOM     25  C   UNL     1      -1.603  13.589  20.636  0.00  0.00    +0.000 A 
ATOM     26  N   UNL     1      -1.885  12.761  21.613  0.00  0.00    +0.000 NA
ATOM     27  N   UNL     1      -1.356  11.539  21.283  0.00  0.00    +0.000 NA
ATOM     28  C   UNL     1      -0.763  11.636  20.106  0.00  0.00    +0.000 A 
ENDBRANCH  21  28
ENDBRANCH   1  22
TORSDOF 4
ENDMDL
