MODEL 1
REMARK VINA RESULT:      -9.1      0.000      0.000
REMARK  Name = 
REMARK  4 active torsions:
REMARK  status: ('A' for Active; 'I' for Inactive)
REMARK    1  A    between atoms: C_2  and  C_20
REMARK    2  A    between atoms: N_10  and  C_11
REMARK    3  A    between atoms: C_11  and  C_12
REMARK    4  A    between atoms: C_24  and  N_25
REMARK                            x       y       z     vdW  Elec       q    Type
REMARK                         _______ _______ _______ _____ _____    ______ ____
ROOT
ATOM      1  O   UNL     1       2.937   8.631  17.454  0.00  0.00    +0.000 OA
ATOM      2  C   UNL     1       2.729   7.668  18.187  0.00  0.00    +0.000 C 
ATOM      3  N   UNL     1       1.970   7.643  19.340  0.00  0.00    +0.000 N 
ATOM      4  C   UNL     1       1.343   8.787  19.764  0.00  0.00    +0.000 A 
ATOM      5  N   UNL     1       1.153   9.891  19.084  0.00  0.00    +0.000 NA
ATOM      6  C   UNL     1       0.580  10.829  19.899  0.00  0.00    +0.000 A 
ATOM      7  C   UNL     1       0.322  10.421  21.193  0.00  0.00    +0.000 A 
ATOM      8  S   UNL     1       0.770   8.784  21.381  0.00  0.00    +0.000 S 
ATOM      9  C   UNL     1      -0.225  11.322  22.259  0.00  0.00    +0.000 C 
ATOM     10  N   UNL     1      -0.859  12.552  21.689  0.00  0.00    +0.000 NA
ATOM     11  C   UNL     1       0.008  13.122  20.622  0.00  0.00    +0.000 C 
ATOM     12  C   UNL     1       0.260  12.192  19.415  0.00  0.00    +0.000 C 
ATOM     13  H   UNL     1       1.986   6.862  19.976  0.00  0.00    +0.000 HD
ENDROOT
BRANCH   2  14
ATOM     14  C   UNL     1       3.446   6.414  17.851  0.00  0.00    +0.000 A 
ATOM     15  C   UNL     1       3.120   5.268  18.589  0.00  0.00    +0.000 A 
ATOM     16  C   UNL     1       3.763   4.060  18.338  0.00  0.00    +0.000 A 
ATOM     17  C   UNL     1       4.735   3.984  17.341  0.00  0.00    +0.000 A 
ATOM     18  C   UNL     1       5.072   5.127  16.598  0.00  0.00    +0.000 A 
ATOM     19  C   UNL     1       4.437   6.353  16.866  0.00  0.00    +0.000 A 
BRANCH  18  20
ATOM     20  N   UNL     1       6.036   5.050  15.566  0.00  0.00    +0.000 N 
ATOM     21  C   UNL     1       5.989   4.369  14.376  0.00  0.00    +0.000 A 
ATOM     22  N   UNL     1       7.086   4.606  13.695  0.00  0.00    +0.000 NA
ATOM     23  N   UNL     1       7.830   5.453  14.475  0.00  0.00    +0.000 NA
ATOM     24  N   UNL     1       7.203   5.732  15.609  0.00  0.00    +0.000 NA
ENDBRANCH  18  20
ENDBRANCH   2  14
BRANCH  10  25
ATOM     25  C   UNL     1      -2.229  12.241  21.232  0.00  0.00    +0.000 C 
BRANCH  25  26
ATOM     26  C   UNL     1      -3.347  12.549  22.210  0.00  0.00    +0.000 A 
ATOM     27  C   UNL     1      -4.638  12.836  21.735  0.00  0.00    +0.000 A 
ATOM     28  C   UNL     1      -5.700  13.027  22.622  0.00  0.00    +0.000 A 
ATOM     29  C   UNL     1      -5.488  12.931  23.994  0.00  0.00    +0.000 A 
ATOM     30  C   UNL     1      -4.210  12.660  24.481  0.00  0.00    +0.000 A 
ATOM     31  C   UNL     1      -3.143  12.476  23.595  0.00  0.00    +0.000 A 
ENDBRANCH  25  26
ENDBRANCH  10  25
TORSDOF 4
ENDMDL
MODEL 2
REMARK VINA RESULT:      -8.8      2.431      4.178
REMARK  Name = 
REMARK  4 active torsions:
REMARK  status: ('A' for Active; 'I' for Inactive)
REMARK    1  A    between atoms: C_2  and  C_20
REMARK    2  A    between atoms: N_10  and  C_11
REMARK    3  A    between atoms: C_11  and  C_12
REMARK    4  A    between atoms: C_24  and  N_25
REMARK                            x       y       z     vdW  Elec       q    Type
REMARK                         _______ _______ _______ _____ _____    ______ ____
ROOT
ATOM      1  O   UNL     1       1.479   6.662  20.988  0.00  0.00    +0.000 OA
ATOM      2  C   UNL     1       2.153   6.735  19.965  0.00  0.00    +0.000 C 
ATOM      3  N   UNL     1       2.234   7.801  19.091  0.00  0.00    +0.000 N 
ATOM      4  C   UNL     1       1.512   8.939  19.340  0.00  0.00    +0.000 A 
ATOM      5  N   UNL     1       0.913   9.275  20.455  0.00  0.00    +0.000 NA
ATOM      6  C   UNL     1       0.217  10.437  20.262  0.00  0.00    +0.000 A 
ATOM      7  C   UNL     1       0.307  10.986  18.998  0.00  0.00    +0.000 A 
ATOM      8  S   UNL     1       1.346  10.036  18.031  0.00  0.00    +0.000 S 
ATOM      9  C   UNL     1      -0.444  12.207  18.562  0.00  0.00    +0.000 C 
ATOM     10  N   UNL     1      -0.948  13.005  19.723  0.00  0.00    +0.000 NA
ATOM     11  C   UNL     1      -1.549  12.099  20.739  0.00  0.00    +0.000 C 
ATOM     12  C   UNL     1      -0.581  11.059  21.344  0.00  0.00    +0.000 C 
ATOM     13  H   UNL     1       2.675   7.721  18.188  0.00  0.00    +0.000 HD
ENDROOT
BRANCH   2  14
ATOM     14  C   UNL     1       2.894   5.512  19.572  0.00  0.00    +0.000 A 
ATOM     15  C   UNL     1       2.368   4.279  19.981  0.00  0.00    +0.000 A 
ATOM     16  C   UNL     1       3.018   3.092  19.660  0.00  0.00    +0.000 A 
ATOM     17  C   UNL     1       4.200   3.125  18.920  0.00  0.00    +0.000 A 
ATOM     18  C   UNL     1       4.738   4.354  18.508  0.00  0.00    +0.000 A 
ATOM     19  C   UNL     1       4.092   5.556  18.850  0.00  0.00    +0.000 A 
BRANCH  18  20
ATOM     20  N   UNL     1       5.920   4.393  17.732  0.00  0.00    +0.000 N 
ATOM     21  C   UNL     1       6.070   4.417  16.369  0.00  0.00    +0.000 A 
ATOM     22  N   UNL     1       7.346   4.492  16.072  0.00  0.00    +0.000 NA
ATOM     23  N   UNL     1       8.005   4.517  17.274  0.00  0.00    +0.000 NA
ATOM     24  N   UNL     1       7.152   4.462  18.287  0.00  0.00    +0.000 NA
ENDBRANCH  18  20
ENDBRANCH   2  14
BRANCH  10  25
ATOM     25  C   UNL     1       0.140  13.850  20.258  0.00  0.00    +0.000 C 
BRANCH  25  26
ATOM     26  C   UNL     1       0.446  15.118  19.481  0.00  0.00    +0.000 A 
ATOM     27  C   UNL     1       1.769  15.416  19.116  0.00  0.00    +0.000 A 
ATOM     28  C   UNL     1       2.058  16.527  18.320  0.00  0.00    +0.000 A 
ATOM     29  C   UNL     1       1.030  17.352  17.876  0.00  0.00    +0.000 A 
ATOM     30  C   UNL     1      -0.288  17.077  18.243  0.00  0.00    +0.000 A 
ATOM     31  C   UNL     1      -0.578  15.970  19.046  0.00  0.00    +0.000 A 
ENDBRANCH  25  26
ENDBRANCH  10  25
TORSDOF 4
ENDMDL
MODEL 3
REMARK VINA RESULT:      -8.8      1.248      1.511
REMARK  Name = 
REMARK  4 active torsions:
REMARK  status: ('A' for Active; 'I' for Inactive)
REMARK    1  A    between atoms: C_2  and  C_20
REMARK    2  A    between atoms: N_10  and  C_11
REMARK    3  A    between atoms: C_11  and  C_12
REMARK    4  A    between atoms: C_24  and  N_25
REMARK                            x       y       z     vdW  Elec       q    Type
REMARK                         _______ _______ _______ _____ _____    ______ ____
ROOT
ATOM      1  O   UNL     1       2.228   9.001  17.297  0.00  0.00    +0.000 OA
ATOM      2  C   UNL     1       2.155   8.269  18.280  0.00  0.00    +0.000 C 
ATOM      3  N   UNL     1       1.542   8.547  19.486  0.00  0.00    +0.000 N 
ATOM      4  C   UNL     1       0.919   9.755  19.668  0.00  0.00    +0.000 A 
ATOM      5  N   UNL     1       0.599  10.633  18.750  0.00  0.00    +0.000 NA
ATOM      6  C   UNL     1       0.086  11.749  19.352  0.00  0.00    +0.000 A 
ATOM      7  C   UNL     1       0.005  11.702  20.730  0.00  0.00    +0.000 A 
ATOM      8  S   UNL     1       0.546  10.181  21.287  0.00  0.00    +0.000 S 
ATOM      9  C   UNL     1      -0.450  12.850  21.579  0.00  0.00    +0.000 C 
ATOM     10  N   UNL     1      -1.203  13.874  20.790  0.00  0.00    +0.000 NA
ATOM     11  C   UNL     1      -0.498  14.145  19.507  0.00  0.00    +0.000 C 
ATOM     12  C   UNL     1      -0.352  12.928  18.569  0.00  0.00    +0.000 C 
ATOM     13  H   UNL     1       1.671   7.966  20.299  0.00  0.00    +0.000 HD
ENDROOT
BRANCH   2  14
ATOM     14  C   UNL     1       2.882   6.978  18.201  0.00  0.00    +0.000 A 
ATOM     15  C   UNL     1       2.380   5.908  18.953  0.00  0.00    +0.000 A 
ATOM     16  C   UNL     1       3.019   4.672  18.937  0.00  0.00    +0.000 A 
ATOM     17  C   UNL     1       4.166   4.494  18.164  0.00  0.00    +0.000 A 
ATOM     18  C   UNL     1       4.681   5.560  17.410  0.00  0.00    +0.000 A 
ATOM     19  C   UNL     1       4.046   6.815  17.442  0.00  0.00    +0.000 A 
BRANCH  18  20
ATOM     20  N   UNL     1       5.826   5.377  16.601  0.00  0.00    +0.000 N 
ATOM     21  C   UNL     1       6.899   4.542  16.782  0.00  0.00    +0.000 A 
ATOM     22  N   UNL     1       7.720   4.660  15.766  0.00  0.00    +0.000 NA
ATOM     23  N   UNL     1       7.148   5.588  14.934  0.00  0.00    +0.000 NA
ATOM     24  N   UNL     1       5.998   6.026  15.427  0.00  0.00    +0.000 NA
ENDBRANCH  18  20
ENDBRANCH   2  14
BRANCH  10  25
ATOM     25  C   UNL     1      -2.603  13.436  20.611  0.00  0.00    +0.000 C 
BRANCH  25  26
ATOM     26  C   UNL     1      -3.543  13.709  21.771  0.00  0.00    +0.000 A 
ATOM     27  C   UNL     1      -3.404  14.886  22.526  0.00  0.00    +0.000 A 
ATOM     28  C   UNL     1      -4.318  15.200  23.534  0.00  0.00    +0.000 A 
ATOM     29  C   UNL     1      -5.384  14.346  23.799  0.00  0.00    +0.000 A 
ATOM     30  C   UNL     1      -5.527  13.167  23.067  0.00  0.00    +0.000 A 
ATOM     31  C   UNL     1      -4.609  12.847  22.062  0.00  0.00    +0.000 A 
ENDBRANCH  25  26
ENDBRANCH  10  25
TORSDOF 4
ENDMDL
MODEL 4
REMARK VINA RESULT:      -8.7      1.465      1.659
REMARK  Name = 
REMARK  4 active torsions:
REMARK  status: ('A' for Active; 'I' for Inactive)
REMARK    1  A    between atoms: C_2  and  C_20
REMARK    2  A    between atoms: N_10  and  C_11
REMARK    3  A    between atoms: C_11  and  C_12
REMARK    4  A    between atoms: C_24  and  N_25
REMARK                            x       y       z     vdW  Elec       q    Type
REMARK                         _______ _______ _______ _____ _____    ______ ____
ROOT
ATOM      1  O   UNL     1       2.607   8.792  17.338  0.00  0.00    +0.000 OA
ATOM      2  C   UNL     1       2.297   8.014  18.235  0.00  0.00    +0.000 C 
ATOM      3  N   UNL     1       1.577   8.299  19.378  0.00  0.00    +0.000 N 
ATOM      4  C   UNL     1       1.120   9.574  19.591  0.00  0.00    +0.000 A 
ATOM      5  N   UNL     1       1.056  10.554  18.723  0.00  0.00    +0.000 NA
ATOM      6  C   UNL     1       0.637  11.691  19.357  0.00  0.00    +0.000 A 
ATOM      7  C   UNL     1       0.369  11.562  20.706  0.00  0.00    +0.000 A 
ATOM      8  S   UNL     1       0.603   9.940  21.185  0.00  0.00    +0.000 S 
ATOM      9  C   UNL     1      -0.022  12.705  21.593  0.00  0.00    +0.000 C 
ATOM     10  N   UNL     1      -0.505  13.887  20.813  0.00  0.00    +0.000 NA
ATOM     11  C   UNL     1       0.395  14.133  19.654  0.00  0.00    +0.000 C 
ATOM     12  C   UNL     1       0.484  12.976  18.635  0.00  0.00    +0.000 C 
ATOM     13  H   UNL     1       1.511   7.650  20.146  0.00  0.00    +0.000 HD
ENDROOT
BRANCH   2  14
ATOM     14  C   UNL     1       2.831   6.634  18.129  0.00  0.00    +0.000 A 
ATOM     15  C   UNL     1       1.931   5.577  18.317  0.00  0.00    +0.000 A 
ATOM     16  C   UNL     1       2.365   4.258  18.246  0.00  0.00    +0.000 A 
ATOM     17  C   UNL     1       3.706   3.981  17.980  0.00  0.00    +0.000 A 
ATOM     18  C   UNL     1       4.619   5.032  17.795  0.00  0.00    +0.000 A 
ATOM     19  C   UNL     1       4.183   6.366  17.887  0.00  0.00    +0.000 A 
BRANCH  18  20
ATOM     20  N   UNL     1       5.974   4.758  17.496  0.00  0.00    +0.000 N 
ATOM     21  C   UNL     1       6.603   4.690  16.280  0.00  0.00    +0.000 A 
ATOM     22  N   UNL     1       7.880   4.449  16.463  0.00  0.00    +0.000 NA
ATOM     23  N   UNL     1       8.050   4.368  17.821  0.00  0.00    +0.000 NA
ATOM     24  N   UNL     1       6.903   4.557  18.457  0.00  0.00    +0.000 NA
ENDBRANCH  18  20
ENDBRANCH   2  14
BRANCH  10  25
ATOM     25  C   UNL     1      -1.918  13.687  20.429  0.00  0.00    +0.000 C 
BRANCH  25  26
ATOM     26  C   UNL     1      -2.941  13.833  21.540  0.00  0.00    +0.000 A 
ATOM     27  C   UNL     1      -3.960  12.878  21.688  0.00  0.00    +0.000 A 
ATOM     28  C   UNL     1      -4.851  12.943  22.761  0.00  0.00    +0.000 A 
ATOM     29  C   UNL     1      -4.735  13.961  23.702  0.00  0.00    +0.000 A 
ATOM     30  C   UNL     1      -3.737  14.926  23.561  0.00  0.00    +0.000 A 
ATOM     31  C   UNL     1      -2.848  14.866  22.483  0.00  0.00    +0.000 A 
ENDBRANCH  25  26
ENDBRANCH  10  25
TORSDOF 4
ENDMDL
MODEL 5
REMARK VINA RESULT:      -8.7      2.311      4.016
REMARK  Name = 
REMARK  4 active torsions:
REMARK  status: ('A' for Active; 'I' for Inactive)
REMARK    1  A    between atoms: C_2  and  C_20
REMARK    2  A    between atoms: N_10  and  C_11
REMARK    3  A    between atoms: C_11  and  C_12
REMARK    4  A    between atoms: C_24  and  N_25
REMARK                            x       y       z     vdW  Elec       q    Type
REMARK                         _______ _______ _______ _____ _____    ______ ____
ROOT
ATOM      1  O   UNL     1       1.694   6.503  20.768  0.00  0.00    +0.000 OA
ATOM      2  C   UNL     1       2.145   6.723  19.648  0.00  0.00    +0.000 C 
ATOM      3  N   UNL     1       2.071   7.903  18.934  0.00  0.00    +0.000 N 
ATOM      4  C   UNL     1       1.445   8.991  19.484  0.00  0.00    +0.000 A 
ATOM      5  N   UNL     1       1.097   9.162  20.736  0.00  0.00    +0.000 NA
ATOM      6  C   UNL     1       0.406  10.337  20.855  0.00  0.00    +0.000 A 
ATOM      7  C   UNL     1       0.249  11.061  19.689  0.00  0.00    +0.000 A 
ATOM      8  S   UNL     1       1.041  10.262  18.405  0.00  0.00    +0.000 S 
ATOM      9  C   UNL     1      -0.545  12.329  19.594  0.00  0.00    +0.000 C 
ATOM     10  N   UNL     1      -0.778  12.951  20.935  0.00  0.00    +0.000 NA
ATOM     11  C   UNL     1      -1.180  11.907  21.916  0.00  0.00    +0.000 C 
ATOM     12  C   UNL     1      -0.136  10.795  22.156  0.00  0.00    +0.000 C 
ATOM     13  H   UNL     1       2.314   7.954  17.957  0.00  0.00    +0.000 HD
ENDROOT
BRANCH   2  14
ATOM     14  C   UNL     1       2.757   5.571  18.942  0.00  0.00    +0.000 A 
ATOM     15  C   UNL     1       1.930   4.479  18.652  0.00  0.00    +0.000 A 
ATOM     16  C   UNL     1       2.441   3.358  18.005  0.00  0.00    +0.000 A 
ATOM     17  C   UNL     1       3.785   3.321  17.636  0.00  0.00    +0.000 A 
ATOM     18  C   UNL     1       4.625   4.409  17.925  0.00  0.00    +0.000 A 
ATOM     19  C   UNL     1       4.113   5.533  18.598  0.00  0.00    +0.000 A 
BRANCH  18  20
ATOM     20  N   UNL     1       5.982   4.390  17.528  0.00  0.00    +0.000 N 
ATOM     21  C   UNL     1       6.526   4.488  16.273  0.00  0.00    +0.000 A 
ATOM     22  N   UNL     1       7.835   4.466  16.362  0.00  0.00    +0.000 NA
ATOM     23  N   UNL     1       8.113   4.354  17.700  0.00  0.00    +0.000 NA
ATOM     24  N   UNL     1       6.998   4.311  18.417  0.00  0.00    +0.000 NA
ENDBRANCH  18  20
ENDBRANCH   2  14
BRANCH  10  25
ATOM     25  C   UNL     1       0.417  13.716  21.345  0.00  0.00    +0.000 C 
BRANCH  25  26
ATOM     26  C   UNL     1       0.923  14.749  20.355  0.00  0.00    +0.000 A 
ATOM     27  C   UNL     1       0.132  15.866  20.039  0.00  0.00    +0.000 A 
ATOM     28  C   UNL     1       0.620  16.875  19.205  0.00  0.00    +0.000 A 
ATOM     29  C   UNL     1       1.906  16.783  18.679  0.00  0.00    +0.000 A 
ATOM     30  C   UNL     1       2.698  15.673  18.973  0.00  0.00    +0.000 A 
ATOM     31  C   UNL     1       2.208  14.659  19.802  0.00  0.00    +0.000 A 
ENDBRANCH  25  26
ENDBRANCH  10  25
TORSDOF 4
ENDMDL
MODEL 6
REMARK VINA RESULT:      -8.7      1.424      1.861
REMARK  Name = 
REMARK  4 active torsions:
REMARK  status: ('A' for Active; 'I' for Inactive)
REMARK    1  A    between atoms: C_2  and  C_20
REMARK    2  A    between atoms: N_10  and  C_11
REMARK    3  A    between atoms: C_11  and  C_12
REMARK    4  A    between atoms: C_24  and  N_25
REMARK                            x       y       z     vdW  Elec       q    Type
REMARK                         _______ _______ _______ _____ _____    ______ ____
ROOT
ATOM      1  O   UNL     1       2.170   8.540  17.373  0.00  0.00    +0.000 OA
ATOM      2  C   UNL     1       2.376   7.906  18.404  0.00  0.00    +0.000 C 
ATOM      3  N   UNL     1       1.901   8.189  19.669  0.00  0.00    +0.000 N 
ATOM      4  C   UNL     1       1.095   9.282  19.862  0.00  0.00    +0.000 A 
ATOM      5  N   UNL     1       0.488   9.997  18.947  0.00  0.00    +0.000 NA
ATOM      6  C   UNL     1      -0.134  11.059  19.544  0.00  0.00    +0.000 A 
ATOM      7  C   UNL     1      -0.007  11.134  20.917  0.00  0.00    +0.000 A 
ATOM      8  S   UNL     1       0.884   9.793  21.486  0.00  0.00    +0.000 S 
ATOM      9  C   UNL     1      -0.543  12.262  21.745  0.00  0.00    +0.000 C 
ATOM     10  N   UNL     1      -1.580  13.057  21.015  0.00  0.00    +0.000 NA
ATOM     11  C   UNL     1      -1.129  13.320  19.621  0.00  0.00    +0.000 C 
ATOM     12  C   UNL     1      -0.893  12.061  18.759  0.00  0.00    +0.000 C 
ATOM     13  H   UNL     1       2.251   7.722  20.490  0.00  0.00    +0.000 HD
ENDROOT
BRANCH   2  14
ATOM     14  C   UNL     1       3.314   6.761  18.301  0.00  0.00    +0.000 A 
ATOM     15  C   UNL     1       3.318   5.835  19.352  0.00  0.00    +0.000 A 
ATOM     16  C   UNL     1       4.181   4.744  19.329  0.00  0.00    +0.000 A 
ATOM     17  C   UNL     1       5.047   4.566  18.250  0.00  0.00    +0.000 A 
ATOM     18  C   UNL     1       5.054   5.490  17.193  0.00  0.00    +0.000 A 
ATOM     19  C   UNL     1       4.196   6.604  17.226  0.00  0.00    +0.000 A 
BRANCH  18  20
ATOM     20  N   UNL     1       5.908   5.300  16.082  0.00  0.00    +0.000 N 
ATOM     21  C   UNL     1       5.701   4.577  14.935  0.00  0.00    +0.000 A 
ATOM     22  N   UNL     1       6.742   4.703  14.146  0.00  0.00    +0.000 NA
ATOM     23  N   UNL     1       7.615   5.522  14.815  0.00  0.00    +0.000 NA
ATOM     24  N   UNL     1       7.120   5.893  15.987  0.00  0.00    +0.000 NA
ENDBRANCH  18  20
ENDBRANCH   2  14
BRANCH  10  25
ATOM     25  C   UNL     1      -2.883  12.365  21.091  0.00  0.00    +0.000 C 
BRANCH  25  26
ATOM     26  C   UNL     1      -4.051  13.063  20.419  0.00  0.00    +0.000 A 
ATOM     27  C   UNL     1      -4.812  12.386  19.452  0.00  0.00    +0.000 A 
ATOM     28  C   UNL     1      -5.948  12.977  18.893  0.00  0.00    +0.000 A 
ATOM     29  C   UNL     1      -6.340  14.250  19.295  0.00  0.00    +0.000 A 
ATOM     30  C   UNL     1      -5.587  14.941  20.245  0.00  0.00    +0.000 A 
ATOM     31  C   UNL     1      -4.445  14.353  20.800  0.00  0.00    +0.000 A 
ENDBRANCH  25  26
ENDBRANCH  10  25
TORSDOF 4
ENDMDL
MODEL 7
REMARK VINA RESULT:      -8.6      2.460      3.187
REMARK  Name = 
REMARK  4 active torsions:
REMARK  status: ('A' for Active; 'I' for Inactive)
REMARK    1  A    between atoms: C_2  and  C_20
REMARK    2  A    between atoms: N_10  and  C_11
REMARK    3  A    between atoms: C_11  and  C_12
REMARK    4  A    between atoms: C_24  and  N_25
REMARK                            x       y       z     vdW  Elec       q    Type
REMARK                         _______ _______ _______ _____ _____    ______ ____
ROOT
ATOM      1  O   UNL     1       1.809   6.364  21.007  0.00  0.00    +0.000 OA
ATOM      2  C   UNL     1       2.057   6.728  19.861  0.00  0.00    +0.000 C 
ATOM      3  N   UNL     1       1.721   7.933  19.276  0.00  0.00    +0.000 N 
ATOM      4  C   UNL     1       1.043   8.875  20.005  0.00  0.00    +0.000 A 
ATOM      5  N   UNL     1       0.863   8.903  21.302  0.00  0.00    +0.000 NA
ATOM      6  C   UNL     1       0.046   9.952  21.622  0.00  0.00    +0.000 A 
ATOM      7  C   UNL     1      -0.377  10.728  20.561  0.00  0.00    +0.000 A 
ATOM      8  S   UNL     1       0.317  10.148  19.113  0.00  0.00    +0.000 S 
ATOM      9  C   UNL     1      -1.338  11.870  20.692  0.00  0.00    +0.000 C 
ATOM     10  N   UNL     1      -1.454  12.353  22.104  0.00  0.00    +0.000 NA
ATOM     11  C   UNL     1      -1.563  11.193  23.030  0.00  0.00    +0.000 C 
ATOM     12  C   UNL     1      -0.355  10.231  23.021  0.00  0.00    +0.000 C 
ATOM     13  H   UNL     1       1.809   8.089  18.285  0.00  0.00    +0.000 HD
ENDROOT
BRANCH   2  14
ATOM     14  C   UNL     1       2.707   5.732  18.976  0.00  0.00    +0.000 A 
ATOM     15  C   UNL     1       1.873   4.876  18.245  0.00  0.00    +0.000 A 
ATOM     16  C   UNL     1       2.415   3.908  17.406  0.00  0.00    +0.000 A 
ATOM     17  C   UNL     1       3.799   3.790  17.284  0.00  0.00    +0.000 A 
ATOM     18  C   UNL     1       4.645   4.640  18.014  0.00  0.00    +0.000 A 
ATOM     19  C   UNL     1       4.097   5.605  18.878  0.00  0.00    +0.000 A 
BRANCH  18  20
ATOM     20  N   UNL     1       6.049   4.546  17.872  0.00  0.00    +0.000 N 
ATOM     21  C   UNL     1       6.800   4.319  16.747  0.00  0.00    +0.000 A 
ATOM     22  N   UNL     1       8.074   4.350  17.060  0.00  0.00    +0.000 NA
ATOM     23  N   UNL     1       8.118   4.603  18.407  0.00  0.00    +0.000 NA
ATOM     24  N   UNL     1       6.898   4.727  18.909  0.00  0.00    +0.000 NA
ENDBRANCH  18  20
ENDBRANCH   2  14
BRANCH  10  25
ATOM     25  C   UNL     1      -0.324  13.253  22.417  0.00  0.00    +0.000 C 
BRANCH  25  26
ATOM     26  C   UNL     1      -0.689  14.625  22.950  0.00  0.00    +0.000 A 
ATOM     27  C   UNL     1      -1.266  14.754  24.224  0.00  0.00    +0.000 A 
ATOM     28  C   UNL     1      -1.520  16.014  24.771  0.00  0.00    +0.000 A 
ATOM     29  C   UNL     1      -1.199  17.162  24.053  0.00  0.00    +0.000 A 
ATOM     30  C   UNL     1      -0.638  17.051  22.781  0.00  0.00    +0.000 A 
ATOM     31  C   UNL     1      -0.390  15.790  22.229  0.00  0.00    +0.000 A 
ENDBRANCH  25  26
ENDBRANCH  10  25
TORSDOF 4
ENDMDL
MODEL 8
REMARK VINA RESULT:      -8.6      2.082      3.532
REMARK  Name = 
REMARK  4 active torsions:
REMARK  status: ('A' for Active; 'I' for Inactive)
REMARK    1  A    between atoms: C_2  and  C_20
REMARK    2  A    between atoms: N_10  and  C_11
REMARK    3  A    between atoms: C_11  and  C_12
REMARK    4  A    between atoms: C_24  and  N_25
REMARK                            x       y       z     vdW  Elec       q    Type
REMARK                         _______ _______ _______ _____ _____    ______ ____
ROOT
ATOM      1  O   UNL     1       1.864   6.554  20.634  0.00  0.00    +0.000 OA
ATOM      2  C   UNL     1       2.132   6.919  19.492  0.00  0.00    +0.000 C 
ATOM      3  N   UNL     1       1.827   8.132  18.909  0.00  0.00    +0.000 N 
ATOM      4  C   UNL     1       1.159   9.085  19.634  0.00  0.00    +0.000 A 
ATOM      5  N   UNL     1       0.965   9.111  20.930  0.00  0.00    +0.000 NA
ATOM      6  C   UNL     1       0.166  10.175  21.246  0.00  0.00    +0.000 A 
ATOM      7  C   UNL     1      -0.230  10.963  20.183  0.00  0.00    +0.000 A 
ATOM      8  S   UNL     1       0.469  10.376  18.740  0.00  0.00    +0.000 S 
ATOM      9  C   UNL     1      -1.169  12.124  20.308  0.00  0.00    +0.000 C 
ATOM     10  N   UNL     1      -1.290  12.603  21.721  0.00  0.00    +0.000 NA
ATOM     11  C   UNL     1      -1.433  11.442  22.640  0.00  0.00    +0.000 C 
ATOM     12  C   UNL     1      -0.245  10.456  22.641  0.00  0.00    +0.000 C 
ATOM     13  H   UNL     1       1.928   8.291  17.919  0.00  0.00    +0.000 HD
ENDROOT
BRANCH   2  14
ATOM     14  C   UNL     1       2.772   5.914  18.610  0.00  0.00    +0.000 A 
ATOM     15  C   UNL     1       2.086   4.711  18.397  0.00  0.00    +0.000 A 
ATOM     16  C   UNL     1       2.634   3.717  17.592  0.00  0.00    +0.000 A 
ATOM     17  C   UNL     1       3.874   3.919  16.986  0.00  0.00    +0.000 A 
ATOM     18  C   UNL     1       4.572   5.119  17.195  0.00  0.00    +0.000 A 
ATOM     19  C   UNL     1       4.028   6.115  18.026  0.00  0.00    +0.000 A 
BRANCH  18  20
ATOM     20  N   UNL     1       5.816   5.342  16.560  0.00  0.00    +0.000 N 
ATOM     21  C   UNL     1       6.410   4.650  15.536  0.00  0.00    +0.000 A 
ATOM     22  N   UNL     1       7.549   5.224  15.225  0.00  0.00    +0.000 NA
ATOM     23  N   UNL     1       7.666   6.296  16.071  0.00  0.00    +0.000 NA
ATOM     24  N   UNL     1       6.621   6.380  16.882  0.00  0.00    +0.000 NA
ENDBRANCH  18  20
ENDBRANCH   2  14
BRANCH  10  25
ATOM     25  C   UNL     1      -0.147  13.479  22.050  0.00  0.00    +0.000 C 
BRANCH  25  26
ATOM     26  C   UNL     1       0.209  14.533  21.018  0.00  0.00    +0.000 A 
ATOM     27  C   UNL     1       1.424  14.449  20.319  0.00  0.00    +0.000 A 
ATOM     28  C   UNL     1       1.725  15.355  19.298  0.00  0.00    +0.000 A 
ATOM     29  C   UNL     1       0.816  16.353  18.962  0.00  0.00    +0.000 A 
ATOM     30  C   UNL     1      -0.389  16.457  19.657  0.00  0.00    +0.000 A 
ATOM     31  C   UNL     1      -0.689  15.556  20.684  0.00  0.00    +0.000 A 
ENDBRANCH  25  26
ENDBRANCH  10  25
TORSDOF 4
ENDMDL
MODEL 9
REMARK VINA RESULT:      -8.5      2.281      2.832
REMARK  Name = 
REMARK  4 active torsions:
REMARK  status: ('A' for Active; 'I' for Inactive)
REMARK    1  A    between atoms: C_2  and  C_20
REMARK    2  A    between atoms: N_10  and  C_11
REMARK    3  A    between atoms: C_11  and  C_12
REMARK    4  A    between atoms: C_24  and  N_25
REMARK                            x       y       z     vdW  Elec       q    Type
REMARK                         _______ _______ _______ _____ _____    ______ ____
ROOT
ATOM      1  O   UNL     1       1.727   6.587  20.776  0.00  0.00    +0.000 OA
ATOM      2  C   UNL     1       2.029   7.013  19.665  0.00  0.00    +0.000 C 
ATOM      3  N   UNL     1       1.731   8.254  19.136  0.00  0.00    +0.000 N 
ATOM      4  C   UNL     1       1.030   9.161  19.888  0.00  0.00    +0.000 A 
ATOM      5  N   UNL     1       0.794   9.116  21.176  0.00  0.00    +0.000 NA
ATOM      6  C   UNL     1      -0.026  10.156  21.521  0.00  0.00    +0.000 A 
ATOM      7  C   UNL     1      -0.394  10.996  20.488  0.00  0.00    +0.000 A 
ATOM      8  S   UNL     1       0.358  10.492  19.040  0.00  0.00    +0.000 S 
ATOM      9  C   UNL     1      -1.349  12.141  20.644  0.00  0.00    +0.000 C 
ATOM     10  N   UNL     1      -1.521  12.544  22.074  0.00  0.00    +0.000 NA
ATOM     11  C   UNL     1      -1.683  11.334  22.926  0.00  0.00    +0.000 C 
ATOM     12  C   UNL     1      -0.485  10.359  22.915  0.00  0.00    +0.000 C 
ATOM     13  H   UNL     1       1.864   8.466  18.160  0.00  0.00    +0.000 HD
ENDROOT
BRANCH   2  14
ATOM     14  C   UNL     1       2.708   6.062  18.752  0.00  0.00    +0.000 A 
ATOM     15  C   UNL     1       2.045   4.861  18.463  0.00  0.00    +0.000 A 
ATOM     16  C   UNL     1       2.630   3.916  17.626  0.00  0.00    +0.000 A 
ATOM     17  C   UNL     1       3.883   4.165  17.064  0.00  0.00    +0.000 A 
ATOM     18  C   UNL     1       4.557   5.362  17.351  0.00  0.00    +0.000 A 
ATOM     19  C   UNL     1       3.975   6.309  18.213  0.00  0.00    +0.000 A 
BRANCH  18  20
ATOM     20  N   UNL     1       5.814   5.634  16.762  0.00  0.00    +0.000 N 
ATOM     21  C   UNL     1       6.431   5.022  15.701  0.00  0.00    +0.000 A 
ATOM     22  N   UNL     1       7.575   5.618  15.459  0.00  0.00    +0.000 NA
ATOM     23  N   UNL     1       7.672   6.622  16.388  0.00  0.00    +0.000 NA
ATOM     24  N   UNL     1       6.609   6.644  17.179  0.00  0.00    +0.000 NA
ENDBRANCH  18  20
ENDBRANCH   2  14
BRANCH  10  25
ATOM     25  C   UNL     1      -0.398  13.409  22.488  0.00  0.00    +0.000 C 
BRANCH  25  26
ATOM     26  C   UNL     1      -0.771  14.774  23.036  0.00  0.00    +0.000 A 
ATOM     27  C   UNL     1      -0.779  15.894  22.187  0.00  0.00    +0.000 A 
ATOM     28  C   UNL     1      -1.212  17.139  22.650  0.00  0.00    +0.000 A 
ATOM     29  C   UNL     1      -1.645  17.281  23.965  0.00  0.00    +0.000 A 
ATOM     30  C   UNL     1      -1.629  16.182  24.824  0.00  0.00    +0.000 A 
ATOM     31  C   UNL     1      -1.189  14.936  24.364  0.00  0.00    +0.000 A 
ENDBRANCH  25  26
ENDBRANCH  10  25
TORSDOF 4
ENDMDL
