MODEL 1
REMARK VINA RESULT:      -8.3      0.000      0.000
REMARK  Name = 
REMARK  9 active torsions:
REMARK  status: ('A' for Active; 'I' for Inactive)
REMARK    1  A    between atoms: C_1  and  C_2
REMARK    2  A    between atoms: C_3  and  N_4
REMARK    3  A    between atoms: N_4  and  C_5
REMARK    4  A    between atoms: C_5  and  C_6
REMARK    5  A    between atoms: C_6  and  C_7
REMARK    6  A    between atoms: C_7  and  C_8
REMARK    7  A    between atoms: C_7  and  C_9
REMARK    8  A    between atoms: C_13  and  N_14
REMARK    9  A    between atoms: C_21  and  C_22
REMARK                            x       y       z     vdW  Elec       q    Type
REMARK                         _______ _______ _______ _____ _____    ______ ____
ROOT
ATOM      1  C   UNL     1       1.393   9.195  19.006  0.00  0.00    +0.000 A 
ATOM      2  C   UNL     1       1.150   8.708  20.302  0.00  0.00    +0.000 A 
ATOM      3  C   UNL     1       1.760   7.539  20.756  0.00  0.00    +0.000 A 
ATOM      4  C   UNL     1       2.554   6.790  19.897  0.00  0.00    +0.000 A 
ATOM      5  C   UNL     1       2.640   7.152  18.548  0.00  0.00    +0.000 A 
ATOM      6  C   UNL     1       2.184   8.414  18.151  0.00  0.00    +0.000 A 
ENDROOT
BRANCH   5   7
ATOM      7  N   UNL     1       2.751   6.130  17.520  0.00  0.00    +0.000 N 
ATOM      8  C   UNL     1       1.793   5.027  17.793  0.00  0.00    +0.000 C 
ATOM      9  C   UNL     1       2.628   4.089  18.608  0.00  0.00    +0.000 A 
ATOM     10  C   UNL     1       3.961   4.290  18.238  0.00  0.00    +0.000 A 
ATOM     11  C   UNL     1       5.022   3.702  18.897  0.00  0.00    +0.000 A 
ATOM     12  C   UNL     1       4.722   2.888  19.987  0.00  0.00    +0.000 A 
ATOM     13  C   UNL     1       3.387   2.693  20.389  0.00  0.00    +0.000 A 
ATOM     14  C   UNL     1       2.306   3.292  19.704  0.00  0.00    +0.000 A 
ATOM     15  C   UNL     1       4.018   5.515  17.407  0.00  0.00    +0.000 C 
ATOM     16  O   UNL     1       5.044   5.964  16.926  0.00  0.00    +0.000 OA
BRANCH  14  17
ATOM     17  C   UNL     1       0.911   3.141  20.255  0.00  0.00    +0.000 C 
ATOM     18  F   UNL     1       0.275   4.319  20.496  0.00  0.00    +0.000 F 
ATOM     19  F   UNL     1       0.112   2.451  19.409  0.00  0.00    +0.000 F 
ATOM     20  F   UNL     1       0.893   2.461  21.435  0.00  0.00    +0.000 F 
ENDBRANCH  14  17
ENDBRANCH   5   7
BRANCH   1  21
ATOM     21  C   UNL     1       0.738  10.501  18.556  0.00  0.00    +0.000 C 
ATOM     22  C   UNL     1       1.204  11.671  19.437  0.00  0.00    +0.000 C 
BRANCH  21  23
ATOM     23  C   UNL     1      -0.803  10.421  18.508  0.00  0.00    +0.000 C 
BRANCH  23  24
ATOM     24  C   UNL     1      -1.509  11.765  18.640  0.00  0.00    +0.000 C 
BRANCH  24  25
ATOM     25  N   UNL     1      -2.539  11.865  17.622  0.00  0.00    +0.000 N 
ATOM     26  H   UNL     1      -3.273  12.557  17.759  0.00  0.00    +0.000 HD
BRANCH  25  29
ATOM     27  C   UNL     1      -3.163  10.009  14.399  0.00  0.00    +0.000 C 
ATOM     28  C   UNL     1      -3.352  10.555  15.775  0.00  0.00    +0.000 C 
ATOM     29  C   UNL     1      -2.445  11.337  16.367  0.00  0.00    +0.000 C 
ENDBRANCH  25  29
ENDBRANCH  24  25
ENDBRANCH  23  24
ENDBRANCH  21  23
ENDBRANCH   1  21
TORSDOF 7
ENDMDL
MODEL 2
REMARK VINA RESULT:      -8.2      2.805      3.516
REMARK  Name = 
REMARK  9 active torsions:
REMARK  status: ('A' for Active; 'I' for Inactive)
REMARK    1  A    between atoms: C_1  and  C_2
REMARK    2  A    between atoms: C_3  and  N_4
REMARK    3  A    between atoms: N_4  and  C_5
REMARK    4  A    between atoms: C_5  and  C_6
REMARK    5  A    between atoms: C_6  and  C_7
REMARK    6  A    between atoms: C_7  and  C_8
REMARK    7  A    between atoms: C_7  and  C_9
REMARK    8  A    between atoms: C_13  and  N_14
REMARK    9  A    between atoms: C_21  and  C_22
REMARK                            x       y       z     vdW  Elec       q    Type
REMARK                         _______ _______ _______ _____ _____    ______ ____
ROOT
ATOM      1  C   UNL     1       1.517   8.890  19.464  0.00  0.00    +0.000 A 
ATOM      2  C   UNL     1       2.067   9.182  18.204  0.00  0.00    +0.000 A 
ATOM      3  C   UNL     1       2.720   8.200  17.460  0.00  0.00    +0.000 A 
ATOM      4  C   UNL     1       2.912   6.933  17.997  0.00  0.00    +0.000 A 
ATOM      5  C   UNL     1       2.552   6.688  19.328  0.00  0.00    +0.000 A 
ATOM      6  C   UNL     1       1.737   7.610  19.994  0.00  0.00    +0.000 A 
ENDROOT
BRANCH   5   7
ATOM      7  N   UNL     1       3.344   5.784  20.147  0.00  0.00    +0.000 N 
ATOM      8  C   UNL     1       4.567   5.369  19.412  0.00  0.00    +0.000 C 
ATOM      9  C   UNL     1       4.108   4.116  18.733  0.00  0.00    +0.000 A 
ATOM     10  C   UNL     1       3.084   3.572  19.514  0.00  0.00    +0.000 A 
ATOM     11  C   UNL     1       2.322   2.494  19.111  0.00  0.00    +0.000 A 
ATOM     12  C   UNL     1       2.597   1.953  17.857  0.00  0.00    +0.000 A 
ATOM     13  C   UNL     1       3.607   2.504  17.045  0.00  0.00    +0.000 A 
ATOM     14  C   UNL     1       4.389   3.602  17.469  0.00  0.00    +0.000 A 
ATOM     15  C   UNL     1       2.701   4.585  20.524  0.00  0.00    +0.000 C 
ATOM     16  O   UNL     1       1.831   4.416  21.361  0.00  0.00    +0.000 OA
BRANCH  14  17
ATOM     17  C   UNL     1       5.372   4.220  16.508  0.00  0.00    +0.000 C 
ATOM     18  F   UNL     1       5.655   3.448  15.424  0.00  0.00    +0.000 F 
ATOM     19  F   UNL     1       4.921   5.398  16.021  0.00  0.00    +0.000 F 
ATOM     20  F   UNL     1       6.572   4.485  17.096  0.00  0.00    +0.000 F 
ENDBRANCH  14  17
ENDBRANCH   5   7
BRANCH   1  21
ATOM     21  C   UNL     1       0.773   9.981  20.234  0.00  0.00    +0.000 C 
ATOM     22  C   UNL     1      -0.239   9.359  21.210  0.00  0.00    +0.000 C 
BRANCH  21  23
ATOM     23  C   UNL     1       0.090  11.015  19.313  0.00  0.00    +0.000 C 
BRANCH  23  24
ATOM     24  C   UNL     1      -1.330  10.651  18.899  0.00  0.00    +0.000 C 
BRANCH  24  25
ATOM     25  N   UNL     1      -1.338  10.274  17.497  0.00  0.00    +0.000 N 
ATOM     26  H   UNL     1      -0.632   9.613  17.182  0.00  0.00    +0.000 HD
BRANCH  25  29
ATOM     27  C   UNL     1      -3.734  10.176  14.586  0.00  0.00    +0.000 C 
ATOM     28  C   UNL     1      -2.569   9.874  15.469  0.00  0.00    +0.000 C 
ATOM     29  C   UNL     1      -2.380  10.487  16.641  0.00  0.00    +0.000 C 
ENDBRANCH  25  29
ENDBRANCH  24  25
ENDBRANCH  23  24
ENDBRANCH  21  23
ENDBRANCH   1  21
TORSDOF 7
ENDMDL
MODEL 3
REMARK VINA RESULT:      -8.1      2.801      3.532
REMARK  Name = 
REMARK  9 active torsions:
REMARK  status: ('A' for Active; 'I' for Inactive)
REMARK    1  A    between atoms: C_1  and  C_2
REMARK    2  A    between atoms: C_3  and  N_4
REMARK    3  A    between atoms: N_4  and  C_5
REMARK    4  A    between atoms: C_5  and  C_6
REMARK    5  A    between atoms: C_6  and  C_7
REMARK    6  A    between atoms: C_7  and  C_8
REMARK    7  A    between atoms: C_7  and  C_9
REMARK    8  A    between atoms: C_13  and  N_14
REMARK    9  A    between atoms: C_21  and  C_22
REMARK                            x       y       z     vdW  Elec       q    Type
REMARK                         _______ _______ _______ _____ _____    ______ ____
ROOT
ATOM      1  C   UNL     1       1.412   8.890  19.711  0.00  0.00    +0.000 A 
ATOM      2  C   UNL     1       1.892   9.239  18.437  0.00  0.00    +0.000 A 
ATOM      3  C   UNL     1       2.518   8.297  17.622  0.00  0.00    +0.000 A 
ATOM      4  C   UNL     1       2.753   7.013  18.097  0.00  0.00    +0.000 A 
ATOM      5  C   UNL     1       2.465   6.710  19.433  0.00  0.00    +0.000 A 
ATOM      6  C   UNL     1       1.675   7.593  20.177  0.00  0.00    +0.000 A 
ENDROOT
BRANCH   5   7
ATOM      7  N   UNL     1       3.309   5.786  20.173  0.00  0.00    +0.000 N 
ATOM      8  C   UNL     1       4.511   5.439  19.371  0.00  0.00    +0.000 C 
ATOM      9  C   UNL     1       4.055   4.211  18.646  0.00  0.00    +0.000 A 
ATOM     10  C   UNL     1       3.076   3.602  19.437  0.00  0.00    +0.000 A 
ATOM     11  C   UNL     1       2.324   2.527  19.008  0.00  0.00    +0.000 A 
ATOM     12  C   UNL     1       2.561   2.058  17.718  0.00  0.00    +0.000 A 
ATOM     13  C   UNL     1       3.526   2.675  16.898  0.00  0.00    +0.000 A 
ATOM     14  C   UNL     1       4.298   3.769  17.348  0.00  0.00    +0.000 A 
ATOM     15  C   UNL     1       2.710   4.552  20.512  0.00  0.00    +0.000 C 
ATOM     16  O   UNL     1       1.877   4.319  21.372  0.00  0.00    +0.000 OA
BRANCH  14  17
ATOM     17  C   UNL     1       5.228   4.459  16.383  0.00  0.00    +0.000 C 
ATOM     18  F   UNL     1       4.835   5.712  16.027  0.00  0.00    +0.000 F 
ATOM     19  F   UNL     1       6.472   4.590  16.897  0.00  0.00    +0.000 F 
ATOM     20  F   UNL     1       5.368   3.770  15.217  0.00  0.00    +0.000 F 
ENDBRANCH  14  17
ENDBRANCH   5   7
BRANCH   1  21
ATOM     21  C   UNL     1       0.695   9.938  20.562  0.00  0.00    +0.000 C 
ATOM     22  C   UNL     1       0.719   9.538  22.046  0.00  0.00    +0.000 C 
BRANCH  21  23
ATOM     23  C   UNL     1      -0.747  10.221  20.087  0.00  0.00    +0.000 C 
BRANCH  23  24
ATOM     24  C   UNL     1      -0.889  11.449  19.197  0.00  0.00    +0.000 C 
BRANCH  24  25
ATOM     25  N   UNL     1      -2.281  11.602  18.813  0.00  0.00    +0.000 N 
ATOM     26  H   UNL     1      -2.854  12.243  19.358  0.00  0.00    +0.000 HD
BRANCH  25  29
ATOM     27  C   UNL     1      -2.866  10.002  15.448  0.00  0.00    +0.000 C 
ATOM     28  C   UNL     1      -2.226  10.375  16.744  0.00  0.00    +0.000 C 
ATOM     29  C   UNL     1      -2.805  11.204  17.617  0.00  0.00    +0.000 C 
ENDBRANCH  25  29
ENDBRANCH  24  25
ENDBRANCH  23  24
ENDBRANCH  21  23
ENDBRANCH   1  21
TORSDOF 7
ENDMDL
MODEL 4
REMARK VINA RESULT:      -8.0      3.242      4.642
REMARK  Name = 
REMARK  9 active torsions:
REMARK  status: ('A' for Active; 'I' for Inactive)
REMARK    1  A    between atoms: C_1  and  C_2
REMARK    2  A    between atoms: C_3  and  N_4
REMARK    3  A    between atoms: N_4  and  C_5
REMARK    4  A    between atoms: C_5  and  C_6
REMARK    5  A    between atoms: C_6  and  C_7
REMARK    6  A    between atoms: C_7  and  C_8
REMARK    7  A    between atoms: C_7  and  C_9
REMARK    8  A    between atoms: C_13  and  N_14
REMARK    9  A    between atoms: C_21  and  C_22
REMARK                            x       y       z     vdW  Elec       q    Type
REMARK                         _______ _______ _______ _____ _____    ______ ____
ROOT
ATOM      1  C   UNL     1       2.330   6.117  20.035  0.00  0.00    +0.000 A 
ATOM      2  C   UNL     1       1.298   5.435  20.701  0.00  0.00    +0.000 A 
ATOM      3  C   UNL     1       1.393   4.070  20.967  0.00  0.00    +0.000 A 
ATOM      4  C   UNL     1       2.481   3.344  20.499  0.00  0.00    +0.000 A 
ATOM      5  C   UNL     1       3.414   3.967  19.661  0.00  0.00    +0.000 A 
ATOM      6  C   UNL     1       3.411   5.362  19.557  0.00  0.00    +0.000 A 
ENDROOT
BRANCH   5   7
ATOM      7  N   UNL     1       4.050   3.219  18.589  0.00  0.00    +0.000 N 
ATOM      8  C   UNL     1       5.525   3.380  18.660  0.00  0.00    +0.000 C 
ATOM      9  C   UNL     1       5.750   4.563  17.770  0.00  0.00    +0.000 A 
ATOM     10  C   UNL     1       4.708   4.585  16.838  0.00  0.00    +0.000 A 
ATOM     11  C   UNL     1       4.510   5.627  15.955  0.00  0.00    +0.000 A 
ATOM     12  C   UNL     1       5.394   6.702  16.030  0.00  0.00    +0.000 A 
ATOM     13  C   UNL     1       6.434   6.709  16.979  0.00  0.00    +0.000 A 
ATOM     14  C   UNL     1       6.635   5.633  17.873  0.00  0.00    +0.000 A 
ATOM     15  C   UNL     1       3.687   3.607  17.279  0.00  0.00    +0.000 C 
ATOM     16  O   UNL     1       2.650   3.387  16.678  0.00  0.00    +0.000 OA
BRANCH  14  17
ATOM     17  C   UNL     1       7.691   5.753  18.943  0.00  0.00    +0.000 C 
ATOM     18  F   UNL     1       8.638   4.777  18.907  0.00  0.00    +0.000 F 
ATOM     19  F   UNL     1       8.359   6.926  18.855  0.00  0.00    +0.000 F 
ATOM     20  F   UNL     1       7.162   5.710  20.198  0.00  0.00    +0.000 F 
ENDBRANCH  14  17
ENDBRANCH   5   7
BRANCH   1  21
ATOM     21  C   UNL     1       2.209   7.622  19.795  0.00  0.00    +0.000 C 
ATOM     22  C   UNL     1       1.277   8.262  20.837  0.00  0.00    +0.000 C 
BRANCH  21  23
ATOM     23  C   UNL     1       1.760   7.972  18.360  0.00  0.00    +0.000 C 
BRANCH  23  24
ATOM     24  C   UNL     1       2.082   9.397  17.928  0.00  0.00    +0.000 C 
BRANCH  24  25
ATOM     25  N   UNL     1       0.870  10.196  17.976  0.00  0.00    +0.000 N 
ATOM     26  H   UNL     1       0.967  11.206  17.902  0.00  0.00    +0.000 HD
BRANCH  25  29
ATOM     27  C   UNL     1      -2.865   9.797  17.634  0.00  0.00    +0.000 C 
ATOM     28  C   UNL     1      -1.520  10.419  17.817  0.00  0.00    +0.000 C 
ATOM     29  C   UNL     1      -0.392   9.704  17.806  0.00  0.00    +0.000 C 
ENDBRANCH  25  29
ENDBRANCH  24  25
ENDBRANCH  23  24
ENDBRANCH  21  23
ENDBRANCH   1  21
TORSDOF 7
ENDMDL
MODEL 5
REMARK VINA RESULT:      -7.9      1.052      1.215
REMARK  Name = 
REMARK  9 active torsions:
REMARK  status: ('A' for Active; 'I' for Inactive)
REMARK    1  A    between atoms: C_1  and  C_2
REMARK    2  A    between atoms: C_3  and  N_4
REMARK    3  A    between atoms: N_4  and  C_5
REMARK    4  A    between atoms: C_5  and  C_6
REMARK    5  A    between atoms: C_6  and  C_7
REMARK    6  A    between atoms: C_7  and  C_8
REMARK    7  A    between atoms: C_7  and  C_9
REMARK    8  A    between atoms: C_13  and  N_14
REMARK    9  A    between atoms: C_21  and  C_22
REMARK                            x       y       z     vdW  Elec       q    Type
REMARK                         _______ _______ _______ _____ _____    ______ ____
ROOT
ATOM      1  C   UNL     1       1.200   9.407  19.310  0.00  0.00    +0.000 A 
ATOM      2  C   UNL     1       0.895   8.807  20.544  0.00  0.00    +0.000 A 
ATOM      3  C   UNL     1       1.466   7.589  20.912  0.00  0.00    +0.000 A 
ATOM      4  C   UNL     1       2.283   6.907  20.020  0.00  0.00    +0.000 A 
ATOM      5  C   UNL     1       2.432   7.390  18.714  0.00  0.00    +0.000 A 
ATOM      6  C   UNL     1       2.014   8.692  18.418  0.00  0.00    +0.000 A 
ENDROOT
BRANCH   5   7
ATOM      7  N   UNL     1       2.569   6.465  17.601  0.00  0.00    +0.000 N 
ATOM      8  C   UNL     1       1.687   5.287  17.806  0.00  0.00    +0.000 C 
ATOM      9  C   UNL     1       2.600   4.337  18.516  0.00  0.00    +0.000 A 
ATOM     10  C   UNL     1       3.907   4.649  18.129  0.00  0.00    +0.000 A 
ATOM     11  C   UNL     1       5.021   4.075  18.707  0.00  0.00    +0.000 A 
ATOM     12  C   UNL     1       4.804   3.156  19.732  0.00  0.00    +0.000 A 
ATOM     13  C   UNL     1       3.496   2.848  20.152  0.00  0.00    +0.000 A 
ATOM     14  C   UNL     1       2.361   3.434  19.549  0.00  0.00    +0.000 A 
ATOM     15  C   UNL     1       3.866   5.940  17.403  0.00  0.00    +0.000 C 
ATOM     16  O   UNL     1       4.848   6.489  16.934  0.00  0.00    +0.000 OA
BRANCH  14  17
ATOM     17  C   UNL     1       0.996   3.153  20.123  0.00  0.00    +0.000 C 
ATOM     18  F   UNL     1       0.292   4.268  20.462  0.00  0.00    +0.000 F 
ATOM     19  F   UNL     1       0.219   2.471  19.251  0.00  0.00    +0.000 F 
ATOM     20  F   UNL     1       1.056   2.395  21.253  0.00  0.00    +0.000 F 
ENDBRANCH  14  17
ENDBRANCH   5   7
BRANCH   1  21
ATOM     21  C   UNL     1       0.586  10.761  18.957  0.00  0.00    +0.000 C 
ATOM     22  C   UNL     1       0.496  11.655  20.204  0.00  0.00    +0.000 C 
BRANCH  21  23
ATOM     23  C   UNL     1      -0.787  10.641  18.260  0.00  0.00    +0.000 C 
BRANCH  23  24
ATOM     24  C   UNL     1      -1.531  11.961  18.100  0.00  0.00    +0.000 C 
BRANCH  24  25
ATOM     25  N   UNL     1      -2.735  11.739  17.320  0.00  0.00    +0.000 N 
ATOM     26  H   UNL     1      -2.623  11.470  16.345  0.00  0.00    +0.000 HD
BRANCH  25  29
ATOM     27  C   UNL     1      -6.461  11.596  17.885  0.00  0.00    +0.000 C 
ATOM     28  C   UNL     1      -5.138  11.808  17.228  0.00  0.00    +0.000 C 
ATOM     29  C   UNL     1      -3.981  11.561  17.848  0.00  0.00    +0.000 C 
ENDBRANCH  25  29
ENDBRANCH  24  25
ENDBRANCH  23  24
ENDBRANCH  21  23
ENDBRANCH   1  21
TORSDOF 7
ENDMDL
MODEL 6
REMARK VINA RESULT:      -7.9      3.414      4.497
REMARK  Name = 
REMARK  9 active torsions:
REMARK  status: ('A' for Active; 'I' for Inactive)
REMARK    1  A    between atoms: C_1  and  C_2
REMARK    2  A    between atoms: C_3  and  N_4
REMARK    3  A    between atoms: N_4  and  C_5
REMARK    4  A    between atoms: C_5  and  C_6
REMARK    5  A    between atoms: C_6  and  C_7
REMARK    6  A    between atoms: C_7  and  C_8
REMARK    7  A    between atoms: C_7  and  C_9
REMARK    8  A    between atoms: C_13  and  N_14
REMARK    9  A    between atoms: C_21  and  C_22
REMARK                            x       y       z     vdW  Elec       q    Type
REMARK                         _______ _______ _______ _____ _____    ______ ____
ROOT
ATOM      1  C   UNL     1       1.214   8.849  19.934  0.00  0.00    +0.000 A 
ATOM      2  C   UNL     1       1.654   9.349  18.696  0.00  0.00    +0.000 A 
ATOM      3  C   UNL     1       2.352   8.539  17.801  0.00  0.00    +0.000 A 
ATOM      4  C   UNL     1       2.699   7.243  18.161  0.00  0.00    +0.000 A 
ATOM      5  C   UNL     1       2.447   6.800  19.465  0.00  0.00    +0.000 A 
ATOM      6  C   UNL     1       1.590   7.544  20.283  0.00  0.00    +0.000 A 
ENDROOT
BRANCH   5   7
ATOM      7  N   UNL     1       3.372   5.889  20.121  0.00  0.00    +0.000 N 
ATOM      8  C   UNL     1       4.519   5.594  19.224  0.00  0.00    +0.000 C 
ATOM      9  C   UNL     1       4.045   4.365  18.512  0.00  0.00    +0.000 A 
ATOM     10  C   UNL     1       3.147   3.713  19.363  0.00  0.00    +0.000 A 
ATOM     11  C   UNL     1       2.396   2.623  18.971  0.00  0.00    +0.000 A 
ATOM     12  C   UNL     1       2.547   2.183  17.658  0.00  0.00    +0.000 A 
ATOM     13  C   UNL     1       3.428   2.843  16.780  0.00  0.00    +0.000 A 
ATOM     14  C   UNL     1       4.200   3.953  17.191  0.00  0.00    +0.000 A 
ATOM     15  C   UNL     1       2.836   4.633  20.481  0.00  0.00    +0.000 C 
ATOM     16  O   UNL     1       2.079   4.360  21.397  0.00  0.00    +0.000 OA
BRANCH  14  17
ATOM     17  C   UNL     1       5.034   4.687  16.172  0.00  0.00    +0.000 C 
ATOM     18  F   UNL     1       4.697   5.996  16.013  0.00  0.00    +0.000 F 
ATOM     19  F   UNL     1       6.346   4.676  16.500  0.00  0.00    +0.000 F 
ATOM     20  F   UNL     1       4.946   4.129  14.933  0.00  0.00    +0.000 F 
ENDBRANCH  14  17
ENDBRANCH   5   7
BRANCH   1  21
ATOM     21  C   UNL     1       0.417   9.754  20.873  0.00  0.00    +0.000 C 
ATOM     22  C   UNL     1      -0.260   8.924  21.976  0.00  0.00    +0.000 C 
BRANCH  21  23
ATOM     23  C   UNL     1      -0.611  10.638  20.135  0.00  0.00    +0.000 C 
BRANCH  23  24
ATOM     24  C   UNL     1      -0.482  12.129  20.422  0.00  0.00    +0.000 C 
BRANCH  24  25
ATOM     25  N   UNL     1      -0.248  12.324  21.841  0.00  0.00    +0.000 N 
ATOM     26  H   UNL     1       0.709  12.495  22.143  0.00  0.00    +0.000 HD
BRANCH  25  29
ATOM     27  C   UNL     1      -3.459  12.446  23.816  0.00  0.00    +0.000 C 
ATOM     28  C   UNL     1      -2.449  12.077  22.781  0.00  0.00    +0.000 C 
ATOM     29  C   UNL     1      -1.221  12.601  22.758  0.00  0.00    +0.000 C 
ENDBRANCH  25  29
ENDBRANCH  24  25
ENDBRANCH  23  24
ENDBRANCH  21  23
ENDBRANCH   1  21
TORSDOF 7
ENDMDL
MODEL 7
REMARK VINA RESULT:      -7.9      3.324      4.428
REMARK  Name = 
REMARK  9 active torsions:
REMARK  status: ('A' for Active; 'I' for Inactive)
REMARK    1  A    between atoms: C_1  and  C_2
REMARK    2  A    between atoms: C_3  and  N_4
REMARK    3  A    between atoms: N_4  and  C_5
REMARK    4  A    between atoms: C_5  and  C_6
REMARK    5  A    between atoms: C_6  and  C_7
REMARK    6  A    between atoms: C_7  and  C_8
REMARK    7  A    between atoms: C_7  and  C_9
REMARK    8  A    between atoms: C_13  and  N_14
REMARK    9  A    between atoms: C_21  and  C_22
REMARK                            x       y       z     vdW  Elec       q    Type
REMARK                         _______ _______ _______ _____ _____    ______ ____
ROOT
ATOM      1  C   UNL     1       1.767   8.051  20.037  0.00  0.00    +0.000 A 
ATOM      2  C   UNL     1       2.149   8.760  18.886  0.00  0.00    +0.000 A 
ATOM      3  C   UNL     1       2.702   8.103  17.788  0.00  0.00    +0.000 A 
ATOM      4  C   UNL     1       2.963   6.740  17.851  0.00  0.00    +0.000 A 
ATOM      5  C   UNL     1       2.778   6.059  19.061  0.00  0.00    +0.000 A 
ATOM      6  C   UNL     1       2.055   6.678  20.087  0.00  0.00    +0.000 A 
ENDROOT
BRANCH   5   7
ATOM      7  N   UNL     1       3.669   4.973  19.435  0.00  0.00    +0.000 N 
ATOM      8  C   UNL     1       5.077   5.449  19.441  0.00  0.00    +0.000 C 
ATOM      9  C   UNL     1       5.516   5.131  18.045  0.00  0.00    +0.000 A 
ATOM     10  C   UNL     1       4.746   4.051  17.604  0.00  0.00    +0.000 A 
ATOM     11  C   UNL     1       4.774   3.588  16.304  0.00  0.00    +0.000 A 
ATOM     12  C   UNL     1       5.605   4.257  15.407  0.00  0.00    +0.000 A 
ATOM     13  C   UNL     1       6.369   5.363  15.828  0.00  0.00    +0.000 A 
ATOM     14  C   UNL     1       6.341   5.824  17.163  0.00  0.00    +0.000 A 
ATOM     15  C   UNL     1       3.651   3.849  18.580  0.00  0.00    +0.000 C 
ATOM     16  O   UNL     1       2.801   2.980  18.480  0.00  0.00    +0.000 OA
BRANCH  14  17
ATOM     17  C   UNL     1       7.089   7.083  17.522  0.00  0.00    +0.000 C 
ATOM     18  F   UNL     1       7.816   6.994  18.669  0.00  0.00    +0.000 F 
ATOM     19  F   UNL     1       7.962   7.439  16.552  0.00  0.00    +0.000 F 
ATOM     20  F   UNL     1       6.256   8.147  17.693  0.00  0.00    +0.000 F 
ENDBRANCH  14  17
ENDBRANCH   5   7
BRANCH   1  21
ATOM     21  C   UNL     1       1.128   8.798  21.207  0.00  0.00    +0.000 C 
ATOM     22  C   UNL     1      -0.223   8.166  21.578  0.00  0.00    +0.000 C 
BRANCH  21  23
ATOM     23  C   UNL     1       0.978  10.313  20.949  0.00  0.00    +0.000 C 
BRANCH  23  24
ATOM     24  C   UNL     1      -0.434  10.851  21.147  0.00  0.00    +0.000 C 
BRANCH  24  25
ATOM     25  N   UNL     1      -0.915  11.401  19.893  0.00  0.00    +0.000 N 
ATOM     26  H   UNL     1      -0.970  12.413  19.811  0.00  0.00    +0.000 HD
BRANCH  25  29
ATOM     27  C   UNL     1      -2.123   9.778  16.710  0.00  0.00    +0.000 C 
ATOM     28  C   UNL     1      -2.106  10.573  17.973  0.00  0.00    +0.000 C 
ATOM     29  C   UNL     1      -1.008  10.702  18.723  0.00  0.00    +0.000 C 
ENDBRANCH  25  29
ENDBRANCH  24  25
ENDBRANCH  23  24
ENDBRANCH  21  23
ENDBRANCH   1  21
TORSDOF 7
ENDMDL
MODEL 8
REMARK VINA RESULT:      -7.9      3.564      4.486
REMARK  Name = 
REMARK  9 active torsions:
REMARK  status: ('A' for Active; 'I' for Inactive)
REMARK    1  A    between atoms: C_1  and  C_2
REMARK    2  A    between atoms: C_3  and  N_4
REMARK    3  A    between atoms: N_4  and  C_5
REMARK    4  A    between atoms: C_5  and  C_6
REMARK    5  A    between atoms: C_6  and  C_7
REMARK    6  A    between atoms: C_7  and  C_8
REMARK    7  A    between atoms: C_7  and  C_9
REMARK    8  A    between atoms: C_13  and  N_14
REMARK    9  A    between atoms: C_21  and  C_22
REMARK                            x       y       z     vdW  Elec       q    Type
REMARK                         _______ _______ _______ _____ _____    ______ ____
ROOT
ATOM      1  C   UNL     1       1.241   9.015  19.834  0.00  0.00    +0.000 A 
ATOM      2  C   UNL     1       1.672   9.409  18.556  0.00  0.00    +0.000 A 
ATOM      3  C   UNL     1       2.296   8.505  17.698  0.00  0.00    +0.000 A 
ATOM      4  C   UNL     1       2.578   7.215  18.131  0.00  0.00    +0.000 A 
ATOM      5  C   UNL     1       2.340   6.871  19.466  0.00  0.00    +0.000 A 
ATOM      6  C   UNL     1       1.551   7.713  20.257  0.00  0.00    +0.000 A 
ENDROOT
BRANCH   5   7
ATOM      7  N   UNL     1       3.229   5.950  20.156  0.00  0.00    +0.000 N 
ATOM      8  C   UNL     1       4.398   5.630  19.295  0.00  0.00    +0.000 C 
ATOM      9  C   UNL     1       3.926   4.404  18.577  0.00  0.00    +0.000 A 
ATOM     10  C   UNL     1       2.992   3.772  19.404  0.00  0.00    +0.000 A 
ATOM     11  C   UNL     1       2.236   2.692  18.997  0.00  0.00    +0.000 A 
ATOM     12  C   UNL     1       2.420   2.241  17.691  0.00  0.00    +0.000 A 
ATOM     13  C   UNL     1       3.338   2.881  16.836  0.00  0.00    +0.000 A 
ATOM     14  C   UNL     1       4.115   3.981  17.264  0.00  0.00    +0.000 A 
ATOM     15  C   UNL     1       2.663   4.705  20.507  0.00  0.00    +0.000 C 
ATOM     16  O   UNL     1       1.874   4.450  21.401  0.00  0.00    +0.000 OA
BRANCH  14  17
ATOM     17  C   UNL     1       4.990   4.695  16.266  0.00  0.00    +0.000 C 
ATOM     18  F   UNL     1       4.972   4.155  15.018  0.00  0.00    +0.000 F 
ATOM     19  F   UNL     1       4.625   5.989  16.119  0.00  0.00    +0.000 F 
ATOM     20  F   UNL     1       6.299   4.710  16.644  0.00  0.00    +0.000 F 
ENDBRANCH  14  17
ENDBRANCH   5   7
BRANCH   1  21
ATOM     21  C   UNL     1       0.525  10.022  20.734  0.00  0.00    +0.000 C 
ATOM     22  C   UNL     1       1.026  11.448  20.455  0.00  0.00    +0.000 C 
BRANCH  21  23
ATOM     23  C   UNL     1       0.636   9.679  22.235  0.00  0.00    +0.000 C 
BRANCH  23  24
ATOM     24  C   UNL     1      -0.666   9.824  23.014  0.00  0.00    +0.000 C 
BRANCH  24  25
ATOM     25  N   UNL     1      -0.993  11.233  23.138  0.00  0.00    +0.000 N 
ATOM     26  H   UNL     1      -0.247  11.907  22.984  0.00  0.00    +0.000 HD
BRANCH  25  29
ATOM     27  C   UNL     1      -4.194  13.034  22.280  0.00  0.00    +0.000 C 
ATOM     28  C   UNL     1      -2.799  12.512  22.193  0.00  0.00    +0.000 C 
ATOM     29  C   UNL     1      -2.262  11.738  23.140  0.00  0.00    +0.000 C 
ENDBRANCH  25  29
ENDBRANCH  24  25
ENDBRANCH  23  24
ENDBRANCH  21  23
ENDBRANCH   1  21
TORSDOF 7
ENDMDL
MODEL 9
REMARK VINA RESULT:      -7.9      4.251      6.916
REMARK  Name = 
REMARK  9 active torsions:
REMARK  status: ('A' for Active; 'I' for Inactive)
REMARK    1  A    between atoms: C_1  and  C_2
REMARK    2  A    between atoms: C_3  and  N_4
REMARK    3  A    between atoms: N_4  and  C_5
REMARK    4  A    between atoms: C_5  and  C_6
REMARK    5  A    between atoms: C_6  and  C_7
REMARK    6  A    between atoms: C_7  and  C_8
REMARK    7  A    between atoms: C_7  and  C_9
REMARK    8  A    between atoms: C_13  and  N_14
REMARK    9  A    between atoms: C_21  and  C_22
REMARK                            x       y       z     vdW  Elec       q    Type
REMARK                         _______ _______ _______ _____ _____    ______ ____
ROOT
ATOM      1  C   UNL     1       5.618   4.602  15.431  0.00  0.00    +0.000 A 
ATOM      2  C   UNL     1       5.913   5.842  16.022  0.00  0.00    +0.000 A 
ATOM      3  C   UNL     1       5.306   6.233  17.214  0.00  0.00    +0.000 A 
ATOM      4  C   UNL     1       4.331   5.432  17.794  0.00  0.00    +0.000 A 
ATOM      5  C   UNL     1       3.881   4.295  17.112  0.00  0.00    +0.000 A 
ATOM      6  C   UNL     1       4.618   3.816  16.023  0.00  0.00    +0.000 A 
ENDROOT
BRANCH   5   7
ATOM      7  N   UNL     1       2.487   3.889  17.203  0.00  0.00    +0.000 N 
ATOM      8  C   UNL     1       1.686   4.962  17.848  0.00  0.00    +0.000 C 
ATOM      9  C   UNL     1       1.742   4.564  19.291  0.00  0.00    +0.000 A 
ATOM     10  C   UNL     1       1.917   3.177  19.332  0.00  0.00    +0.000 A 
ATOM     11  C   UNL     1       2.165   2.484  20.500  0.00  0.00    +0.000 A 
ATOM     12  C   UNL     1       2.256   3.228  21.674  0.00  0.00    +0.000 A 
ATOM     13  C   UNL     1       2.107   4.628  21.648  0.00  0.00    +0.000 A 
ATOM     14  C   UNL     1       1.845   5.328  20.450  0.00  0.00    +0.000 A 
ATOM     15  C   UNL     1       2.241   2.722  17.960  0.00  0.00    +0.000 C 
ATOM     16  O   UNL     1       2.452   1.560  17.660  0.00  0.00    +0.000 OA
BRANCH  14  17
ATOM     17  C   UNL     1       1.815   6.835  20.470  0.00  0.00    +0.000 C 
ATOM     18  F   UNL     1       2.863   7.424  19.834  0.00  0.00    +0.000 F 
ATOM     19  F   UNL     1       0.699   7.320  19.878  0.00  0.00    +0.000 F 
ATOM     20  F   UNL     1       1.821   7.336  21.737  0.00  0.00    +0.000 F 
ENDBRANCH  14  17
ENDBRANCH   5   7
BRANCH   1  21
ATOM     21  C   UNL     1       6.332   4.189  14.144  0.00  0.00    +0.000 C 
ATOM     22  C   UNL     1       7.524   5.119  13.866  0.00  0.00    +0.000 C 
BRANCH  21  23
ATOM     23  C   UNL     1       5.388   4.119  12.924  0.00  0.00    +0.000 C 
BRANCH  23  24
ATOM     24  C   UNL     1       5.532   2.854  12.087  0.00  0.00    +0.000 C 
BRANCH  24  25
ATOM     25  N   UNL     1       4.405   2.752  11.177  0.00  0.00    +0.000 N 
ATOM     26  H   UNL     1       3.890   1.875  11.158  0.00  0.00    +0.000 HD
BRANCH  25  29
ATOM     27  C   UNL     1       2.247   4.963   9.013  0.00  0.00    +0.000 C 
ATOM     28  C   UNL     1       2.857   3.746   9.627  0.00  0.00    +0.000 C 
ATOM     29  C   UNL     1       3.793   3.815  10.577  0.00  0.00    +0.000 C 
ENDBRANCH  25  29
ENDBRANCH  24  25
ENDBRANCH  23  24
ENDBRANCH  21  23
ENDBRANCH   1  21
TORSDOF 7
ENDMDL
