MODEL 1
REMARK VINA RESULT:      -9.3      0.000      0.000
REMARK  Name = 
REMARK  6 active torsions:
REMARK  status: ('A' for Active; 'I' for Inactive)
REMARK    1  A    between atoms: C_2  and  C_3
REMARK    2  A    between atoms: C_3  and  N_4
REMARK    3  A    between atoms: C_8  and  C_9
REMARK    4  A    between atoms: C_8  and  C_16
REMARK    5  A    between atoms: C_9  and  C_10
REMARK    6  A    between atoms: N_24  and  C_25
REMARK                            x       y       z     vdW  Elec       q    Type
REMARK                         _______ _______ _______ _____ _____    ______ ____
ROOT
ATOM      1  N   UNL     1       6.915   5.699  17.943  0.00  0.00    +0.000 N 
ATOM      2  C   UNL     1       7.369   4.510  17.454  0.00  0.00    +0.000 C 
ATOM      3  O   UNL     1       8.473   4.034  17.607  0.00  0.00    +0.000 OA
ATOM      4  N   UNL     1       6.363   3.919  16.740  0.00  0.00    +0.000 N 
ATOM      5  C   UNL     1       5.129   4.684  16.710  0.00  0.00    +0.000 C 
ATOM      6  C   UNL     1       5.595   5.880  17.600  0.00  0.00    +0.000 C 
ATOM      7  O   UNL     1       4.900   6.825  17.955  0.00  0.00    +0.000 OA
ATOM      8  H   UNL     1       6.478   3.000  16.333  0.00  0.00    +0.000 HD
ENDROOT
BRANCH   5   9
ATOM      9  C   UNL     1       3.980   3.946  17.374  0.00  0.00    +0.000 A 
ATOM     10  C   UNL     1       2.731   4.567  17.515  0.00  0.00    +0.000 A 
ATOM     11  C   UNL     1       1.642   3.855  18.002  0.00  0.00    +0.000 A 
ATOM     12  C   UNL     1       1.778   2.512  18.343  0.00  0.00    +0.000 A 
ATOM     13  C   UNL     1       3.011   1.886  18.248  0.00  0.00    +0.000 A 
ATOM     14  C   UNL     1       4.108   2.608  17.792  0.00  0.00    +0.000 A 
ENDBRANCH   5   9
BRANCH   1  15
ATOM     15  C   UNL     1       7.654   6.545  18.851  0.00  0.00    +0.000 C 
BRANCH  15  17
ATOM     16  O   UNL     1       8.033   8.034  16.980  0.00  0.00    +0.000 OA
ATOM     17  C   UNL     1       8.171   7.818  18.167  0.00  0.00    +0.000 C 
ATOM     18  N   UNL     1       8.746   8.757  19.018  0.00  0.00    +0.000 N 
ATOM     19  H   UNL     1       8.645   8.569  20.005  0.00  0.00    +0.000 HD
BRANCH  18  20
ATOM     20  C   UNL     1       9.263  10.056  18.597  0.00  0.00    +0.000 C 
ATOM     21  C   UNL     1       9.955  10.740  19.787  0.00  0.00    +0.000 C 
ATOM     22  C   UNL     1      10.498  12.114  19.399  0.00  0.00    +0.000 C 
ATOM     23  C   UNL     1       9.397  13.006  18.831  0.00  0.00    +0.000 C 
ATOM     24  C   UNL     1       8.687  12.337  17.657  0.00  0.00    +0.000 C 
ATOM     25  C   UNL     1       8.151  10.954  18.034  0.00  0.00    +0.000 C 
ENDBRANCH  18  20
ENDBRANCH  15  17
ENDBRANCH   1  15
BRANCH   5  26
ATOM     26  C   UNL     1       4.791   5.206  15.295  0.00  0.00    +0.000 C 
BRANCH  26  27
ATOM     27  C   UNL     1       5.654   4.683  14.169  0.00  0.00    +0.000 A 
ATOM     28  C   UNL     1       5.158   3.697  13.301  0.00  0.00    +0.000 A 
ATOM     29  C   UNL     1       5.950   3.202  12.274  0.00  0.00    +0.000 A 
ATOM     30  C   UNL     1       7.217   3.738  12.059  0.00  0.00    +0.000 A 
ATOM     31  C   UNL     1       7.697   4.758  12.883  0.00  0.00    +0.000 A 
ATOM     32  C   UNL     1       6.930   5.208  13.949  0.00  0.00    +0.000 A 
ENDBRANCH  26  27
ENDBRANCH   5  26
TORSDOF 6
ENDMDL
MODEL 2
REMARK VINA RESULT:      -9.2      3.106      6.596
REMARK  Name = 
REMARK  6 active torsions:
REMARK  status: ('A' for Active; 'I' for Inactive)
REMARK    1  A    between atoms: C_2  and  C_3
REMARK    2  A    between atoms: C_3  and  N_4
REMARK    3  A    between atoms: C_8  and  C_9
REMARK    4  A    between atoms: C_8  and  C_16
REMARK    5  A    between atoms: C_9  and  C_10
REMARK    6  A    between atoms: N_24  and  C_25
REMARK                            x       y       z     vdW  Elec       q    Type
REMARK                         _______ _______ _______ _____ _____    ______ ____
ROOT
ATOM      1  N   UNL     1       5.413   6.212  18.054  0.00  0.00    +0.000 N 
ATOM      2  C   UNL     1       5.159   5.636  19.264  0.00  0.00    +0.000 C 
ATOM      3  O   UNL     1       5.967   5.133  20.015  0.00  0.00    +0.000 OA
ATOM      4  N   UNL     1       3.815   5.707  19.507  0.00  0.00    +0.000 N 
ATOM      5  C   UNL     1       3.056   6.364  18.458  0.00  0.00    +0.000 C 
ATOM      6  C   UNL     1       4.251   6.711  17.513  0.00  0.00    +0.000 C 
ATOM      7  O   UNL     1       4.178   7.342  16.465  0.00  0.00    +0.000 OA
ATOM      8  H   UNL     1       3.421   5.379  20.380  0.00  0.00    +0.000 HD
ENDROOT
BRANCH   5   9
ATOM      9  C   UNL     1       2.380   7.633  18.946  0.00  0.00    +0.000 A 
ATOM     10  C   UNL     1       2.150   8.695  18.060  0.00  0.00    +0.000 A 
ATOM     11  C   UNL     1       1.418   9.804  18.466  0.00  0.00    +0.000 A 
ATOM     12  C   UNL     1       0.895   9.865  19.755  0.00  0.00    +0.000 A 
ATOM     13  C   UNL     1       1.141   8.845  20.660  0.00  0.00    +0.000 A 
ATOM     14  C   UNL     1       1.900   7.751  20.264  0.00  0.00    +0.000 A 
ENDBRANCH   5   9
BRANCH   1  15
ATOM     15  C   UNL     1       6.735   6.436  17.518  0.00  0.00    +0.000 C 
BRANCH  15  17
ATOM     16  O   UNL     1       7.926   4.473  16.751  0.00  0.00    +0.000 OA
ATOM     17  C   UNL     1       7.138   5.361  16.499  0.00  0.00    +0.000 C 
ATOM     18  N   UNL     1       6.474   5.424  15.277  0.00  0.00    +0.000 N 
ATOM     19  H   UNL     1       5.707   6.080  15.232  0.00  0.00    +0.000 HD
BRANCH  18  20
ATOM     20  C   UNL     1       6.662   4.481  14.178  0.00  0.00    +0.000 C 
ATOM     21  C   UNL     1       7.431   5.171  13.039  0.00  0.00    +0.000 C 
ATOM     22  C   UNL     1       7.636   4.227  11.856  0.00  0.00    +0.000 C 
ATOM     23  C   UNL     1       6.307   3.674  11.351  0.00  0.00    +0.000 C 
ATOM     24  C   UNL     1       5.521   2.997  12.472  0.00  0.00    +0.000 C 
ATOM     25  C   UNL     1       5.322   3.932  13.666  0.00  0.00    +0.000 C 
ENDBRANCH  18  20
ENDBRANCH  15  17
ENDBRANCH   1  15
BRANCH   5  26
ATOM     26  C   UNL     1       2.097   5.397  17.727  0.00  0.00    +0.000 C 
BRANCH  26  27
ATOM     27  C   UNL     1       2.114   3.960  18.199  0.00  0.00    +0.000 A 
ATOM     28  C   UNL     1       3.000   3.039  17.618  0.00  0.00    +0.000 A 
ATOM     29  C   UNL     1       3.011   1.714  18.036  0.00  0.00    +0.000 A 
ATOM     30  C   UNL     1       2.191   1.316  19.089  0.00  0.00    +0.000 A 
ATOM     31  C   UNL     1       1.347   2.238  19.709  0.00  0.00    +0.000 A 
ATOM     32  C   UNL     1       1.290   3.546  19.249  0.00  0.00    +0.000 A 
ENDBRANCH  26  27
ENDBRANCH   5  26
TORSDOF 6
ENDMDL
MODEL 3
REMARK VINA RESULT:      -9.1      2.524      4.303
REMARK  Name = 
REMARK  6 active torsions:
REMARK  status: ('A' for Active; 'I' for Inactive)
REMARK    1  A    between atoms: C_2  and  C_3
REMARK    2  A    between atoms: C_3  and  N_4
REMARK    3  A    between atoms: C_8  and  C_9
REMARK    4  A    between atoms: C_8  and  C_16
REMARK    5  A    between atoms: C_9  and  C_10
REMARK    6  A    between atoms: N_24  and  C_25
REMARK                            x       y       z     vdW  Elec       q    Type
REMARK                         _______ _______ _______ _____ _____    ______ ____
ROOT
ATOM      1  N   UNL     1       6.691   6.384  17.989  0.00  0.00    +0.000 N 
ATOM      2  C   UNL     1       6.407   5.736  19.156  0.00  0.00    +0.000 C 
ATOM      3  O   UNL     1       7.185   5.460  20.043  0.00  0.00    +0.000 OA
ATOM      4  N   UNL     1       5.074   5.430  19.172  0.00  0.00    +0.000 N 
ATOM      5  C   UNL     1       4.349   5.873  17.994  0.00  0.00    +0.000 C 
ATOM      6  C   UNL     1       5.543   6.555  17.251  0.00  0.00    +0.000 C 
ATOM      7  O   UNL     1       5.475   7.162  16.188  0.00  0.00    +0.000 OA
ATOM      8  H   UNL     1       4.646   4.989  19.976  0.00  0.00    +0.000 HD
ENDROOT
BRANCH   5   9
ATOM      9  C   UNL     1       3.280   6.898  18.330  0.00  0.00    +0.000 A 
ATOM     10  C   UNL     1       2.671   6.893  19.592  0.00  0.00    +0.000 A 
ATOM     11  C   UNL     1       1.788   7.904  19.952  0.00  0.00    +0.000 A 
ATOM     12  C   UNL     1       1.511   8.941  19.065  0.00  0.00    +0.000 A 
ATOM     13  C   UNL     1       2.072   8.948  17.797  0.00  0.00    +0.000 A 
ATOM     14  C   UNL     1       2.929   7.919  17.426  0.00  0.00    +0.000 A 
ENDBRANCH   5   9
BRANCH   1  15
ATOM     15  C   UNL     1       7.970   6.973  17.673  0.00  0.00    +0.000 C 
BRANCH  15  17
ATOM     16  O   UNL     1       7.168   9.228  17.302  0.00  0.00    +0.000 OA
ATOM     17  C   UNL     1       7.967   8.498  17.853  0.00  0.00    +0.000 C 
ATOM     18  N   UNL     1       8.899   8.990  18.762  0.00  0.00    +0.000 N 
ATOM     19  H   UNL     1       9.387   8.292  19.305  0.00  0.00    +0.000 HD
BRANCH  18  20
ATOM     20  C   UNL     1       9.046  10.397  19.125  0.00  0.00    +0.000 C 
ATOM     21  C   UNL     1      10.080  11.058  18.200  0.00  0.00    +0.000 C 
ATOM     22  C   UNL     1      10.282  12.530  18.554  0.00  0.00    +0.000 C 
ATOM     23  C   UNL     1      10.682  12.698  20.017  0.00  0.00    +0.000 C 
ATOM     24  C   UNL     1       9.673  12.035  20.952  0.00  0.00    +0.000 C 
ATOM     25  C   UNL     1       9.456  10.563  20.596  0.00  0.00    +0.000 C 
ENDBRANCH  18  20
ENDBRANCH  15  17
ENDBRANCH   1  15
BRANCH   5  26
ATOM     26  C   UNL     1       3.828   4.694  17.142  0.00  0.00    +0.000 C 
BRANCH  26  27
ATOM     27  C   UNL     1       2.969   3.680  17.863  0.00  0.00    +0.000 A 
ATOM     28  C   UNL     1       1.585   3.885  17.980  0.00  0.00    +0.000 A 
ATOM     29  C   UNL     1       0.792   2.965  18.654  0.00  0.00    +0.000 A 
ATOM     30  C   UNL     1       1.363   1.797  19.153  0.00  0.00    +0.000 A 
ATOM     31  C   UNL     1       2.728   1.559  18.992  0.00  0.00    +0.000 A 
ATOM     32  C   UNL     1       3.532   2.508  18.375  0.00  0.00    +0.000 A 
ENDBRANCH  26  27
ENDBRANCH   5  26
TORSDOF 6
ENDMDL
MODEL 4
REMARK VINA RESULT:      -9.0      0.879      4.446
REMARK  Name = 
REMARK  6 active torsions:
REMARK  status: ('A' for Active; 'I' for Inactive)
REMARK    1  A    between atoms: C_2  and  C_3
REMARK    2  A    between atoms: C_3  and  N_4
REMARK    3  A    between atoms: C_8  and  C_9
REMARK    4  A    between atoms: C_8  and  C_16
REMARK    5  A    between atoms: C_9  and  C_10
REMARK    6  A    between atoms: N_24  and  C_25
REMARK                            x       y       z     vdW  Elec       q    Type
REMARK                         _______ _______ _______ _____ _____    ______ ____
ROOT
ATOM      1  N   UNL     1       6.630   5.937  17.719  0.00  0.00    +0.000 N 
ATOM      2  C   UNL     1       5.431   6.450  17.319  0.00  0.00    +0.000 C 
ATOM      3  O   UNL     1       4.910   7.473  17.709  0.00  0.00    +0.000 OA
ATOM      4  N   UNL     1       4.886   5.610  16.388  0.00  0.00    +0.000 N 
ATOM      5  C   UNL     1       5.707   4.452  16.080  0.00  0.00    +0.000 C 
ATOM      6  C   UNL     1       6.909   4.784  17.022  0.00  0.00    +0.000 C 
ATOM      7  O   UNL     1       7.946   4.138  17.118  0.00  0.00    +0.000 OA
ATOM      8  H   UNL     1       4.015   5.834  15.924  0.00  0.00    +0.000 HD
ENDROOT
BRANCH   5   9
ATOM      9  C   UNL     1       6.159   4.437  14.630  0.00  0.00    +0.000 A 
ATOM     10  C   UNL     1       7.259   5.205  14.227  0.00  0.00    +0.000 A 
ATOM     11  C   UNL     1       7.758   5.097  12.934  0.00  0.00    +0.000 A 
ATOM     12  C   UNL     1       7.176   4.212  12.030  0.00  0.00    +0.000 A 
ATOM     13  C   UNL     1       6.064   3.469  12.395  0.00  0.00    +0.000 A 
ATOM     14  C   UNL     1       5.546   3.602  13.677  0.00  0.00    +0.000 A 
ENDBRANCH   5   9
BRANCH   1  15
ATOM     15  C   UNL     1       7.554   6.612  18.600  0.00  0.00    +0.000 C 
BRANCH  15  17
ATOM     16  O   UNL     1       8.098   8.106  16.774  0.00  0.00    +0.000 OA
ATOM     17  C   UNL     1       8.134   7.884  17.967  0.00  0.00    +0.000 C 
ATOM     18  N   UNL     1       8.640   8.817  18.867  0.00  0.00    +0.000 N 
ATOM     19  H   UNL     1       8.455   8.626  19.842  0.00  0.00    +0.000 HD
BRANCH  18  20
ATOM     20  C   UNL     1       9.198  10.115  18.497  0.00  0.00    +0.000 C 
ATOM     21  C   UNL     1       9.903  10.733  19.714  0.00  0.00    +0.000 C 
ATOM     22  C   UNL     1      10.489  12.104  19.380  0.00  0.00    +0.000 C 
ATOM     23  C   UNL     1       9.418  13.048  18.839  0.00  0.00    +0.000 C 
ATOM     24  C   UNL     1       8.696  12.444  17.637  0.00  0.00    +0.000 C 
ATOM     25  C   UNL     1       8.117  11.065  17.961  0.00  0.00    +0.000 C 
ENDBRANCH  18  20
ENDBRANCH  15  17
ENDBRANCH   1  15
BRANCH   5  26
ATOM     26  C   UNL     1       5.056   3.127  16.538  0.00  0.00    +0.000 C 
BRANCH  26  27
ATOM     27  C   UNL     1       3.967   3.246  17.579  0.00  0.00    +0.000 A 
ATOM     28  C   UNL     1       2.621   3.329  17.184  0.00  0.00    +0.000 A 
ATOM     29  C   UNL     1       1.616   3.453  18.135  0.00  0.00    +0.000 A 
ATOM     30  C   UNL     1       1.939   3.421  19.489  0.00  0.00    +0.000 A 
ATOM     31  C   UNL     1       3.268   3.282  19.891  0.00  0.00    +0.000 A 
ATOM     32  C   UNL     1       4.279   3.223  18.941  0.00  0.00    +0.000 A 
ENDBRANCH  26  27
ENDBRANCH   5  26
TORSDOF 6
ENDMDL
MODEL 5
REMARK VINA RESULT:      -9.0      0.314      1.249
REMARK  Name = 
REMARK  6 active torsions:
REMARK  status: ('A' for Active; 'I' for Inactive)
REMARK    1  A    between atoms: C_2  and  C_3
REMARK    2  A    between atoms: C_3  and  N_4
REMARK    3  A    between atoms: C_8  and  C_9
REMARK    4  A    between atoms: C_8  and  C_16
REMARK    5  A    between atoms: C_9  and  C_10
REMARK    6  A    between atoms: N_24  and  C_25
REMARK                            x       y       z     vdW  Elec       q    Type
REMARK                         _______ _______ _______ _____ _____    ______ ____
ROOT
ATOM      1  N   UNL     1       6.942   5.634  18.016  0.00  0.00    +0.000 N 
ATOM      2  C   UNL     1       7.404   4.464  17.489  0.00  0.00    +0.000 C 
ATOM      3  O   UNL     1       8.523   4.010  17.594  0.00  0.00    +0.000 OA
ATOM      4  N   UNL     1       6.387   3.864  16.799  0.00  0.00    +0.000 N 
ATOM      5  C   UNL     1       5.136   4.602  16.826  0.00  0.00    +0.000 C 
ATOM      6  C   UNL     1       5.607   5.792  17.721  0.00  0.00    +0.000 C 
ATOM      7  O   UNL     1       4.905   6.714  18.118  0.00  0.00    +0.000 OA
ATOM      8  H   UNL     1       6.507   2.956  16.370  0.00  0.00    +0.000 HD
ENDROOT
BRANCH   5   9
ATOM      9  C   UNL     1       4.027   3.827  17.515  0.00  0.00    +0.000 A 
ATOM     10  C   UNL     1       4.339   2.844  18.465  0.00  0.00    +0.000 A 
ATOM     11  C   UNL     1       3.331   2.224  19.193  0.00  0.00    +0.000 A 
ATOM     12  C   UNL     1       2.001   2.583  18.995  0.00  0.00    +0.000 A 
ATOM     13  C   UNL     1       1.664   3.524  18.035  0.00  0.00    +0.000 A 
ATOM     14  C   UNL     1       2.670   4.121  17.284  0.00  0.00    +0.000 A 
ENDBRANCH   5   9
BRANCH   1  15
ATOM     15  C   UNL     1       7.694   6.479  18.913  0.00  0.00    +0.000 C 
BRANCH  15  17
ATOM     16  O   UNL     1       7.964   8.015  17.062  0.00  0.00    +0.000 OA
ATOM     17  C   UNL     1       8.166   7.772  18.234  0.00  0.00    +0.000 C 
ATOM     18  N   UNL     1       8.779   8.695  19.076  0.00  0.00    +0.000 N 
ATOM     19  H   UNL     1       8.732   8.482  20.062  0.00  0.00    +0.000 HD
BRANCH  18  20
ATOM     20  C   UNL     1       9.265  10.008  18.660  0.00  0.00    +0.000 C 
ATOM     21  C   UNL     1       9.870  10.735  19.871  0.00  0.00    +0.000 C 
ATOM     22  C   UNL     1      10.377  12.124  19.488  0.00  0.00    +0.000 C 
ATOM     23  C   UNL     1       9.271  12.963  18.853  0.00  0.00    +0.000 C 
ATOM     24  C   UNL     1       8.647  12.250  17.656  0.00  0.00    +0.000 C 
ATOM     25  C   UNL     1       8.148  10.852  18.028  0.00  0.00    +0.000 C 
ENDBRANCH  18  20
ENDBRANCH  15  17
ENDBRANCH   1  15
BRANCH   5  26
ATOM     26  C   UNL     1       4.738   5.142  15.433  0.00  0.00    +0.000 C 
BRANCH  26  27
ATOM     27  C   UNL     1       5.612   4.711  14.277  0.00  0.00    +0.000 A 
ATOM     28  C   UNL     1       6.883   5.282  14.104  0.00  0.00    +0.000 A 
ATOM     29  C   UNL     1       7.684   4.902  13.036  0.00  0.00    +0.000 A 
ATOM     30  C   UNL     1       7.256   3.894  12.175  0.00  0.00    +0.000 A 
ATOM     31  C   UNL     1       6.018   3.281  12.373  0.00  0.00    +0.000 A 
ATOM     32  C   UNL     1       5.189   3.707  13.402  0.00  0.00    +0.000 A 
ENDBRANCH  26  27
ENDBRANCH   5  26
TORSDOF 6
ENDMDL
MODEL 6
REMARK VINA RESULT:      -8.6      1.058      4.531
REMARK  Name = 
REMARK  6 active torsions:
REMARK  status: ('A' for Active; 'I' for Inactive)
REMARK    1  A    between atoms: C_2  and  C_3
REMARK    2  A    between atoms: C_3  and  N_4
REMARK    3  A    between atoms: C_8  and  C_9
REMARK    4  A    between atoms: C_8  and  C_16
REMARK    5  A    between atoms: C_9  and  C_10
REMARK    6  A    between atoms: N_24  and  C_25
REMARK                            x       y       z     vdW  Elec       q    Type
REMARK                         _______ _______ _______ _____ _____    ______ ____
ROOT
ATOM      1  N   UNL     1       6.961   6.071  17.681  0.00  0.00    +0.000 N 
ATOM      2  C   UNL     1       5.815   6.651  17.221  0.00  0.00    +0.000 C 
ATOM      3  O   UNL     1       5.360   7.725  17.549  0.00  0.00    +0.000 OA
ATOM      4  N   UNL     1       5.238   5.811  16.309  0.00  0.00    +0.000 N 
ATOM      5  C   UNL     1       5.981   4.584  16.078  0.00  0.00    +0.000 C 
ATOM      6  C   UNL     1       7.175   4.871  17.043  0.00  0.00    +0.000 C 
ATOM      7  O   UNL     1       8.159   4.157  17.202  0.00  0.00    +0.000 OA
ATOM      8  H   UNL     1       4.400   6.075  15.808  0.00  0.00    +0.000 HD
ENDROOT
BRANCH   5   9
ATOM      9  C   UNL     1       6.472   4.471  14.646  0.00  0.00    +0.000 A 
ATOM     10  C   UNL     1       5.855   3.580  13.757  0.00  0.00    +0.000 A 
ATOM     11  C   UNL     1       6.212   3.564  12.415  0.00  0.00    +0.000 A 
ATOM     12  C   UNL     1       7.179   4.444  11.936  0.00  0.00    +0.000 A 
ATOM     13  C   UNL     1       7.830   5.308  12.803  0.00  0.00    +0.000 A 
ATOM     14  C   UNL     1       7.496   5.301  14.151  0.00  0.00    +0.000 A 
ENDBRANCH   5   9
BRANCH   1  15
ATOM     15  C   UNL     1       7.906   6.717  18.562  0.00  0.00    +0.000 C 
BRANCH  15  17
ATOM     16  O   UNL     1       7.921   8.599  17.039  0.00  0.00    +0.000 OA
ATOM     17  C   UNL     1       8.201   8.162  18.137  0.00  0.00    +0.000 C 
ATOM     18  N   UNL     1       8.746   8.973  19.128  0.00  0.00    +0.000 N 
ATOM     19  H   UNL     1       8.767   8.572  20.055  0.00  0.00    +0.000 HD
BRANCH  18  20
ATOM     20  C   UNL     1       9.064  10.388  18.964  0.00  0.00    +0.000 C 
ATOM     21  C   UNL     1      10.243  10.537  17.989  0.00  0.00    +0.000 C 
ATOM     22  C   UNL     1      10.626  12.003  17.799  0.00  0.00    +0.000 C 
ATOM     23  C   UNL     1      10.944  12.670  19.135  0.00  0.00    +0.000 C 
ATOM     24  C   UNL     1       9.790  12.521  20.123  0.00  0.00    +0.000 C 
ATOM     25  C   UNL     1       9.392  11.055  20.309  0.00  0.00    +0.000 C 
ENDBRANCH  18  20
ENDBRANCH  15  17
ENDBRANCH   1  15
BRANCH   5  26
ATOM     26  C   UNL     1       5.221   3.331  16.571  0.00  0.00    +0.000 C 
BRANCH  26  27
ATOM     27  C   UNL     1       4.073   3.581  17.522  0.00  0.00    +0.000 A 
ATOM     28  C   UNL     1       2.759   3.667  17.033  0.00  0.00    +0.000 A 
ATOM     29  C   UNL     1       1.701   3.911  17.899  0.00  0.00    +0.000 A 
ATOM     30  C   UNL     1       1.936   3.997  19.269  0.00  0.00    +0.000 A 
ATOM     31  C   UNL     1       3.231   3.856  19.770  0.00  0.00    +0.000 A 
ATOM     32  C   UNL     1       4.297   3.677  18.898  0.00  0.00    +0.000 A 
ENDBRANCH  26  27
ENDBRANCH   5  26
TORSDOF 6
ENDMDL
MODEL 7
REMARK VINA RESULT:      -8.4      3.142      6.770
REMARK  Name = 
REMARK  6 active torsions:
REMARK  status: ('A' for Active; 'I' for Inactive)
REMARK    1  A    between atoms: C_2  and  C_3
REMARK    2  A    between atoms: C_3  and  N_4
REMARK    3  A    between atoms: C_8  and  C_9
REMARK    4  A    between atoms: C_8  and  C_16
REMARK    5  A    between atoms: C_9  and  C_10
REMARK    6  A    between atoms: N_24  and  C_25
REMARK                            x       y       z     vdW  Elec       q    Type
REMARK                         _______ _______ _______ _____ _____    ______ ____
ROOT
ATOM      1  N   UNL     1       5.478   6.272  17.951  0.00  0.00    +0.000 N 
ATOM      2  C   UNL     1       4.572   6.820  17.091  0.00  0.00    +0.000 C 
ATOM      3  O   UNL     1       4.810   7.404  16.056  0.00  0.00    +0.000 OA
ATOM      4  N   UNL     1       3.316   6.610  17.590  0.00  0.00    +0.000 N 
ATOM      5  C   UNL     1       3.290   5.877  18.844  0.00  0.00    +0.000 C 
ATOM      6  C   UNL     1       4.829   5.655  18.995  0.00  0.00    +0.000 C 
ATOM      7  O   UNL     1       5.379   5.019  19.887  0.00  0.00    +0.000 OA
ATOM      8  H   UNL     1       2.492   6.896  17.077  0.00  0.00    +0.000 HD
ENDROOT
BRANCH   5   9
ATOM      9  C   UNL     1       2.572   4.545  18.715  0.00  0.00    +0.000 A 
ATOM     10  C   UNL     1       3.019   3.590  17.791  0.00  0.00    +0.000 A 
ATOM     11  C   UNL     1       2.451   2.322  17.759  0.00  0.00    +0.000 A 
ATOM     12  C   UNL     1       1.440   1.984  18.655  0.00  0.00    +0.000 A 
ATOM     13  C   UNL     1       0.956   2.923  19.552  0.00  0.00    +0.000 A 
ATOM     14  C   UNL     1       1.502   4.200  19.562  0.00  0.00    +0.000 A 
ENDBRANCH   5   9
BRANCH   1  15
ATOM     15  C   UNL     1       6.897   6.186  17.696  0.00  0.00    +0.000 C 
BRANCH  15  17
ATOM     16  O   UNL     1       7.903   4.149  16.860  0.00  0.00    +0.000 OA
ATOM     17  C   UNL     1       7.232   5.134  16.629  0.00  0.00    +0.000 C 
ATOM     18  N   UNL     1       6.643   5.342  15.386  0.00  0.00    +0.000 N 
ATOM     19  H   UNL     1       5.955   6.081  15.348  0.00  0.00    +0.000 HD
BRANCH  18  20
ATOM     20  C   UNL     1       6.783   4.449  14.238  0.00  0.00    +0.000 C 
ATOM     21  C   UNL     1       7.490   5.195  13.095  0.00  0.00    +0.000 C 
ATOM     22  C   UNL     1       7.643   4.305  11.863  0.00  0.00    +0.000 C 
ATOM     23  C   UNL     1       6.294   3.762  11.400  0.00  0.00    +0.000 C 
ATOM     24  C   UNL     1       5.570   3.030  12.526  0.00  0.00    +0.000 C 
ATOM     25  C   UNL     1       5.423   3.911  13.769  0.00  0.00    +0.000 C 
ENDBRANCH  18  20
ENDBRANCH  15  17
ENDBRANCH   1  15
BRANCH   5  26
ATOM     26  C   UNL     1       2.784   6.739  20.023  0.00  0.00    +0.000 C 
BRANCH  26  27
ATOM     27  C   UNL     1       1.910   7.918  19.658  0.00  0.00    +0.000 A 
ATOM     28  C   UNL     1       1.107   8.528  20.635  0.00  0.00    +0.000 A 
ATOM     29  C   UNL     1       0.290   9.601  20.303  0.00  0.00    +0.000 A 
ATOM     30  C   UNL     1       0.324  10.122  19.012  0.00  0.00    +0.000 A 
ATOM     31  C   UNL     1       1.161   9.557  18.049  0.00  0.00    +0.000 A 
ATOM     32  C   UNL     1       1.929   8.444  18.363  0.00  0.00    +0.000 A 
ENDBRANCH  26  27
ENDBRANCH   5  26
TORSDOF 6
ENDMDL
MODEL 8
REMARK VINA RESULT:      -8.3      2.149      4.308
REMARK  Name = 
REMARK  6 active torsions:
REMARK  status: ('A' for Active; 'I' for Inactive)
REMARK    1  A    between atoms: C_2  and  C_3
REMARK    2  A    between atoms: C_3  and  N_4
REMARK    3  A    between atoms: C_8  and  C_9
REMARK    4  A    between atoms: C_8  and  C_16
REMARK    5  A    between atoms: C_9  and  C_10
REMARK    6  A    between atoms: N_24  and  C_25
REMARK                            x       y       z     vdW  Elec       q    Type
REMARK                         _______ _______ _______ _____ _____    ______ ____
ROOT
ATOM      1  N   UNL     1       6.742   6.191  17.710  0.00  0.00    +0.000 N 
ATOM      2  C   UNL     1       6.616   5.756  16.423  0.00  0.00    +0.000 C 
ATOM      3  O   UNL     1       7.449   5.828  15.545  0.00  0.00    +0.000 OA
ATOM      4  N   UNL     1       5.370   5.214  16.266  0.00  0.00    +0.000 N 
ATOM      5  C   UNL     1       4.558   5.236  17.470  0.00  0.00    +0.000 C 
ATOM      6  C   UNL     1       5.604   5.897  18.424  0.00  0.00    +0.000 C 
ATOM      7  O   UNL     1       5.452   6.107  19.621  0.00  0.00    +0.000 OA
ATOM      8  H   UNL     1       5.090   4.785  15.393  0.00  0.00    +0.000 HD
ENDROOT
BRANCH   5   9
ATOM      9  C   UNL     1       4.208   3.840  17.952  0.00  0.00    +0.000 A 
ATOM     10  C   UNL     1       4.788   3.333  19.123  0.00  0.00    +0.000 A 
ATOM     11  C   UNL     1       4.376   2.111  19.641  0.00  0.00    +0.000 A 
ATOM     12  C   UNL     1       3.371   1.384  19.008  0.00  0.00    +0.000 A 
ATOM     13  C   UNL     1       2.809   1.847  17.829  0.00  0.00    +0.000 A 
ATOM     14  C   UNL     1       3.244   3.053  17.293  0.00  0.00    +0.000 A 
ENDBRANCH   5   9
BRANCH   1  15
ATOM     15  C   UNL     1       7.965   6.706  18.281  0.00  0.00    +0.000 C 
BRANCH  15  17
ATOM     16  O   UNL     1       7.489   8.850  17.263  0.00  0.00    +0.000 OA
ATOM     17  C   UNL     1       8.087   8.227  18.116  0.00  0.00    +0.000 C 
ATOM     18  N   UNL     1       8.876   8.866  19.068  0.00  0.00    +0.000 N 
ATOM     19  H   UNL     1       9.176   8.290  19.842  0.00  0.00    +0.000 HD
BRANCH  18  20
ATOM     20  C   UNL     1       9.097  10.308  19.134  0.00  0.00    +0.000 C 
ATOM     21  C   UNL     1      10.158  10.709  18.097  0.00  0.00    +0.000 C 
ATOM     22  C   UNL     1      10.438  12.210  18.142  0.00  0.00    +0.000 C 
ATOM     23  C   UNL     1      10.856  12.655  19.540  0.00  0.00    +0.000 C 
ATOM     24  C   UNL     1       9.821  12.252  20.588  0.00  0.00    +0.000 C 
ATOM     25  C   UNL     1       9.526  10.751  20.541  0.00  0.00    +0.000 C 
ENDBRANCH  18  20
ENDBRANCH  15  17
ENDBRANCH   1  15
BRANCH   5  26
ATOM     26  C   UNL     1       3.332   6.169  17.339  0.00  0.00    +0.000 C 
BRANCH  26  27
ATOM     27  C   UNL     1       2.636   6.538  18.629  0.00  0.00    +0.000 A 
ATOM     28  C   UNL     1       2.351   7.883  18.916  0.00  0.00    +0.000 A 
ATOM     29  C   UNL     1       1.725   8.230  20.106  0.00  0.00    +0.000 A 
ATOM     30  C   UNL     1       1.311   7.232  20.985  0.00  0.00    +0.000 A 
ATOM     31  C   UNL     1       1.539   5.890  20.681  0.00  0.00    +0.000 A 
ATOM     32  C   UNL     1       2.222   5.546  19.522  0.00  0.00    +0.000 A 
ENDBRANCH  26  27
ENDBRANCH   5  26
TORSDOF 6
ENDMDL
MODEL 9
REMARK VINA RESULT:      -8.3      3.148      6.754
REMARK  Name = 
REMARK  6 active torsions:
REMARK  status: ('A' for Active; 'I' for Inactive)
REMARK    1  A    between atoms: C_2  and  C_3
REMARK    2  A    between atoms: C_3  and  N_4
REMARK    3  A    between atoms: C_8  and  C_9
REMARK    4  A    between atoms: C_8  and  C_16
REMARK    5  A    between atoms: C_9  and  C_10
REMARK    6  A    between atoms: N_24  and  C_25
REMARK                            x       y       z     vdW  Elec       q    Type
REMARK                         _______ _______ _______ _____ _____    ______ ____
ROOT
ATOM      1  N   UNL     1       5.474   6.280  17.932  0.00  0.00    +0.000 N 
ATOM      2  C   UNL     1       4.525   6.763  17.079  0.00  0.00    +0.000 C 
ATOM      3  O   UNL     1       4.713   7.304  16.011  0.00  0.00    +0.000 OA
ATOM      4  N   UNL     1       3.293   6.543  17.630  0.00  0.00    +0.000 N 
ATOM      5  C   UNL     1       3.329   5.869  18.916  0.00  0.00    +0.000 C 
ATOM      6  C   UNL     1       4.877   5.695  19.024  0.00  0.00    +0.000 C 
ATOM      7  O   UNL     1       5.474   5.117  19.925  0.00  0.00    +0.000 OA
ATOM      8  H   UNL     1       2.444   6.783  17.133  0.00  0.00    +0.000 HD
ENDROOT
BRANCH   5   9
ATOM      9  C   UNL     1       2.645   4.514  18.873  0.00  0.00    +0.000 A 
ATOM     10  C   UNL     1       1.605   4.220  19.766  0.00  0.00    +0.000 A 
ATOM     11  C   UNL     1       0.889   3.035  19.648  0.00  0.00    +0.000 A 
ATOM     12  C   UNL     1       1.191   2.132  18.632  0.00  0.00    +0.000 A 
ATOM     13  C   UNL     1       2.239   2.383  17.761  0.00  0.00    +0.000 A 
ATOM     14  C   UNL     1       2.975   3.553  17.899  0.00  0.00    +0.000 A 
ENDBRANCH   5   9
BRANCH   1  15
ATOM     15  C   UNL     1       6.886   6.220  17.632  0.00  0.00    +0.000 C 
BRANCH  15  17
ATOM     16  O   UNL     1       7.887   4.171  16.819  0.00  0.00    +0.000 OA
ATOM     17  C   UNL     1       7.210   5.150  16.580  0.00  0.00    +0.000 C 
ATOM     18  N   UNL     1       6.606   5.335  15.340  0.00  0.00    +0.000 N 
ATOM     19  H   UNL     1       5.917   6.072  15.297  0.00  0.00    +0.000 HD
BRANCH  18  20
ATOM     20  C   UNL     1       6.735   4.423  14.206  0.00  0.00    +0.000 C 
ATOM     21  C   UNL     1       7.457   5.140  13.054  0.00  0.00    +0.000 C 
ATOM     22  C   UNL     1       7.599   4.229  11.836  0.00  0.00    +0.000 C 
ATOM     23  C   UNL     1       6.243   3.702  11.376  0.00  0.00    +0.000 C 
ATOM     24  C   UNL     1       5.503   2.999  12.512  0.00  0.00    +0.000 C 
ATOM     25  C   UNL     1       5.368   3.900  13.741  0.00  0.00    +0.000 C 
ENDBRANCH  18  20
ENDBRANCH  15  17
ENDBRANCH   1  15
BRANCH   5  26
ATOM     26  C   UNL     1       2.838   6.771  20.071  0.00  0.00    +0.000 C 
BRANCH  26  27
ATOM     27  C   UNL     1       1.959   7.937  19.677  0.00  0.00    +0.000 A 
ATOM     28  C   UNL     1       1.959   8.403  18.352  0.00  0.00    +0.000 A 
ATOM     29  C   UNL     1       1.166   9.483  17.987  0.00  0.00    +0.000 A 
ATOM     30  C   UNL     1       0.309  10.058  18.922  0.00  0.00    +0.000 A 
ATOM     31  C   UNL     1       0.261   9.564  20.227  0.00  0.00    +0.000 A 
ATOM     32  C   UNL     1       1.101   8.527  20.609  0.00  0.00    +0.000 A 
ENDBRANCH  26  27
ENDBRANCH   5  26
TORSDOF 6
ENDMDL
