MODEL 1
REMARK VINA RESULT:      -8.6      0.000      0.000
REMARK  Name = 
REMARK  8 active torsions:
REMARK  status: ('A' for Active; 'I' for Inactive)
REMARK    1  A    between atoms: C_1  and  C_2
REMARK    2  A    between atoms: N_5  and  C_6
REMARK    3  A    between atoms: C_11  and  C_12
REMARK    4  A    between atoms: C_12  and  N_13
REMARK    5  A    between atoms: N_13  and  S_14
REMARK    6  A    between atoms: S_14  and  C_17
REMARK    7  A    between atoms: C_17  and  C_18
REMARK    8  A    between atoms: C_18  and  C_19
REMARK                            x       y       z     vdW  Elec       q    Type
REMARK                         _______ _______ _______ _____ _____    ______ ____
ROOT
ATOM      1  N   UNL     1       2.742   5.245  20.885  0.00  0.00    +0.000 NA
ATOM      2  H   UNL     1       3.407   5.369  21.671  0.00  0.00    +0.000 HD
ENDROOT
BRANCH   1   3
ATOM      3  S   UNL     1       2.164   3.666  20.894  0.00  0.00    +0.000 S 
ATOM      4  O   UNL     1       2.078   3.251  22.276  0.00  0.00    +0.000 OA
ATOM      5  O   UNL     1       1.016   3.599  20.017  0.00  0.00    +0.000 OA
BRANCH   3   6
ATOM      6  C   UNL     1       3.522   2.806  20.125  0.00  0.00    +0.000 C 
BRANCH   6   7
ATOM      7  C   UNL     1       3.414   2.876  18.611  0.00  0.00    +0.000 C 
BRANCH   7   8
ATOM      8  C   UNL     1       4.377   3.884  18.047  0.00  0.00    +0.000 A 
ATOM      9  C   UNL     1       4.181   4.394  16.749  0.00  0.00    +0.000 A 
ATOM     10  C   UNL     1       5.047   5.355  16.225  0.00  0.00    +0.000 A 
ATOM     11  C   UNL     1       6.077   5.804  17.025  0.00  0.00    +0.000 A 
ATOM     12  C   UNL     1       6.276   5.320  18.303  0.00  0.00    +0.000 A 
ATOM     13  C   UNL     1       5.447   4.347  18.831  0.00  0.00    +0.000 A 
ATOM     14  C   UNL     1       7.437   5.991  18.921  0.00  0.00    +0.000 C 
ATOM     15  C   UNL     1       7.778   7.001  17.822  0.00  0.00    +0.000 C 
ATOM     16  O   UNL     1       6.985   6.752  16.641  0.00  0.00    +0.000 OA
ENDBRANCH   7   8
ENDBRANCH   6   7
ENDBRANCH   3   6
ENDBRANCH   1   3
BRANCH   1  17
ATOM     17  C   UNL     1       1.729   6.302  20.910  0.00  0.00    +0.000 C 
BRANCH  17  23
ATOM     18  C   UNL     1       1.297   8.658  19.927  0.00  0.00    +0.000 A 
ATOM     19  C   UNL     1       1.349   9.503  18.802  0.00  0.00    +0.000 A 
ATOM     20  C   UNL     1       2.103   9.150  17.681  0.00  0.00    +0.000 A 
ATOM     21  C   UNL     1       2.812   7.958  17.670  0.00  0.00    +0.000 A 
ATOM     22  C   UNL     1       2.735   7.090  18.756  0.00  0.00    +0.000 A 
ATOM     23  C   UNL     1       1.954   7.404  19.892  0.00  0.00    +0.000 A 
BRANCH  18  28
ATOM     24  C   UNL     1      -0.904  11.881  22.759  0.00  0.00    +0.000 C 
ATOM     25  C   UNL     1      -0.396  10.554  22.333  0.00  0.00    +0.000 A 
ATOM     26  C   UNL     1      -0.675   9.287  22.876  0.00  0.00    +0.000 A 
ATOM     27  C   UNL     1      -0.015   8.400  22.065  0.00  0.00    +0.000 A 
ATOM     28  N   UNL     1       0.630   9.138  21.092  0.00  0.00    +0.000 N 
ATOM     29  N   UNL     1       0.437  10.463  21.292  0.00  0.00    +0.000 NA
ENDBRANCH  18  28
ENDBRANCH  17  23
ENDBRANCH   1  17
TORSDOF 7
ENDMDL
MODEL 2
REMARK VINA RESULT:      -8.4      3.757      8.124
REMARK  Name = 
REMARK  8 active torsions:
REMARK  status: ('A' for Active; 'I' for Inactive)
REMARK    1  A    between atoms: C_1  and  C_2
REMARK    2  A    between atoms: N_5  and  C_6
REMARK    3  A    between atoms: C_11  and  C_12
REMARK    4  A    between atoms: C_12  and  N_13
REMARK    5  A    between atoms: N_13  and  S_14
REMARK    6  A    between atoms: S_14  and  C_17
REMARK    7  A    between atoms: C_17  and  C_18
REMARK    8  A    between atoms: C_18  and  C_19
REMARK                            x       y       z     vdW  Elec       q    Type
REMARK                         _______ _______ _______ _____ _____    ______ ____
ROOT
ATOM      1  N   UNL     1       1.887   7.454  21.250  0.00  0.00    +0.000 NA
ATOM      2  H   UNL     1       2.829   7.809  21.502  0.00  0.00    +0.000 HD
ENDROOT
BRANCH   1   3
ATOM      3  S   UNL     1       0.755   8.672  21.495  0.00  0.00    +0.000 S 
ATOM      4  O   UNL     1      -0.537   8.036  21.619  0.00  0.00    +0.000 OA
ATOM      5  O   UNL     1       1.258   9.558  22.523  0.00  0.00    +0.000 OA
BRANCH   3   6
ATOM      6  C   UNL     1       0.825   9.518  19.929  0.00  0.00    +0.000 C 
BRANCH   6   7
ATOM      7  C   UNL     1       0.218  10.907  20.040  0.00  0.00    +0.000 C 
BRANCH   7   8
ATOM      8  C   UNL     1      -1.019  11.025  19.192  0.00  0.00    +0.000 A 
ATOM      9  C   UNL     1      -2.061  11.889  19.585  0.00  0.00    +0.000 A 
ATOM     10  C   UNL     1      -3.200  12.034  18.793  0.00  0.00    +0.000 A 
ATOM     11  C   UNL     1      -3.259  11.330  17.608  0.00  0.00    +0.000 A 
ATOM     12  C   UNL     1      -2.242  10.487  17.205  0.00  0.00    +0.000 A 
ATOM     13  C   UNL     1      -1.117  10.306  17.990  0.00  0.00    +0.000 A 
ATOM     14  C   UNL     1      -2.573   9.885  15.899  0.00  0.00    +0.000 C 
ATOM     15  C   UNL     1      -3.884  10.615  15.593  0.00  0.00    +0.000 C 
ATOM     16  O   UNL     1      -4.308  11.394  16.734  0.00  0.00    +0.000 OA
ENDBRANCH   7   8
ENDBRANCH   6   7
ENDBRANCH   3   6
ENDBRANCH   1   3
BRANCH   1  17
ATOM     17  C   UNL     1       1.914   6.858  19.913  0.00  0.00    +0.000 C 
BRANCH  17  23
ATOM     18  C   UNL     1       3.146   4.701  19.183  0.00  0.00    +0.000 A 
ATOM     19  C   UNL     1       3.091   3.306  19.004  0.00  0.00    +0.000 A 
ATOM     20  C   UNL     1       2.075   2.552  19.594  0.00  0.00    +0.000 A 
ATOM     21  C   UNL     1       1.108   3.177  20.368  0.00  0.00    +0.000 A 
ATOM     22  C   UNL     1       1.121   4.561  20.517  0.00  0.00    +0.000 A 
ATOM     23  C   UNL     1       2.118   5.356  19.905  0.00  0.00    +0.000 A 
BRANCH  18  28
ATOM     24  C   UNL     1       7.810   5.856  18.779  0.00  0.00    +0.000 C 
ATOM     25  C   UNL     1       6.362   5.875  18.457  0.00  0.00    +0.000 A 
ATOM     26  C   UNL     1       5.716   6.421  17.333  0.00  0.00    +0.000 A 
ATOM     27  C   UNL     1       4.393   6.097  17.494  0.00  0.00    +0.000 A 
ATOM     28  N   UNL     1       4.284   5.396  18.677  0.00  0.00    +0.000 N 
ATOM     29  N   UNL     1       5.487   5.308  19.292  0.00  0.00    +0.000 NA
ENDBRANCH  18  28
ENDBRANCH  17  23
ENDBRANCH   1  17
TORSDOF 7
ENDMDL
MODEL 3
REMARK VINA RESULT:      -8.3      0.976      1.706
REMARK  Name = 
REMARK  8 active torsions:
REMARK  status: ('A' for Active; 'I' for Inactive)
REMARK    1  A    between atoms: C_1  and  C_2
REMARK    2  A    between atoms: N_5  and  C_6
REMARK    3  A    between atoms: C_11  and  C_12
REMARK    4  A    between atoms: C_12  and  N_13
REMARK    5  A    between atoms: N_13  and  S_14
REMARK    6  A    between atoms: S_14  and  C_17
REMARK    7  A    between atoms: C_17  and  C_18
REMARK    8  A    between atoms: C_18  and  C_19
REMARK                            x       y       z     vdW  Elec       q    Type
REMARK                         _______ _______ _______ _____ _____    ______ ____
ROOT
ATOM      1  N   UNL     1       2.474   5.382  21.024  0.00  0.00    +0.000 NA
ATOM      2  H   UNL     1       2.842   5.286  21.989  0.00  0.00    +0.000 HD
ENDROOT
BRANCH   1   3
ATOM      3  S   UNL     1       1.966   3.878  20.473  0.00  0.00    +0.000 S 
ATOM      4  O   UNL     1       2.177   2.935  21.549  0.00  0.00    +0.000 OA
ATOM      5  O   UNL     1       0.666   4.036  19.858  0.00  0.00    +0.000 OA
BRANCH   3   6
ATOM      6  C   UNL     1       3.167   3.562  19.196  0.00  0.00    +0.000 C 
BRANCH   6   7
ATOM      7  C   UNL     1       4.538   4.068  19.611  0.00  0.00    +0.000 C 
BRANCH   7   8
ATOM      8  C   UNL     1       5.314   4.562  18.420  0.00  0.00    +0.000 A 
ATOM      9  C   UNL     1       6.319   5.535  18.591  0.00  0.00    +0.000 A 
ATOM     10  C   UNL     1       7.070   5.979  17.503  0.00  0.00    +0.000 A 
ATOM     11  C   UNL     1       6.815   5.419  16.268  0.00  0.00    +0.000 A 
ATOM     12  C   UNL     1       5.840   4.457  16.087  0.00  0.00    +0.000 A 
ATOM     13  C   UNL     1       5.065   4.023  17.147  0.00  0.00    +0.000 A 
ATOM     14  C   UNL     1       5.805   4.034  14.673  0.00  0.00    +0.000 C 
ATOM     15  C   UNL     1       6.990   4.834  14.126  0.00  0.00    +0.000 C 
ATOM     16  O   UNL     1       7.487   5.752  15.125  0.00  0.00    +0.000 OA
ENDBRANCH   7   8
ENDBRANCH   6   7
ENDBRANCH   3   6
ENDBRANCH   1   3
BRANCH   1  17
ATOM     17  C   UNL     1       1.482   6.458  20.968  0.00  0.00    +0.000 C 
BRANCH  17  23
ATOM     18  C   UNL     1       1.239   8.843  19.989  0.00  0.00    +0.000 A 
ATOM     19  C   UNL     1       1.356   9.681  18.865  0.00  0.00    +0.000 A 
ATOM     20  C   UNL     1       2.076   9.270  17.742  0.00  0.00    +0.000 A 
ATOM     21  C   UNL     1       2.687   8.025  17.728  0.00  0.00    +0.000 A 
ATOM     22  C   UNL     1       2.542   7.165  18.813  0.00  0.00    +0.000 A 
ATOM     23  C   UNL     1       1.793   7.539  19.951  0.00  0.00    +0.000 A 
BRANCH  18  28
ATOM     24  C   UNL     1      -0.994  12.141  22.706  0.00  0.00    +0.000 C 
ATOM     25  C   UNL     1      -0.424  10.818  22.351  0.00  0.00    +0.000 A 
ATOM     26  C   UNL     1      -0.582   9.585  23.008  0.00  0.00    +0.000 A 
ATOM     27  C   UNL     1       0.084   8.678  22.225  0.00  0.00    +0.000 A 
ATOM     28  N   UNL     1       0.615   9.373  21.157  0.00  0.00    +0.000 N 
ATOM     29  N   UNL     1       0.346  10.695  21.266  0.00  0.00    +0.000 NA
ENDBRANCH  18  28
ENDBRANCH  17  23
ENDBRANCH   1  17
TORSDOF 7
ENDMDL
MODEL 4
REMARK VINA RESULT:      -8.2      3.116      6.877
REMARK  Name = 
REMARK  8 active torsions:
REMARK  status: ('A' for Active; 'I' for Inactive)
REMARK    1  A    between atoms: C_1  and  C_2
REMARK    2  A    between atoms: N_5  and  C_6
REMARK    3  A    between atoms: C_11  and  C_12
REMARK    4  A    between atoms: C_12  and  N_13
REMARK    5  A    between atoms: N_13  and  S_14
REMARK    6  A    between atoms: S_14  and  C_17
REMARK    7  A    between atoms: C_17  and  C_18
REMARK    8  A    between atoms: C_18  and  C_19
REMARK                            x       y       z     vdW  Elec       q    Type
REMARK                         _______ _______ _______ _____ _____    ______ ____
ROOT
ATOM      1  N   UNL     1       3.470   3.543  16.774  0.00  0.00    +0.000 NA
ATOM      2  H   UNL     1       3.908   2.629  16.553  0.00  0.00    +0.000 HD
ENDROOT
BRANCH   1   3
ATOM      3  S   UNL     1       2.617   3.411  18.217  0.00  0.00    +0.000 S 
ATOM      4  O   UNL     1       1.259   3.831  17.952  0.00  0.00    +0.000 OA
ATOM      5  O   UNL     1       2.902   2.115  18.795  0.00  0.00    +0.000 OA
BRANCH   3   6
ATOM      6  C   UNL     1       3.419   4.663  19.199  0.00  0.00    +0.000 C 
BRANCH   6   7
ATOM      7  C   UNL     1       2.428   5.318  20.147  0.00  0.00    +0.000 C 
BRANCH   7   8
ATOM      8  C   UNL     1       2.136   6.733  19.729  0.00  0.00    +0.000 A 
ATOM      9  C   UNL     1       2.410   7.146  18.410  0.00  0.00    +0.000 A 
ATOM     10  C   UNL     1       2.113   8.445  17.996  0.00  0.00    +0.000 A 
ATOM     11  C   UNL     1       1.522   9.296  18.908  0.00  0.00    +0.000 A 
ATOM     12  C   UNL     1       1.239   8.902  20.201  0.00  0.00    +0.000 A 
ATOM     13  C   UNL     1       1.552   7.628  20.640  0.00  0.00    +0.000 A 
ATOM     14  C   UNL     1       0.600  10.010  20.938  0.00  0.00    +0.000 C 
ATOM     15  C   UNL     1       0.474  11.041  19.812  0.00  0.00    +0.000 C 
ATOM     16  O   UNL     1       1.167  10.586  18.629  0.00  0.00    +0.000 OA
ENDBRANCH   7   8
ENDBRANCH   6   7
ENDBRANCH   3   6
ENDBRANCH   1   3
BRANCH   1  17
ATOM     17  C   UNL     1       4.470   4.611  16.712  0.00  0.00    +0.000 C 
BRANCH  17  23
ATOM     18  C   UNL     1       6.721   5.136  15.546  0.00  0.00    +0.000 A 
ATOM     19  C   UNL     1       7.464   5.146  14.351  0.00  0.00    +0.000 A 
ATOM     20  C   UNL     1       7.031   4.425  13.237  0.00  0.00    +0.000 A 
ATOM     21  C   UNL     1       5.859   3.687  13.302  0.00  0.00    +0.000 A 
ATOM     22  C   UNL     1       5.088   3.704  14.461  0.00  0.00    +0.000 A 
ATOM     23  C   UNL     1       5.483   4.450  15.595  0.00  0.00    +0.000 A 
BRANCH  18  28
ATOM     24  C   UNL     1       8.239   8.814  18.269  0.00  0.00    +0.000 C 
ATOM     25  C   UNL     1       7.914   7.408  17.926  0.00  0.00    +0.000 A 
ATOM     26  C   UNL     1       7.830   6.290  18.774  0.00  0.00    +0.000 A 
ATOM     27  C   UNL     1       7.422   5.261  17.965  0.00  0.00    +0.000 A 
ATOM     28  N   UNL     1       7.286   5.772  16.690  0.00  0.00    +0.000 N 
ATOM     29  N   UNL     1       7.640   7.079  16.660  0.00  0.00    +0.000 NA
ENDBRANCH  18  28
ENDBRANCH  17  23
ENDBRANCH   1  17
TORSDOF 7
ENDMDL
MODEL 5
REMARK VINA RESULT:      -8.2      3.767      8.088
REMARK  Name = 
REMARK  8 active torsions:
REMARK  status: ('A' for Active; 'I' for Inactive)
REMARK    1  A    between atoms: C_1  and  C_2
REMARK    2  A    between atoms: N_5  and  C_6
REMARK    3  A    between atoms: C_11  and  C_12
REMARK    4  A    between atoms: C_12  and  N_13
REMARK    5  A    between atoms: N_13  and  S_14
REMARK    6  A    between atoms: S_14  and  C_17
REMARK    7  A    between atoms: C_17  and  C_18
REMARK    8  A    between atoms: C_18  and  C_19
REMARK                            x       y       z     vdW  Elec       q    Type
REMARK                         _______ _______ _______ _____ _____    ______ ____
ROOT
ATOM      1  N   UNL     1       1.638   7.010  21.283  0.00  0.00    +0.000 NA
ATOM      2  H   UNL     1       2.303   6.896  22.071  0.00  0.00    +0.000 HD
ENDROOT
BRANCH   1   3
ATOM      3  S   UNL     1       0.948   8.541  21.359  0.00  0.00    +0.000 S 
ATOM      4  O   UNL     1      -0.469   8.360  21.586  0.00  0.00    +0.000 OA
ATOM      5  O   UNL     1       1.752   9.357  22.242  0.00  0.00    +0.000 OA
BRANCH   3   6
ATOM      6  C   UNL     1       1.188   9.103  19.686  0.00  0.00    +0.000 C 
BRANCH   6   7
ATOM      7  C   UNL     1       0.910  10.593  19.574  0.00  0.00    +0.000 C 
BRANCH   7   8
ATOM      8  C   UNL     1      -0.458  10.845  19.001  0.00  0.00    +0.000 A 
ATOM      9  C   UNL     1      -1.314  11.784  19.611  0.00  0.00    +0.000 A 
ATOM     10  C   UNL     1      -2.571  12.054  19.072  0.00  0.00    +0.000 A 
ATOM     11  C   UNL     1      -2.936  11.395  17.916  0.00  0.00    +0.000 A 
ATOM     12  C   UNL     1      -2.104  10.479  17.301  0.00  0.00    +0.000 A 
ATOM     13  C   UNL     1      -0.865  10.176  17.835  0.00  0.00    +0.000 A 
ATOM     14  C   UNL     1      -2.749   9.950  16.083  0.00  0.00    +0.000 C 
ATOM     15  C   UNL     1      -4.021  10.801  16.064  0.00  0.00    +0.000 C 
ATOM     16  O   UNL     1      -4.131  11.577  17.277  0.00  0.00    +0.000 OA
ENDBRANCH   7   8
ENDBRANCH   6   7
ENDBRANCH   3   6
ENDBRANCH   1   3
BRANCH   1  17
ATOM     17  C   UNL     1       2.289   6.658  20.019  0.00  0.00    +0.000 C 
BRANCH  17  23
ATOM     18  C   UNL     1       2.612   4.663  18.402  0.00  0.00    +0.000 A 
ATOM     19  C   UNL     1       2.151   3.410  17.956  0.00  0.00    +0.000 A 
ATOM     20  C   UNL     1       1.244   2.673  18.719  0.00  0.00    +0.000 A 
ATOM     21  C   UNL     1       0.791   3.172  19.931  0.00  0.00    +0.000 A 
ATOM     22  C   UNL     1       1.202   4.430  20.364  0.00  0.00    +0.000 A 
ATOM     23  C   UNL     1       2.094   5.215  19.599  0.00  0.00    +0.000 A 
BRANCH  18  28
ATOM     24  C   UNL     1       6.087   5.038  15.080  0.00  0.00    +0.000 C 
ATOM     25  C   UNL     1       5.153   5.488  16.141  0.00  0.00    +0.000 A 
ATOM     26  C   UNL     1       4.836   6.800  16.538  0.00  0.00    +0.000 A 
ATOM     27  C   UNL     1       3.867   6.654  17.497  0.00  0.00    +0.000 A 
ATOM     28  N   UNL     1       3.643   5.301  17.652  0.00  0.00    +0.000 N 
ATOM     29  N   UNL     1       4.473   4.587  16.855  0.00  0.00    +0.000 NA
ENDBRANCH  18  28
ENDBRANCH  17  23
ENDBRANCH   1  17
TORSDOF 7
ENDMDL
MODEL 6
REMARK VINA RESULT:      -7.9      3.761      6.230
REMARK  Name = 
REMARK  8 active torsions:
REMARK  status: ('A' for Active; 'I' for Inactive)
REMARK    1  A    between atoms: C_1  and  C_2
REMARK    2  A    between atoms: N_5  and  C_6
REMARK    3  A    between atoms: C_11  and  C_12
REMARK    4  A    between atoms: C_12  and  N_13
REMARK    5  A    between atoms: N_13  and  S_14
REMARK    6  A    between atoms: S_14  and  C_17
REMARK    7  A    between atoms: C_17  and  C_18
REMARK    8  A    between atoms: C_18  and  C_19
REMARK                            x       y       z     vdW  Elec       q    Type
REMARK                         _______ _______ _______ _____ _____    ______ ____
ROOT
ATOM      1  N   UNL     1       5.714   6.324  18.025  0.00  0.00    +0.000 NA
ATOM      2  H   UNL     1       5.473   5.840  18.910  0.00  0.00    +0.000 HD
ENDROOT
BRANCH   1   3
ATOM      3  S   UNL     1       7.319   6.007  17.640  0.00  0.00    +0.000 S 
ATOM      4  O   UNL     1       7.691   4.790  18.327  0.00  0.00    +0.000 OA
ATOM      5  O   UNL     1       7.476   6.139  16.208  0.00  0.00    +0.000 OA
BRANCH   3   6
ATOM      6  C   UNL     1       8.134   7.379  18.432  0.00  0.00    +0.000 C 
BRANCH   6   7
ATOM      7  C   UNL     1       7.833   8.678  17.702  0.00  0.00    +0.000 C 
BRANCH   7   8
ATOM      8  C   UNL     1       8.582   9.829  18.317  0.00  0.00    +0.000 A 
ATOM      9  C   UNL     1       9.079   9.722  19.631  0.00  0.00    +0.000 A 
ATOM     10  C   UNL     1       9.804  10.767  20.203  0.00  0.00    +0.000 A 
ATOM     11  C   UNL     1      10.039  11.889  19.435  0.00  0.00    +0.000 A 
ATOM     12  C   UNL     1       9.567  12.004  18.142  0.00  0.00    +0.000 A 
ATOM     13  C   UNL     1       8.821  10.991  17.566  0.00  0.00    +0.000 A 
ATOM     14  C   UNL     1       9.983  13.298  17.566  0.00  0.00    +0.000 C 
ATOM     15  C   UNL     1      10.853  13.831  18.708  0.00  0.00    +0.000 C 
ATOM     16  O   UNL     1      10.747  12.976  19.868  0.00  0.00    +0.000 OA
ENDBRANCH   7   8
ENDBRANCH   6   7
ENDBRANCH   3   6
ENDBRANCH   1   3
BRANCH   1  17
ATOM     17  C   UNL     1       4.727   6.005  16.991  0.00  0.00    +0.000 C 
BRANCH  17  23
ATOM     18  C   UNL     1       2.688   5.310  18.427  0.00  0.00    +0.000 A 
ATOM     19  C   UNL     1       1.922   4.263  18.971  0.00  0.00    +0.000 A 
ATOM     20  C   UNL     1       2.053   2.959  18.488  0.00  0.00    +0.000 A 
ATOM     21  C   UNL     1       2.944   2.688  17.460  0.00  0.00    +0.000 A 
ATOM     22  C   UNL     1       3.742   3.704  16.943  0.00  0.00    +0.000 A 
ATOM     23  C   UNL     1       3.656   5.027  17.433  0.00  0.00    +0.000 A 
BRANCH  18  28
ATOM     24  C   UNL     1       1.469   9.953  17.972  0.00  0.00    +0.000 C 
ATOM     25  C   UNL     1       1.815   8.691  18.670  0.00  0.00    +0.000 A 
ATOM     26  C   UNL     1       1.704   8.380  20.037  0.00  0.00    +0.000 A 
ATOM     27  C   UNL     1       2.082   7.065  20.133  0.00  0.00    +0.000 A 
ATOM     28  N   UNL     1       2.408   6.639  18.862  0.00  0.00    +0.000 N 
ATOM     29  N   UNL     1       2.294   7.656  17.975  0.00  0.00    +0.000 NA
ENDBRANCH  18  28
ENDBRANCH  17  23
ENDBRANCH   1  17
TORSDOF 7
ENDMDL
MODEL 7
REMARK VINA RESULT:      -7.9      3.169      6.804
REMARK  Name = 
REMARK  8 active torsions:
REMARK  status: ('A' for Active; 'I' for Inactive)
REMARK    1  A    between atoms: C_1  and  C_2
REMARK    2  A    between atoms: N_5  and  C_6
REMARK    3  A    between atoms: C_11  and  C_12
REMARK    4  A    between atoms: C_12  and  N_13
REMARK    5  A    between atoms: N_13  and  S_14
REMARK    6  A    between atoms: S_14  and  C_17
REMARK    7  A    between atoms: C_17  and  C_18
REMARK    8  A    between atoms: C_18  and  C_19
REMARK                            x       y       z     vdW  Elec       q    Type
REMARK                         _______ _______ _______ _____ _____    ______ ____
ROOT
ATOM      1  N   UNL     1       4.868   3.339  17.798  0.00  0.00    +0.000 NA
ATOM      2  H   UNL     1       5.408   3.724  18.596  0.00  0.00    +0.000 HD
ENDROOT
BRANCH   1   3
ATOM      3  S   UNL     1       3.483   2.586  18.381  0.00  0.00    +0.000 S 
ATOM      4  O   UNL     1       2.408   2.903  17.468  0.00  0.00    +0.000 OA
ATOM      5  O   UNL     1       3.814   1.216  18.705  0.00  0.00    +0.000 OA
BRANCH   3   6
ATOM      6  C   UNL     1       3.224   3.484  19.898  0.00  0.00    +0.000 C 
BRANCH   6   7
ATOM      7  C   UNL     1       1.809   4.036  19.961  0.00  0.00    +0.000 C 
BRANCH   7   8
ATOM      8  C   UNL     1       1.813   5.539  19.910  0.00  0.00    +0.000 A 
ATOM      9  C   UNL     1       2.299   6.202  18.766  0.00  0.00    +0.000 A 
ATOM     10  C   UNL     1       2.279   7.595  18.690  0.00  0.00    +0.000 A 
ATOM     11  C   UNL     1       1.747   8.294  19.753  0.00  0.00    +0.000 A 
ATOM     12  C   UNL     1       1.258   7.658  20.878  0.00  0.00    +0.000 A 
ATOM     13  C   UNL     1       1.295   6.280  20.986  0.00  0.00    +0.000 A 
ATOM     14  C   UNL     1       0.741   8.654  21.837  0.00  0.00    +0.000 C 
ATOM     15  C   UNL     1       0.922   9.934  21.016  0.00  0.00    +0.000 C 
ATOM     16  O   UNL     1       1.652   9.658  19.800  0.00  0.00    +0.000 OA
ENDBRANCH   7   8
ENDBRANCH   6   7
ENDBRANCH   3   6
ENDBRANCH   1   3
BRANCH   1  17
ATOM     17  C   UNL     1       4.662   4.374  16.783  0.00  0.00    +0.000 C 
BRANCH  17  23
ATOM     18  C   UNL     1       6.819   5.116  15.559  0.00  0.00    +0.000 A 
ATOM     19  C   UNL     1       7.519   5.212  14.342  0.00  0.00    +0.000 A 
ATOM     20  C   UNL     1       7.115   4.475  13.227  0.00  0.00    +0.000 A 
ATOM     21  C   UNL     1       6.015   3.635  13.314  0.00  0.00    +0.000 A 
ATOM     22  C   UNL     1       5.284   3.564  14.496  0.00  0.00    +0.000 A 
ATOM     23  C   UNL     1       5.648   4.322  15.632  0.00  0.00    +0.000 A 
BRANCH  18  28
ATOM     24  C   UNL     1       8.161   8.867  18.275  0.00  0.00    +0.000 C 
ATOM     25  C   UNL     1       7.913   7.446  17.930  0.00  0.00    +0.000 A 
ATOM     26  C   UNL     1       7.906   6.322  18.776  0.00  0.00    +0.000 A 
ATOM     27  C   UNL     1       7.546   5.274  17.968  0.00  0.00    +0.000 A 
ATOM     28  N   UNL     1       7.362   5.780  16.697  0.00  0.00    +0.000 N 
ATOM     29  N   UNL     1       7.640   7.105  16.668  0.00  0.00    +0.000 NA
ENDBRANCH  18  28
ENDBRANCH  17  23
ENDBRANCH   1  17
TORSDOF 7
ENDMDL
MODEL 8
REMARK VINA RESULT:      -7.8      3.646      8.089
REMARK  Name = 
REMARK  8 active torsions:
REMARK  status: ('A' for Active; 'I' for Inactive)
REMARK    1  A    between atoms: C_1  and  C_2
REMARK    2  A    between atoms: N_5  and  C_6
REMARK    3  A    between atoms: C_11  and  C_12
REMARK    4  A    between atoms: C_12  and  N_13
REMARK    5  A    between atoms: N_13  and  S_14
REMARK    6  A    between atoms: S_14  and  C_17
REMARK    7  A    between atoms: C_17  and  C_18
REMARK    8  A    between atoms: C_18  and  C_19
REMARK                            x       y       z     vdW  Elec       q    Type
REMARK                         _______ _______ _______ _____ _____    ______ ____
ROOT
ATOM      1  N   UNL     1       1.841   7.050  21.362  0.00  0.00    +0.000 NA
ATOM      2  H   UNL     1       2.729   7.137  21.891  0.00  0.00    +0.000 HD
ENDROOT
BRANCH   1   3
ATOM      3  S   UNL     1       1.009   8.508  21.437  0.00  0.00    +0.000 S 
ATOM      4  O   UNL     1      -0.390   8.193  21.620  0.00  0.00    +0.000 OA
ATOM      5  O   UNL     1       1.708   9.382  22.354  0.00  0.00    +0.000 OA
BRANCH   3   6
ATOM      6  C   UNL     1       1.242   9.116  19.779  0.00  0.00    +0.000 C 
BRANCH   6   7
ATOM      7  C   UNL     1       0.791  10.564  19.668  0.00  0.00    +0.000 C 
BRANCH   7   8
ATOM      8  C   UNL     1      -0.512  10.667  18.925  0.00  0.00    +0.000 A 
ATOM      9  C   UNL     1      -0.711   9.921  17.747  0.00  0.00    +0.000 A 
ATOM     10  C   UNL     1      -1.926   9.980  17.064  0.00  0.00    +0.000 A 
ATOM     11  C   UNL     1      -2.928  10.768  17.593  0.00  0.00    +0.000 A 
ATOM     12  C   UNL     1      -2.751  11.498  18.752  0.00  0.00    +0.000 A 
ATOM     13  C   UNL     1      -1.545  11.475  19.428  0.00  0.00    +0.000 A 
ATOM     14  C   UNL     1      -3.991  12.228  19.082  0.00  0.00    +0.000 C 
ATOM     15  C   UNL     1      -4.914  11.698  17.982  0.00  0.00    +0.000 C 
ATOM     16  O   UNL     1      -4.168  10.902  17.034  0.00  0.00    +0.000 OA
ENDBRANCH   7   8
ENDBRANCH   6   7
ENDBRANCH   3   6
ENDBRANCH   1   3
BRANCH   1  17
ATOM     17  C   UNL     1       2.103   6.525  20.020  0.00  0.00    +0.000 C 
BRANCH  17  23
ATOM     18  C   UNL     1       2.943   4.279  19.045  0.00  0.00    +0.000 A 
ATOM     19  C   UNL     1       2.695   2.909  18.836  0.00  0.00    +0.000 A 
ATOM     20  C   UNL     1       1.695   2.249  19.553  0.00  0.00    +0.000 A 
ATOM     21  C   UNL     1       0.938   2.943  20.484  0.00  0.00    +0.000 A 
ATOM     22  C   UNL     1       1.139   4.307  20.670  0.00  0.00    +0.000 A 
ATOM     23  C   UNL     1       2.121   5.011  19.936  0.00  0.00    +0.000 A 
BRANCH  18  28
ATOM     24  C   UNL     1       5.363   6.426  15.470  0.00  0.00    +0.000 C 
ATOM     25  C   UNL     1       5.134   5.864  16.824  0.00  0.00    +0.000 A 
ATOM     26  C   UNL     1       5.928   5.992  17.978  0.00  0.00    +0.000 A 
ATOM     27  C   UNL     1       5.224   5.350  18.964  0.00  0.00    +0.000 A 
ATOM     28  N   UNL     1       4.068   4.862  18.391  0.00  0.00    +0.000 N 
ATOM     29  N   UNL     1       4.042   5.133  17.065  0.00  0.00    +0.000 NA
ENDBRANCH  18  28
ENDBRANCH  17  23
ENDBRANCH   1  17
TORSDOF 7
ENDMDL
MODEL 9
REMARK VINA RESULT:      -7.7      3.150      7.200
REMARK  Name = 
REMARK  8 active torsions:
REMARK  status: ('A' for Active; 'I' for Inactive)
REMARK    1  A    between atoms: C_1  and  C_2
REMARK    2  A    between atoms: N_5  and  C_6
REMARK    3  A    between atoms: C_11  and  C_12
REMARK    4  A    between atoms: C_12  and  N_13
REMARK    5  A    between atoms: N_13  and  S_14
REMARK    6  A    between atoms: S_14  and  C_17
REMARK    7  A    between atoms: C_17  and  C_18
REMARK    8  A    between atoms: C_18  and  C_19
REMARK                            x       y       z     vdW  Elec       q    Type
REMARK                         _______ _______ _______ _____ _____    ______ ____
ROOT
ATOM      1  N   UNL     1       4.906   3.548  17.173  0.00  0.00    +0.000 NA
ATOM      2  H   UNL     1       5.767   4.015  17.514  0.00  0.00    +0.000 HD
ENDROOT
BRANCH   1   3
ATOM      3  S   UNL     1       3.720   3.640  18.362  0.00  0.00    +0.000 S 
ATOM      4  O   UNL     1       2.440   3.529  17.699  0.00  0.00    +0.000 OA
ATOM      5  O   UNL     1       4.088   2.746  19.438  0.00  0.00    +0.000 OA
BRANCH   3   6
ATOM      6  C   UNL     1       3.929   5.319  18.919  0.00  0.00    +0.000 C 
BRANCH   6   7
ATOM      7  C   UNL     1       3.453   6.300  17.860  0.00  0.00    +0.000 C 
BRANCH   7   8
ATOM      8  C   UNL     1       2.649   7.412  18.476  0.00  0.00    +0.000 A 
ATOM      9  C   UNL     1       2.262   8.517  17.693  0.00  0.00    +0.000 A 
ATOM     10  C   UNL     1       1.488   9.540  18.241  0.00  0.00    +0.000 A 
ATOM     11  C   UNL     1       1.095   9.420  19.559  0.00  0.00    +0.000 A 
ATOM     12  C   UNL     1       1.459   8.338  20.336  0.00  0.00    +0.000 A 
ATOM     13  C   UNL     1       2.249   7.327  19.820  0.00  0.00    +0.000 A 
ATOM     14  C   UNL     1       0.885   8.473  21.689  0.00  0.00    +0.000 C 
ATOM     15  C   UNL     1       0.056   9.747  21.501  0.00  0.00    +0.000 C 
ATOM     16  O   UNL     1       0.324  10.341  20.212  0.00  0.00    +0.000 OA
ENDBRANCH   7   8
ENDBRANCH   6   7
ENDBRANCH   3   6
ENDBRANCH   1   3
BRANCH   1  17
ATOM     17  C   UNL     1       4.538   4.069  15.855  0.00  0.00    +0.000 C 
BRANCH  17  23
ATOM     18  C   UNL     1       6.762   5.163  15.106  0.00  0.00    +0.000 A 
ATOM     19  C   UNL     1       7.645   5.452  14.049  0.00  0.00    +0.000 A 
ATOM     20  C   UNL     1       7.539   4.783  12.829  0.00  0.00    +0.000 A 
ATOM     21  C   UNL     1       6.557   3.820  12.650  0.00  0.00    +0.000 A 
ATOM     22  C   UNL     1       5.647   3.554  13.669  0.00  0.00    +0.000 A 
ATOM     23  C   UNL     1       5.708   4.238  14.905  0.00  0.00    +0.000 A 
BRANCH  18  28
ATOM     24  C   UNL     1       8.317   5.437  19.662  0.00  0.00    +0.000 C 
ATOM     25  C   UNL     1       7.747   5.916  18.379  0.00  0.00    +0.000 A 
ATOM     26  C   UNL     1       7.521   7.237  17.953  0.00  0.00    +0.000 A 
ATOM     27  C   UNL     1       7.057   7.120  16.668  0.00  0.00    +0.000 A 
ATOM     28  N   UNL     1       7.010   5.773  16.371  0.00  0.00    +0.000 N 
ATOM     29  N   UNL     1       7.384   5.035  17.442  0.00  0.00    +0.000 NA
ENDBRANCH  18  28
ENDBRANCH  17  23
ENDBRANCH   1  17
TORSDOF 7
ENDMDL
