MODEL 1
REMARK VINA RESULT:      -8.5      0.000      0.000
REMARK  Name = 
REMARK  6 active torsions:
REMARK  status: ('A' for Active; 'I' for Inactive)
REMARK    1  A    between atoms: C_1  and  C_2
REMARK    2  A    between atoms: C_6  and  C_7
REMARK    3  A    between atoms: C_7  and  N_8
REMARK    4  A    between atoms: C_7  and  C_24
REMARK    5  A    between atoms: N_8  and  C_9
REMARK    6  A    between atoms: N_17  and  C_18
REMARK                            x       y       z     vdW  Elec       q    Type
REMARK                         _______ _______ _______ _____ _____    ______ ____
ROOT
ATOM      1  C   UNL     1       4.096   5.010  18.752  0.00  0.00    +0.000 A 
ATOM      2  N   UNL     1       4.068   3.665  18.916  0.00  0.00    +0.000 NA
ATOM      3  C   UNL     1       4.550   2.867  17.955  0.00  0.00    +0.000 A 
ATOM      4  N   UNL     1       5.076   3.233  16.787  0.00  0.00    +0.000 NA
ATOM      5  C   UNL     1       5.088   4.572  16.622  0.00  0.00    +0.000 A 
ATOM      6  C   UNL     1       4.634   5.498  17.550  0.00  0.00    +0.000 A 
ATOM      7  C   UNL     1       4.905   6.742  16.953  0.00  0.00    +0.000 A 
ATOM      8  N   UNL     1       5.480   6.640  15.752  0.00  0.00    +0.000 NA
ATOM      9  N   UNL     1       5.553   5.290  15.524  0.00  0.00    +0.000 N 
ENDROOT
BRANCH   9  10
ATOM     10  C   UNL     1       6.051   4.789  14.279  0.00  0.00    +0.000 A 
ATOM     11  C   UNL     1       7.272   5.262  13.775  0.00  0.00    +0.000 A 
ATOM     12  C   UNL     1       7.767   4.782  12.557  0.00  0.00    +0.000 A 
ATOM     13  C   UNL     1       7.049   3.835  11.830  0.00  0.00    +0.000 A 
ATOM     14  C   UNL     1       5.835   3.366  12.317  0.00  0.00    +0.000 A 
ATOM     15  C   UNL     1       5.339   3.837  13.534  0.00  0.00    +0.000 A 
ENDBRANCH   9  10
BRANCH   1  16
ATOM     16  N   UNL     1       3.606   5.821  19.766  0.00  0.00    +0.000 N 
ATOM     17  H   UNL     1       4.021   5.734  20.681  0.00  0.00    +0.000 HD
BRANCH  16  18
ATOM     18  C   UNL     1       2.148   6.019  19.795  0.00  0.00    +0.000 C 
BRANCH  18  24
ATOM     19  C   UNL     1       0.193   9.436  22.693  0.00  0.00    +0.000 C 
ATOM     20  C   UNL     1       0.813   9.106  21.368  0.00  0.00    +0.000 A 
ATOM     21  C   UNL     1       0.842  10.029  20.343  0.00  0.00    +0.000 A 
ATOM     22  C   UNL     1       1.390   9.599  19.155  0.00  0.00    +0.000 A 
ATOM     23  N   UNL     1       1.863   8.355  18.949  0.00  0.00    +0.000 NA
ATOM     24  C   UNL     1       1.762   7.498  19.993  0.00  0.00    +0.000 A 
ATOM     25  N   UNL     1       1.276   7.847  21.213  0.00  0.00    +0.000 NA
ENDBRANCH  18  24
BRANCH  18  26
ATOM     26  C   UNL     1       1.470   5.130  20.826  0.00  0.00    +0.000 C 
ATOM     27  C   UNL     1       2.123   3.915  21.448  0.00  0.00    +0.000 C 
ATOM     28  C   UNL     1       0.951   3.730  20.526  0.00  0.00    +0.000 C 
ENDBRANCH  18  26
ENDBRANCH  16  18
ENDBRANCH   1  16
TORSDOF 5
ENDMDL
MODEL 2
REMARK VINA RESULT:      -8.5      1.620      7.929
REMARK  Name = 
REMARK  6 active torsions:
REMARK  status: ('A' for Active; 'I' for Inactive)
REMARK    1  A    between atoms: C_1  and  C_2
REMARK    2  A    between atoms: C_6  and  C_7
REMARK    3  A    between atoms: C_7  and  N_8
REMARK    4  A    between atoms: C_7  and  C_24
REMARK    5  A    between atoms: N_8  and  C_9
REMARK    6  A    between atoms: N_17  and  C_18
REMARK                            x       y       z     vdW  Elec       q    Type
REMARK                         _______ _______ _______ _____ _____    ______ ____
ROOT
ATOM      1  C   UNL     1       4.101   4.278  17.256  0.00  0.00    +0.000 A 
ATOM      2  N   UNL     1       3.259   3.366  17.800  0.00  0.00    +0.000 NA
ATOM      3  C   UNL     1       2.224   3.776  18.543  0.00  0.00    +0.000 A 
ATOM      4  N   UNL     1       1.893   5.030  18.848  0.00  0.00    +0.000 NA
ATOM      5  C   UNL     1       2.742   5.933  18.317  0.00  0.00    +0.000 A 
ATOM      6  C   UNL     1       3.836   5.632  17.519  0.00  0.00    +0.000 A 
ATOM      7  C   UNL     1       4.364   6.888  17.173  0.00  0.00    +0.000 A 
ATOM      8  N   UNL     1       3.681   7.912  17.693  0.00  0.00    +0.000 NA
ATOM      9  N   UNL     1       2.699   7.319  18.444  0.00  0.00    +0.000 N 
ENDROOT
BRANCH   9  10
ATOM     10  C   UNL     1       1.803   8.114  19.227  0.00  0.00    +0.000 A 
ATOM     11  C   UNL     1       1.621   7.825  20.588  0.00  0.00    +0.000 A 
ATOM     12  C   UNL     1       0.744   8.593  21.362  0.00  0.00    +0.000 A 
ATOM     13  C   UNL     1       0.037   9.647  20.787  0.00  0.00    +0.000 A 
ATOM     14  C   UNL     1       0.205   9.937  19.439  0.00  0.00    +0.000 A 
ATOM     15  C   UNL     1       1.083   9.178  18.663  0.00  0.00    +0.000 A 
ENDBRANCH   9  10
BRANCH   1  16
ATOM     16  N   UNL     1       5.159   3.834  16.476  0.00  0.00    +0.000 N 
ATOM     17  H   UNL     1       5.576   2.945  16.709  0.00  0.00    +0.000 HD
BRANCH  16  18
ATOM     18  C   UNL     1       6.137   4.853  16.062  0.00  0.00    +0.000 C 
BRANCH  18  24
ATOM     19  C   UNL     1       5.467   2.567  11.793  0.00  0.00    +0.000 C 
ATOM     20  C   UNL     1       6.214   3.616  12.561  0.00  0.00    +0.000 A 
ATOM     21  C   UNL     1       7.302   4.264  12.015  0.00  0.00    +0.000 A 
ATOM     22  C   UNL     1       7.942   5.169  12.831  0.00  0.00    +0.000 A 
ATOM     23  N   UNL     1       7.580   5.428  14.101  0.00  0.00    +0.000 NA
ATOM     24  C   UNL     1       6.525   4.721  14.576  0.00  0.00    +0.000 A 
ATOM     25  N   UNL     1       5.809   3.841  13.831  0.00  0.00    +0.000 NA
ENDBRANCH  18  24
BRANCH  18  26
ATOM     26  C   UNL     1       7.369   4.860  16.954  0.00  0.00    +0.000 C 
ATOM     27  C   UNL     1       7.321   4.677  18.455  0.00  0.00    +0.000 C 
ATOM     28  C   UNL     1       7.730   6.007  17.889  0.00  0.00    +0.000 C 
ENDBRANCH  18  26
ENDBRANCH  16  18
ENDBRANCH   1  16
TORSDOF 5
ENDMDL
MODEL 3
REMARK VINA RESULT:      -8.4      1.476      7.925
REMARK  Name = 
REMARK  6 active torsions:
REMARK  status: ('A' for Active; 'I' for Inactive)
REMARK    1  A    between atoms: C_1  and  C_2
REMARK    2  A    between atoms: C_6  and  C_7
REMARK    3  A    between atoms: C_7  and  N_8
REMARK    4  A    between atoms: C_7  and  C_24
REMARK    5  A    between atoms: N_8  and  C_9
REMARK    6  A    between atoms: N_17  and  C_18
REMARK                            x       y       z     vdW  Elec       q    Type
REMARK                         _______ _______ _______ _____ _____    ______ ____
ROOT
ATOM      1  C   UNL     1       4.351   4.444  17.640  0.00  0.00    +0.000 A 
ATOM      2  N   UNL     1       3.792   3.513  18.452  0.00  0.00    +0.000 NA
ATOM      3  C   UNL     1       2.833   3.873  19.314  0.00  0.00    +0.000 A 
ATOM      4  N   UNL     1       2.330   5.092  19.504  0.00  0.00    +0.000 NA
ATOM      5  C   UNL     1       2.900   6.016  18.705  0.00  0.00    +0.000 A 
ATOM      6  C   UNL     1       3.887   5.763  17.762  0.00  0.00    +0.000 A 
ATOM      7  C   UNL     1       4.111   7.012  17.156  0.00  0.00    +0.000 A 
ATOM      8  N   UNL     1       3.344   7.987  17.652  0.00  0.00    +0.000 NA
ATOM      9  N   UNL     1       2.624   7.380  18.648  0.00  0.00    +0.000 N 
ENDROOT
BRANCH   9  10
ATOM     10  C   UNL     1       1.735   8.143  19.471  0.00  0.00    +0.000 A 
ATOM     11  C   UNL     1       1.088   9.270  18.942  0.00  0.00    +0.000 A 
ATOM     12  C   UNL     1       0.219  10.025  19.739  0.00  0.00    +0.000 A 
ATOM     13  C   UNL     1      -0.005   9.669  21.067  0.00  0.00    +0.000 A 
ATOM     14  C   UNL     1       0.637   8.558  21.602  0.00  0.00    +0.000 A 
ATOM     15  C   UNL     1       1.500   7.799  20.811  0.00  0.00    +0.000 A 
ENDBRANCH   9  10
BRANCH   1  16
ATOM     16  N   UNL     1       5.332   4.049  16.742  0.00  0.00    +0.000 N 
ATOM     17  H   UNL     1       5.824   3.187  16.929  0.00  0.00    +0.000 HD
BRANCH  16  18
ATOM     18  C   UNL     1       6.194   5.114  16.206  0.00  0.00    +0.000 C 
BRANCH  18  24
ATOM     19  C   UNL     1       5.198   2.795  12.020  0.00  0.00    +0.000 C 
ATOM     20  C   UNL     1       6.073   3.773  12.745  0.00  0.00    +0.000 A 
ATOM     21  C   UNL     1       7.219   4.275  12.165  0.00  0.00    +0.000 A 
ATOM     22  C   UNL     1       7.972   5.125  12.944  0.00  0.00    +0.000 A 
ATOM     23  N   UNL     1       7.661   5.461  14.211  0.00  0.00    +0.000 NA
ATOM     24  C   UNL     1       6.541   4.895  14.720  0.00  0.00    +0.000 A 
ATOM     25  N   UNL     1       5.717   4.080  14.012  0.00  0.00    +0.000 NA
ENDBRANCH  18  24
BRANCH  18  26
ATOM     26  C   UNL     1       7.450   5.310  17.041  0.00  0.00    +0.000 C 
ATOM     27  C   UNL     1       7.492   5.149  18.546  0.00  0.00    +0.000 C 
ATOM     28  C   UNL     1       7.686   6.512  17.946  0.00  0.00    +0.000 C 
ENDBRANCH  18  26
ENDBRANCH  16  18
ENDBRANCH   1  16
TORSDOF 5
ENDMDL
MODEL 4
REMARK VINA RESULT:      -8.4      1.506      7.912
REMARK  Name = 
REMARK  6 active torsions:
REMARK  status: ('A' for Active; 'I' for Inactive)
REMARK    1  A    between atoms: C_1  and  C_2
REMARK    2  A    between atoms: C_6  and  C_7
REMARK    3  A    between atoms: C_7  and  N_8
REMARK    4  A    between atoms: C_7  and  C_24
REMARK    5  A    between atoms: N_8  and  C_9
REMARK    6  A    between atoms: N_17  and  C_18
REMARK                            x       y       z     vdW  Elec       q    Type
REMARK                         _______ _______ _______ _____ _____    ______ ____
ROOT
ATOM      1  C   UNL     1       4.410   4.562  18.428  0.00  0.00    +0.000 A 
ATOM      2  N   UNL     1       3.941   3.749  19.405  0.00  0.00    +0.000 NA
ATOM      3  C   UNL     1       2.977   4.183  20.226  0.00  0.00    +0.000 A 
ATOM      4  N   UNL     1       2.388   5.378  20.222  0.00  0.00    +0.000 NA
ATOM      5  C   UNL     1       2.868   6.188  19.258  0.00  0.00    +0.000 A 
ATOM      6  C   UNL     1       3.849   5.847  18.339  0.00  0.00    +0.000 A 
ATOM      7  C   UNL     1       3.964   6.985  17.520  0.00  0.00    +0.000 A 
ATOM      8  N   UNL     1       3.137   7.974  17.869  0.00  0.00    +0.000 NA
ATOM      9  N   UNL     1       2.487   7.499  18.978  0.00  0.00    +0.000 N 
ENDROOT
BRANCH   9  10
ATOM     10  C   UNL     1       1.562   8.327  19.690  0.00  0.00    +0.000 A 
ATOM     11  C   UNL     1       0.919   9.384  19.027  0.00  0.00    +0.000 A 
ATOM     12  C   UNL     1       0.014  10.202  19.714  0.00  0.00    +0.000 A 
ATOM     13  C   UNL     1      -0.250   9.980  21.063  0.00  0.00    +0.000 A 
ATOM     14  C   UNL     1       0.387   8.941  21.730  0.00  0.00    +0.000 A 
ATOM     15  C   UNL     1       1.286   8.118  21.049  0.00  0.00    +0.000 A 
ENDBRANCH   9  10
BRANCH   1  16
ATOM     16  N   UNL     1       5.398   4.089  17.576  0.00  0.00    +0.000 N 
ATOM     17  H   UNL     1       5.940   3.293  17.880  0.00  0.00    +0.000 HD
BRANCH  16  18
ATOM     18  C   UNL     1       6.190   5.105  16.866  0.00  0.00    +0.000 C 
BRANCH  18  24
ATOM     19  C   UNL     1       8.699   5.944  12.755  0.00  0.00    +0.000 C 
ATOM     20  C   UNL     1       7.642   5.137  13.448  0.00  0.00    +0.000 A 
ATOM     21  C   UNL     1       6.846   4.252  12.751  0.00  0.00    +0.000 A 
ATOM     22  C   UNL     1       5.875   3.604  13.482  0.00  0.00    +0.000 A 
ATOM     23  N   UNL     1       5.663   3.802  14.797  0.00  0.00    +0.000 NA
ATOM     24  C   UNL     1       6.462   4.715  15.399  0.00  0.00    +0.000 A 
ATOM     25  N   UNL     1       7.470   5.370  14.768  0.00  0.00    +0.000 NA
ENDBRANCH  18  24
BRANCH  18  26
ATOM     26  C   UNL     1       7.482   5.438  17.595  0.00  0.00    +0.000 C 
ATOM     27  C   UNL     1       7.570   5.662  19.090  0.00  0.00    +0.000 C 
ATOM     28  C   UNL     1       7.805   6.816  18.157  0.00  0.00    +0.000 C 
ENDBRANCH  18  26
ENDBRANCH  16  18
ENDBRANCH   1  16
TORSDOF 5
ENDMDL
MODEL 5
REMARK VINA RESULT:      -8.1      1.283      1.872
REMARK  Name = 
REMARK  6 active torsions:
REMARK  status: ('A' for Active; 'I' for Inactive)
REMARK    1  A    between atoms: C_1  and  C_2
REMARK    2  A    between atoms: C_6  and  C_7
REMARK    3  A    between atoms: C_7  and  N_8
REMARK    4  A    between atoms: C_7  and  C_24
REMARK    5  A    between atoms: N_8  and  C_9
REMARK    6  A    between atoms: N_17  and  C_18
REMARK                            x       y       z     vdW  Elec       q    Type
REMARK                         _______ _______ _______ _____ _____    ______ ____
ROOT
ATOM      1  C   UNL     1       5.131   4.945  19.153  0.00  0.00    +0.000 A 
ATOM      2  N   UNL     1       6.362   5.425  19.451  0.00  0.00    +0.000 NA
ATOM      3  C   UNL     1       7.265   5.593  18.476  0.00  0.00    +0.000 A 
ATOM      4  N   UNL     1       7.114   5.326  17.180  0.00  0.00    +0.000 NA
ATOM      5  C   UNL     1       5.892   4.834  16.891  0.00  0.00    +0.000 A 
ATOM      6  C   UNL     1       4.871   4.634  17.809  0.00  0.00    +0.000 A 
ATOM      7  C   UNL     1       3.797   4.167  17.031  0.00  0.00    +0.000 A 
ATOM      8  N   UNL     1       4.087   4.073  15.730  0.00  0.00    +0.000 NA
ATOM      9  N   UNL     1       5.403   4.442  15.647  0.00  0.00    +0.000 N 
ENDROOT
BRANCH   9  10
ATOM     10  C   UNL     1       6.097   4.388  14.396  0.00  0.00    +0.000 A 
ATOM     11  C   UNL     1       5.646   3.526  13.385  0.00  0.00    +0.000 A 
ATOM     12  C   UNL     1       6.318   3.463  12.159  0.00  0.00    +0.000 A 
ATOM     13  C   UNL     1       7.445   4.249  11.933  0.00  0.00    +0.000 A 
ATOM     14  C   UNL     1       7.903   5.102  12.930  0.00  0.00    +0.000 A 
ATOM     15  C   UNL     1       7.234   5.173  14.154  0.00  0.00    +0.000 A 
ENDBRANCH   9  10
BRANCH   1  16
ATOM     16  N   UNL     1       4.204   4.793  20.175  0.00  0.00    +0.000 N 
ATOM     17  H   UNL     1       4.359   4.057  20.847  0.00  0.00    +0.000 HD
BRANCH  16  18
ATOM     18  C   UNL     1       2.791   4.966  19.806  0.00  0.00    +0.000 C 
BRANCH  18  24
ATOM     19  C   UNL     1       0.651   8.867  21.832  0.00  0.00    +0.000 C 
ATOM     20  C   UNL     1       1.359   8.289  20.643  0.00  0.00    +0.000 A 
ATOM     21  C   UNL     1       1.460   8.991  19.460  0.00  0.00    +0.000 A 
ATOM     22  C   UNL     1       2.085   8.340  18.420  0.00  0.00    +0.000 A 
ATOM     23  N   UNL     1       2.569   7.086  18.497  0.00  0.00    +0.000 NA
ATOM     24  C   UNL     1       2.395   6.451  19.681  0.00  0.00    +0.000 A 
ATOM     25  N   UNL     1       1.829   7.029  20.771  0.00  0.00    +0.000 NA
ENDBRANCH  18  24
BRANCH  18  26
ATOM     26  C   UNL     1       1.857   4.226  20.751  0.00  0.00    +0.000 C 
ATOM     27  C   UNL     1       2.193   2.899  21.397  0.00  0.00    +0.000 C 
ATOM     28  C   UNL     1       1.097   2.962  20.371  0.00  0.00    +0.000 C 
ENDBRANCH  18  26
ENDBRANCH  16  18
ENDBRANCH   1  16
TORSDOF 5
ENDMDL
MODEL 6
REMARK VINA RESULT:      -8.0      1.952      7.668
REMARK  Name = 
REMARK  6 active torsions:
REMARK  status: ('A' for Active; 'I' for Inactive)
REMARK    1  A    between atoms: C_1  and  C_2
REMARK    2  A    between atoms: C_6  and  C_7
REMARK    3  A    between atoms: C_7  and  N_8
REMARK    4  A    between atoms: C_7  and  C_24
REMARK    5  A    between atoms: N_8  and  C_9
REMARK    6  A    between atoms: N_17  and  C_18
REMARK                            x       y       z     vdW  Elec       q    Type
REMARK                         _______ _______ _______ _____ _____    ______ ____
ROOT
ATOM      1  C   UNL     1       3.431   5.389  17.914  0.00  0.00    +0.000 A 
ATOM      2  N   UNL     1       3.189   4.425  18.834  0.00  0.00    +0.000 NA
ATOM      3  C   UNL     1       2.473   4.714  19.928  0.00  0.00    +0.000 A 
ATOM      4  N   UNL     1       1.944   5.890  20.262  0.00  0.00    +0.000 NA
ATOM      5  C   UNL     1       2.201   6.850  19.350  0.00  0.00    +0.000 A 
ATOM      6  C   UNL     1       2.913   6.668  18.173  0.00  0.00    +0.000 A 
ATOM      7  C   UNL     1       2.864   7.925  17.545  0.00  0.00    +0.000 A 
ATOM      8  N   UNL     1       2.184   8.840  18.242  0.00  0.00    +0.000 NA
ATOM      9  N   UNL     1       1.811   8.187  19.387  0.00  0.00    +0.000 N 
ENDROOT
BRANCH   9  10
ATOM     10  C   UNL     1       1.119   8.883  20.429  0.00  0.00    +0.000 A 
ATOM     11  C   UNL     1       0.140   9.834  20.103  0.00  0.00    +0.000 A 
ATOM     12  C   UNL     1      -0.540  10.523  21.113  0.00  0.00    +0.000 A 
ATOM     13  C   UNL     1      -0.246  10.278  22.453  0.00  0.00    +0.000 A 
ATOM     14  C   UNL     1       0.727   9.343  22.786  0.00  0.00    +0.000 A 
ATOM     15  C   UNL     1       1.405   8.648  21.782  0.00  0.00    +0.000 A 
ENDBRANCH   9  10
BRANCH   1  16
ATOM     16  N   UNL     1       4.162   5.066  16.779  0.00  0.00    +0.000 N 
ATOM     17  H   UNL     1       3.658   4.727  15.974  0.00  0.00    +0.000 HD
BRANCH  16  18
ATOM     18  C   UNL     1       5.445   4.381  17.003  0.00  0.00    +0.000 C 
BRANCH  18  24
ATOM     19  C   UNL     1       7.825   8.623  17.489  0.00  0.00    +0.000 C 
ATOM     20  C   UNL     1       7.573   7.247  18.028  0.00  0.00    +0.000 A 
ATOM     21  C   UNL     1       8.328   6.734  19.061  0.00  0.00    +0.000 A 
ATOM     22  C   UNL     1       8.042   5.441  19.439  0.00  0.00    +0.000 A 
ATOM     23  N   UNL     1       7.103   4.674  18.852  0.00  0.00    +0.000 NA
ATOM     24  C   UNL     1       6.432   5.238  17.819  0.00  0.00    +0.000 A 
ATOM     25  N   UNL     1       6.619   6.518  17.407  0.00  0.00    +0.000 NA
ENDBRANCH  18  24
BRANCH  18  26
ATOM     26  C   UNL     1       6.074   3.905  15.703  0.00  0.00    +0.000 C 
ATOM     27  C   UNL     1       6.903   4.789  14.797  0.00  0.00    +0.000 C 
ATOM     28  C   UNL     1       5.565   4.298  14.323  0.00  0.00    +0.000 C 
ENDBRANCH  18  26
ENDBRANCH  16  18
ENDBRANCH   1  16
TORSDOF 5
ENDMDL
MODEL 7
REMARK VINA RESULT:      -8.0      1.979      7.672
REMARK  Name = 
REMARK  6 active torsions:
REMARK  status: ('A' for Active; 'I' for Inactive)
REMARK    1  A    between atoms: C_1  and  C_2
REMARK    2  A    between atoms: C_6  and  C_7
REMARK    3  A    between atoms: C_7  and  N_8
REMARK    4  A    between atoms: C_7  and  C_24
REMARK    5  A    between atoms: N_8  and  C_9
REMARK    6  A    between atoms: N_17  and  C_18
REMARK                            x       y       z     vdW  Elec       q    Type
REMARK                         _______ _______ _______ _____ _____    ______ ____
ROOT
ATOM      1  C   UNL     1       3.069   6.493  19.261  0.00  0.00    +0.000 A 
ATOM      2  N   UNL     1       3.582   6.743  18.032  0.00  0.00    +0.000 NA
ATOM      3  C   UNL     1       3.222   7.852  17.374  0.00  0.00    +0.000 A 
ATOM      4  N   UNL     1       2.370   8.793  17.779  0.00  0.00    +0.000 NA
ATOM      5  C   UNL     1       1.851   8.532  18.996  0.00  0.00    +0.000 A 
ATOM      6  C   UNL     1       2.160   7.429  19.779  0.00  0.00    +0.000 A 
ATOM      7  C   UNL     1       1.421   7.628  20.959  0.00  0.00    +0.000 A 
ATOM      8  N   UNL     1       0.701   8.753  20.949  0.00  0.00    +0.000 NA
ATOM      9  N   UNL     1       0.930   9.293  19.711  0.00  0.00    +0.000 N 
ENDROOT
BRANCH   9  10
ATOM     10  C   UNL     1       0.251  10.485  19.300  0.00  0.00    +0.000 A 
ATOM     11  C   UNL     1       0.906  11.723  19.379  0.00  0.00    +0.000 A 
ATOM     12  C   UNL     1       0.252  12.896  18.984  0.00  0.00    +0.000 A 
ATOM     13  C   UNL     1      -1.059  12.845  18.515  0.00  0.00    +0.000 A 
ATOM     14  C   UNL     1      -1.719  11.624  18.439  0.00  0.00    +0.000 A 
ATOM     15  C   UNL     1      -1.069  10.451  18.827  0.00  0.00    +0.000 A 
ENDBRANCH   9  10
BRANCH   1  16
ATOM     16  N   UNL     1       3.467   5.346  19.933  0.00  0.00    +0.000 N 
ATOM     17  H   UNL     1       4.068   5.455  20.737  0.00  0.00    +0.000 HD
BRANCH  16  18
ATOM     18  C   UNL     1       3.805   4.183  19.097  0.00  0.00    +0.000 C 
BRANCH  18  24
ATOM     19  C   UNL     1       6.097   3.895  14.789  0.00  0.00    +0.000 C 
ATOM     20  C   UNL     1       6.184   4.238  16.246  0.00  0.00    +0.000 A 
ATOM     21  C   UNL     1       7.393   4.529  16.841  0.00  0.00    +0.000 A 
ATOM     22  C   UNL     1       7.359   4.778  18.195  0.00  0.00    +0.000 A 
ATOM     23  N   UNL     1       6.240   4.731  18.943  0.00  0.00    +0.000 NA
ATOM     24  C   UNL     1       5.100   4.399  18.290  0.00  0.00    +0.000 A 
ATOM     25  N   UNL     1       5.033   4.179  16.952  0.00  0.00    +0.000 NA
ENDBRANCH  18  24
BRANCH  18  26
ATOM     26  C   UNL     1       2.654   3.776  18.191  0.00  0.00    +0.000 C 
ATOM     27  C   UNL     1       1.276   3.406  18.697  0.00  0.00    +0.000 C 
ATOM     28  C   UNL     1       2.138   2.348  18.068  0.00  0.00    +0.000 C 
ENDBRANCH  18  26
ENDBRANCH  16  18
ENDBRANCH   1  16
TORSDOF 5
ENDMDL
MODEL 8
REMARK VINA RESULT:      -8.0      0.328      1.350
REMARK  Name = 
REMARK  6 active torsions:
REMARK  status: ('A' for Active; 'I' for Inactive)
REMARK    1  A    between atoms: C_1  and  C_2
REMARK    2  A    between atoms: C_6  and  C_7
REMARK    3  A    between atoms: C_7  and  N_8
REMARK    4  A    between atoms: C_7  and  C_24
REMARK    5  A    between atoms: N_8  and  C_9
REMARK    6  A    between atoms: N_17  and  C_18
REMARK                            x       y       z     vdW  Elec       q    Type
REMARK                         _______ _______ _______ _____ _____    ______ ____
ROOT
ATOM      1  C   UNL     1       4.090   4.990  18.753  0.00  0.00    +0.000 A 
ATOM      2  N   UNL     1       4.070   3.644  18.909  0.00  0.00    +0.000 NA
ATOM      3  C   UNL     1       4.563   2.856  17.946  0.00  0.00    +0.000 A 
ATOM      4  N   UNL     1       5.092   3.233  16.783  0.00  0.00    +0.000 NA
ATOM      5  C   UNL     1       5.095   4.572  16.626  0.00  0.00    +0.000 A 
ATOM      6  C   UNL     1       4.630   5.490  17.558  0.00  0.00    +0.000 A 
ATOM      7  C   UNL     1       4.895   6.740  16.970  0.00  0.00    +0.000 A 
ATOM      8  N   UNL     1       5.478   6.649  15.772  0.00  0.00    +0.000 NA
ATOM      9  N   UNL     1       5.561   5.302  15.535  0.00  0.00    +0.000 N 
ENDROOT
BRANCH   9  10
ATOM     10  C   UNL     1       6.069   4.812  14.289  0.00  0.00    +0.000 A 
ATOM     11  C   UNL     1       7.289   5.298  13.794  0.00  0.00    +0.000 A 
ATOM     12  C   UNL     1       7.794   4.828  12.576  0.00  0.00    +0.000 A 
ATOM     13  C   UNL     1       7.086   3.881  11.839  0.00  0.00    +0.000 A 
ATOM     14  C   UNL     1       5.874   3.399  12.318  0.00  0.00    +0.000 A 
ATOM     15  C   UNL     1       5.368   3.859  13.535  0.00  0.00    +0.000 A 
ENDBRANCH   9  10
BRANCH   1  16
ATOM     16  N   UNL     1       3.588   5.791  19.770  0.00  0.00    +0.000 N 
ATOM     17  H   UNL     1       4.035   5.741  20.673  0.00  0.00    +0.000 HD
BRANCH  16  18
ATOM     18  C   UNL     1       2.123   5.913  19.842  0.00  0.00    +0.000 C 
BRANCH  18  24
ATOM     19  C   UNL     1       1.877  10.403  17.926  0.00  0.00    +0.000 C 
ATOM     20  C   UNL     1       1.573   9.507  19.089  0.00  0.00    +0.000 A 
ATOM     21  C   UNL     1       1.100  10.017  20.280  0.00  0.00    +0.000 A 
ATOM     22  C   UNL     1       0.906   9.107  21.296  0.00  0.00    +0.000 A 
ATOM     23  N   UNL     1       1.166   7.791  21.189  0.00  0.00    +0.000 NA
ATOM     24  C   UNL     1       1.665   7.376  19.999  0.00  0.00    +0.000 A 
ATOM     25  N   UNL     1       1.849   8.194  18.931  0.00  0.00    +0.000 NA
ENDBRANCH  18  24
BRANCH  18  26
ATOM     26  C   UNL     1       1.528   5.030  20.928  0.00  0.00    +0.000 C 
ATOM     27  C   UNL     1       2.250   3.850  21.542  0.00  0.00    +0.000 C 
ATOM     28  C   UNL     1       1.037   3.608  20.688  0.00  0.00    +0.000 C 
ENDBRANCH  18  26
ENDBRANCH  16  18
ENDBRANCH   1  16
TORSDOF 5
ENDMDL
MODEL 9
REMARK VINA RESULT:      -8.0      2.681      8.643
REMARK  Name = 
REMARK  6 active torsions:
REMARK  status: ('A' for Active; 'I' for Inactive)
REMARK    1  A    between atoms: C_1  and  C_2
REMARK    2  A    between atoms: C_6  and  C_7
REMARK    3  A    between atoms: C_7  and  N_8
REMARK    4  A    between atoms: C_7  and  C_24
REMARK    5  A    between atoms: N_8  and  C_9
REMARK    6  A    between atoms: N_17  and  C_18
REMARK                            x       y       z     vdW  Elec       q    Type
REMARK                         _______ _______ _______ _____ _____    ______ ____
ROOT
ATOM      1  C   UNL     1       2.358   7.864  19.040  0.00  0.00    +0.000 A 
ATOM      2  N   UNL     1       2.318   8.526  17.859  0.00  0.00    +0.000 NA
ATOM      3  C   UNL     1       1.597   9.649  17.750  0.00  0.00    +0.000 A 
ATOM      4  N   UNL     1       0.862  10.234  18.695  0.00  0.00    +0.000 NA
ATOM      5  C   UNL     1       0.894   9.562  19.865  0.00  0.00    +0.000 A 
ATOM      6  C   UNL     1       1.616   8.402  20.103  0.00  0.00    +0.000 A 
ATOM      7  C   UNL     1       1.376   8.122  21.460  0.00  0.00    +0.000 A 
ATOM      8  N   UNL     1       0.576   9.013  22.052  0.00  0.00    +0.000 NA
ATOM      9  N   UNL     1       0.237   9.884  21.050  0.00  0.00    +0.000 N 
ENDROOT
BRANCH   9  10
ATOM     10  C   UNL     1      -0.688  10.949  21.293  0.00  0.00    +0.000 A 
ATOM     11  C   UNL     1      -0.887  11.415  22.602  0.00  0.00    +0.000 A 
ATOM     12  C   UNL     1      -1.792  12.453  22.852  0.00  0.00    +0.000 A 
ATOM     13  C   UNL     1      -2.509  13.029  21.806  0.00  0.00    +0.000 A 
ATOM     14  C   UNL     1      -2.323  12.570  20.507  0.00  0.00    +0.000 A 
ATOM     15  C   UNL     1      -1.418  11.538  20.251  0.00  0.00    +0.000 A 
ENDBRANCH   9  10
BRANCH   1  16
ATOM     16  N   UNL     1       3.124   6.710  19.137  0.00  0.00    +0.000 N 
ATOM     17  H   UNL     1       4.028   6.779  19.580  0.00  0.00    +0.000 HD
BRANCH  16  18
ATOM     18  C   UNL     1       3.106   5.815  17.969  0.00  0.00    +0.000 C 
BRANCH  18  24
ATOM     19  C   UNL     1       1.315   2.786  21.361  0.00  0.00    +0.000 C 
ATOM     20  C   UNL     1       1.729   2.981  19.933  0.00  0.00    +0.000 A 
ATOM     21  C   UNL     1       1.797   1.918  19.057  0.00  0.00    +0.000 A 
ATOM     22  C   UNL     1       2.240   2.207  17.785  0.00  0.00    +0.000 A 
ATOM     23  N   UNL     1       2.617   3.435  17.379  0.00  0.00    +0.000 NA
ATOM     24  C   UNL     1       2.558   4.416  18.311  0.00  0.00    +0.000 A 
ATOM     25  N   UNL     1       2.095   4.231  19.574  0.00  0.00    +0.000 NA
ENDBRANCH  18  24
BRANCH  18  26
ATOM     26  C   UNL     1       4.468   5.724  17.297  0.00  0.00    +0.000 C 
ATOM     27  C   UNL     1       5.526   6.801  17.393  0.00  0.00    +0.000 C 
ATOM     28  C   UNL     1       4.862   6.536  16.071  0.00  0.00    +0.000 C 
ENDBRANCH  18  26
ENDBRANCH  16  18
ENDBRANCH   1  16
TORSDOF 5
ENDMDL
