MODEL 1
REMARK VINA RESULT:      -8.9      0.000      0.000
REMARK  Name = 
REMARK  5 active torsions:
REMARK  status: ('A' for Active; 'I' for Inactive)
REMARK    1  A    between atoms: C_1  and  C_2
REMARK    2  A    between atoms: N_6  and  C_7
REMARK    3  A    between atoms: C_10  and  C_11
REMARK    4  A    between atoms: C_11  and  N_12
REMARK    5  A    between atoms: C_13  and  C_15
REMARK                            x       y       z     vdW  Elec       q    Type
REMARK                         _______ _______ _______ _____ _____    ______ ____
ROOT
ATOM      1  N   UNL     1      -0.045  10.532  18.161  0.00  0.00    +0.000 N 
ATOM      2  C   UNL     1      -1.209  11.012  18.685  0.00  0.00    +0.000 C 
ATOM      3  O   UNL     1      -1.247  11.407  19.851  0.00  0.00    +0.000 OA
ATOM      4  H   UNL     1      -0.036  10.233  17.197  0.00  0.00    +0.000 HD
ENDROOT
BRANCH   2   5
ATOM      5  C   UNL     1      -2.447  11.004  17.815  0.00  0.00    +0.000 A 
ATOM      6  C   UNL     1      -2.151  10.435  16.542  0.00  0.00    +0.000 A 
ATOM      7  C   UNL     1      -3.094  10.387  15.547  0.00  0.00    +0.000 A 
ATOM      8  F   UNL     1      -2.800   9.868  14.349  0.00  0.00    +0.000 F 
ATOM      9  C   UNL     1      -4.315  10.977  15.765  0.00  0.00    +0.000 A 
ATOM     10  C   UNL     1      -4.614  11.583  16.993  0.00  0.00    +0.000 A 
ATOM     11  C   UNL     1      -5.784  12.335  17.033  0.00  0.00    +0.000 A 
ATOM     12  C   UNL     1      -6.096  13.091  18.146  0.00  0.00    +0.000 A 
ATOM     13  C   UNL     1      -5.605  12.596  19.316  0.00  0.00    +0.000 A 
ATOM     14  N   UNL     1      -4.380  11.979  19.334  0.00  0.00    +0.000 NA
ATOM     15  C   UNL     1      -3.779  11.532  18.131  0.00  0.00    +0.000 A 
ENDBRANCH   2   5
BRANCH   1  16
ATOM     16  C   UNL     1       1.168  10.483  18.924  0.00  0.00    +0.000 C 
BRANCH  16  20
ATOM     17  C   UNL     1       2.854   6.501  18.896  0.00  0.00    +0.000 A 
ATOM     18  C   UNL     1       3.058   7.379  17.824  0.00  0.00    +0.000 A 
ATOM     19  C   UNL     1       2.523   8.671  17.846  0.00  0.00    +0.000 A 
ATOM     20  C   UNL     1       1.747   9.093  18.930  0.00  0.00    +0.000 A 
ATOM     21  C   UNL     1       1.542   8.217  19.999  0.00  0.00    +0.000 A 
ATOM     22  C   UNL     1       2.083   6.936  19.976  0.00  0.00    +0.000 A 
ATOM     23  F   UNL     1       1.873   6.163  21.050  0.00  0.00    +0.000 F 
BRANCH  17  29
ATOM     24  C   UNL     1       1.426   3.849  17.999  0.00  0.00    +0.000 C 
ATOM     25  C   UNL     1       2.803   3.987  18.548  0.00  0.00    +0.000 A 
ATOM     26  N   UNL     1       3.644   2.974  18.666  0.00  0.00    +0.000 NA
ATOM     27  C   UNL     1       4.822   3.510  19.093  0.00  0.00    +0.000 A 
ATOM     28  C   UNL     1       4.709   4.869  19.233  0.00  0.00    +0.000 A 
ATOM     29  N   UNL     1       3.411   5.194  18.891  0.00  0.00    +0.000 N 
ENDBRANCH  17  29
ENDBRANCH  16  20
ENDBRANCH   1  16
TORSDOF 4
ENDMDL
MODEL 2
REMARK VINA RESULT:      -8.8      4.260      5.213
REMARK  Name = 
REMARK  5 active torsions:
REMARK  status: ('A' for Active; 'I' for Inactive)
REMARK    1  A    between atoms: C_1  and  C_2
REMARK    2  A    between atoms: N_6  and  C_7
REMARK    3  A    between atoms: C_10  and  C_11
REMARK    4  A    between atoms: C_11  and  N_12
REMARK    5  A    between atoms: C_13  and  C_15
REMARK                            x       y       z     vdW  Elec       q    Type
REMARK                         _______ _______ _______ _____ _____    ______ ____
ROOT
ATOM      1  N   UNL     1       1.242   8.277  20.815  0.00  0.00    +0.000 N 
ATOM      2  C   UNL     1       0.136   8.819  21.399  0.00  0.00    +0.000 C 
ATOM      3  O   UNL     1      -0.749   8.088  21.849  0.00  0.00    +0.000 OA
ATOM      4  H   UNL     1       1.960   8.897  20.472  0.00  0.00    +0.000 HD
ENDROOT
BRANCH   2   5
ATOM      5  C   UNL     1       0.008  10.326  21.439  0.00  0.00    +0.000 A 
ATOM      6  C   UNL     1      -0.794  10.723  22.548  0.00  0.00    +0.000 A 
ATOM      7  C   UNL     1      -1.122  12.039  22.755  0.00  0.00    +0.000 A 
ATOM      8  F   UNL     1      -1.891  12.398  23.790  0.00  0.00    +0.000 F 
ATOM      9  C   UNL     1      -0.735  12.970  21.823  0.00  0.00    +0.000 A 
ATOM     10  C   UNL     1       0.015  12.597  20.699  0.00  0.00    +0.000 A 
ATOM     11  C   UNL     1       0.165  13.571  19.717  0.00  0.00    +0.000 A 
ATOM     12  C   UNL     1       0.759  13.263  18.508  0.00  0.00    +0.000 A 
ATOM     13  C   UNL     1       1.682  12.264  18.575  0.00  0.00    +0.000 A 
ATOM     14  N   UNL     1       1.486  11.211  19.431  0.00  0.00    +0.000 NA
ATOM     15  C   UNL     1       0.546  11.306  20.489  0.00  0.00    +0.000 A 
ENDBRANCH   2   5
BRANCH   1  16
ATOM     16  C   UNL     1       1.430   6.859  20.714  0.00  0.00    +0.000 C 
BRANCH  16  20
ATOM     17  C   UNL     1       4.477   5.942  17.785  0.00  0.00    +0.000 A 
ATOM     18  C   UNL     1       3.613   7.031  17.613  0.00  0.00    +0.000 A 
ATOM     19  C   UNL     1       2.641   7.333  18.571  0.00  0.00    +0.000 A 
ATOM     20  C   UNL     1       2.495   6.525  19.704  0.00  0.00    +0.000 A 
ATOM     21  C   UNL     1       3.355   5.437  19.875  0.00  0.00    +0.000 A 
ATOM     22  C   UNL     1       4.326   5.146  18.923  0.00  0.00    +0.000 A 
ATOM     23  F   UNL     1       5.136   4.107  19.171  0.00  0.00    +0.000 F 
BRANCH  17  29
ATOM     24  C   UNL     1       7.459   6.933  17.807  0.00  0.00    +0.000 C 
ATOM     25  C   UNL     1       6.799   6.094  16.770  0.00  0.00    +0.000 A 
ATOM     26  N   UNL     1       7.435   5.593  15.726  0.00  0.00    +0.000 NA
ATOM     27  C   UNL     1       6.534   4.801  15.080  0.00  0.00    +0.000 A 
ATOM     28  C   UNL     1       5.331   4.806  15.736  0.00  0.00    +0.000 A 
ATOM     29  N   UNL     1       5.481   5.641  16.826  0.00  0.00    +0.000 N 
ENDBRANCH  17  29
ENDBRANCH  16  20
ENDBRANCH   1  16
TORSDOF 4
ENDMDL
MODEL 3
REMARK VINA RESULT:      -8.8      0.899      1.279
REMARK  Name = 
REMARK  5 active torsions:
REMARK  status: ('A' for Active; 'I' for Inactive)
REMARK    1  A    between atoms: C_1  and  C_2
REMARK    2  A    between atoms: N_6  and  C_7
REMARK    3  A    between atoms: C_10  and  C_11
REMARK    4  A    between atoms: C_11  and  N_12
REMARK    5  A    between atoms: C_13  and  C_15
REMARK                            x       y       z     vdW  Elec       q    Type
REMARK                         _______ _______ _______ _____ _____    ______ ____
ROOT
ATOM      1  N   UNL     1      -0.015  10.601  18.200  0.00  0.00    +0.000 N 
ATOM      2  C   UNL     1      -1.217  10.919  18.758  0.00  0.00    +0.000 C 
ATOM      3  O   UNL     1      -1.298  11.153  19.965  0.00  0.00    +0.000 OA
ATOM      4  H   UNL     1       0.027  10.433  17.206  0.00  0.00    +0.000 HD
ENDROOT
BRANCH   2   5
ATOM      5  C   UNL     1      -2.442  10.933  17.870  0.00  0.00    +0.000 A 
ATOM      6  C   UNL     1      -2.133  10.376  16.596  0.00  0.00    +0.000 A 
ATOM      7  C   UNL     1      -3.061  10.349  15.586  0.00  0.00    +0.000 A 
ATOM      8  F   UNL     1      -2.754   9.839  14.386  0.00  0.00    +0.000 F 
ATOM      9  C   UNL     1      -4.279  10.949  15.792  0.00  0.00    +0.000 A 
ATOM     10  C   UNL     1      -4.590  11.545  17.022  0.00  0.00    +0.000 A 
ATOM     11  C   UNL     1      -5.753  12.308  17.052  0.00  0.00    +0.000 A 
ATOM     12  C   UNL     1      -6.074  13.055  18.169  0.00  0.00    +0.000 A 
ATOM     13  C   UNL     1      -5.606  12.542  19.341  0.00  0.00    +0.000 A 
ATOM     14  N   UNL     1      -4.388  11.913  19.371  0.00  0.00    +0.000 NA
ATOM     15  C   UNL     1      -3.773  11.472  18.171  0.00  0.00    +0.000 A 
ENDBRANCH   2   5
BRANCH   1  16
ATOM     16  C   UNL     1       1.190  10.542  18.974  0.00  0.00    +0.000 C 
BRANCH  16  20
ATOM     17  C   UNL     1       2.853   6.550  18.966  0.00  0.00    +0.000 A 
ATOM     18  C   UNL     1       2.083   7.010  20.043  0.00  0.00    +0.000 A 
ATOM     19  C   UNL     1       1.535   8.296  20.033  0.00  0.00    +0.000 A 
ATOM     20  C   UNL     1       1.777   9.156  18.956  0.00  0.00    +0.000 A 
ATOM     21  C   UNL     1       2.546   8.698  17.883  0.00  0.00    +0.000 A 
ATOM     22  C   UNL     1       3.083   7.415  17.894  0.00  0.00    +0.000 A 
ATOM     23  F   UNL     1       3.782   7.033  16.816  0.00  0.00    +0.000 F 
BRANCH  17  29
ATOM     24  C   UNL     1       1.495   3.955  17.825  0.00  0.00    +0.000 C 
ATOM     25  C   UNL     1       2.814   4.053  18.508  0.00  0.00    +0.000 A 
ATOM     26  N   UNL     1       3.631   3.026  18.664  0.00  0.00    +0.000 NA
ATOM     27  C   UNL     1       4.767   3.529  19.224  0.00  0.00    +0.000 A 
ATOM     28  C   UNL     1       4.653   4.882  19.410  0.00  0.00    +0.000 A 
ATOM     29  N   UNL     1       3.397   5.237  18.960  0.00  0.00    +0.000 N 
ENDBRANCH  17  29
ENDBRANCH  16  20
ENDBRANCH   1  16
TORSDOF 4
ENDMDL
MODEL 4
REMARK VINA RESULT:      -8.7      0.562      1.202
REMARK  Name = 
REMARK  5 active torsions:
REMARK  status: ('A' for Active; 'I' for Inactive)
REMARK    1  A    between atoms: C_1  and  C_2
REMARK    2  A    between atoms: N_6  and  C_7
REMARK    3  A    between atoms: C_10  and  C_11
REMARK    4  A    between atoms: C_11  and  N_12
REMARK    5  A    between atoms: C_13  and  C_15
REMARK                            x       y       z     vdW  Elec       q    Type
REMARK                         _______ _______ _______ _____ _____    ______ ____
ROOT
ATOM      1  N   UNL     1       0.128  10.207  18.110  0.00  0.00    +0.000 N 
ATOM      2  C   UNL     1      -1.005  10.760  18.627  0.00  0.00    +0.000 C 
ATOM      3  O   UNL     1      -1.009  11.206  19.776  0.00  0.00    +0.000 OA
ATOM      4  H   UNL     1       0.110   9.866  17.160  0.00  0.00    +0.000 HD
ENDROOT
BRANCH   2   5
ATOM      5  C   UNL     1      -2.255  10.771  17.774  0.00  0.00    +0.000 A 
ATOM      6  C   UNL     1      -1.987  10.188  16.501  0.00  0.00    +0.000 A 
ATOM      7  C   UNL     1      -2.945  10.153  15.519  0.00  0.00    +0.000 A 
ATOM      8  F   UNL     1      -2.677   9.619  14.320  0.00  0.00    +0.000 F 
ATOM      9  C   UNL     1      -4.151  10.768  15.749  0.00  0.00    +0.000 A 
ATOM     10  C   UNL     1      -4.421  11.388  16.977  0.00  0.00    +0.000 A 
ATOM     11  C   UNL     1      -5.576  12.162  17.027  0.00  0.00    +0.000 A 
ATOM     12  C   UNL     1      -5.858  12.931  18.140  0.00  0.00    +0.000 A 
ATOM     13  C   UNL     1      -5.361  12.435  19.306  0.00  0.00    +0.000 A 
ATOM     14  N   UNL     1      -4.148  11.794  19.312  0.00  0.00    +0.000 NA
ATOM     15  C   UNL     1      -3.572  11.328  18.104  0.00  0.00    +0.000 A 
ENDBRANCH   2   5
BRANCH   1  16
ATOM     16  C   UNL     1       1.349  10.135  18.859  0.00  0.00    +0.000 C 
BRANCH  16  20
ATOM     17  C   UNL     1       2.896   6.097  18.914  0.00  0.00    +0.000 A 
ATOM     18  C   UNL     1       3.072   6.923  17.797  0.00  0.00    +0.000 A 
ATOM     19  C   UNL     1       2.583   8.233  17.791  0.00  0.00    +0.000 A 
ATOM     20  C   UNL     1       1.880   8.727  18.894  0.00  0.00    +0.000 A 
ATOM     21  C   UNL     1       1.703   7.903  20.009  0.00  0.00    +0.000 A 
ATOM     22  C   UNL     1       2.198   6.604  20.013  0.00  0.00    +0.000 A 
ATOM     23  F   UNL     1       2.020   5.883  21.129  0.00  0.00    +0.000 F 
BRANCH  17  29
ATOM     24  C   UNL     1       5.892   5.241  19.327  0.00  0.00    +0.000 C 
ATOM     25  C   UNL     1       4.730   4.348  19.069  0.00  0.00    +0.000 A 
ATOM     26  N   UNL     1       4.816   3.030  19.047  0.00  0.00    +0.000 NA
ATOM     27  C   UNL     1       3.542   2.571  18.897  0.00  0.00    +0.000 A 
ATOM     28  C   UNL     1       2.658   3.617  18.833  0.00  0.00    +0.000 A 
ATOM     29  N   UNL     1       3.408   4.772  18.936  0.00  0.00    +0.000 N 
ENDBRANCH  17  29
ENDBRANCH  16  20
ENDBRANCH   1  16
TORSDOF 4
ENDMDL
MODEL 5
REMARK VINA RESULT:      -8.6      3.109      4.686
REMARK  Name = 
REMARK  5 active torsions:
REMARK  status: ('A' for Active; 'I' for Inactive)
REMARK    1  A    between atoms: C_1  and  C_2
REMARK    2  A    between atoms: N_6  and  C_7
REMARK    3  A    between atoms: C_10  and  C_11
REMARK    4  A    between atoms: C_11  and  N_12
REMARK    5  A    between atoms: C_13  and  C_15
REMARK                            x       y       z     vdW  Elec       q    Type
REMARK                         _______ _______ _______ _____ _____    ______ ____
ROOT
ATOM      1  N   UNL     1       0.835   7.848  20.517  0.00  0.00    +0.000 N 
ATOM      2  C   UNL     1       0.881   8.935  21.339  0.00  0.00    +0.000 C 
ATOM      3  O   UNL     1       1.551   8.903  22.372  0.00  0.00    +0.000 OA
ATOM      4  H   UNL     1       0.295   7.907  19.667  0.00  0.00    +0.000 HD
ENDROOT
BRANCH   2   5
ATOM      5  C   UNL     1       0.060  10.151  20.970  0.00  0.00    +0.000 A 
ATOM      6  C   UNL     1      -0.081  11.011  22.098  0.00  0.00    +0.000 A 
ATOM      7  C   UNL     1      -0.851  12.145  22.037  0.00  0.00    +0.000 A 
ATOM      8  F   UNL     1      -0.991  12.935  23.109  0.00  0.00    +0.000 F 
ATOM      9  C   UNL     1      -1.561  12.401  20.890  0.00  0.00    +0.000 A 
ATOM     10  C   UNL     1      -1.474  11.545  19.783  0.00  0.00    +0.000 A 
ATOM     11  C   UNL     1      -2.393  11.775  18.763  0.00  0.00    +0.000 A 
ATOM     12  C   UNL     1      -2.490  10.902  17.697  0.00  0.00    +0.000 A 
ATOM     13  C   UNL     1      -1.330  10.259  17.390  0.00  0.00    +0.000 A 
ATOM     14  N   UNL     1      -0.471   9.886  18.392  0.00  0.00    +0.000 NA
ATOM     15  C   UNL     1      -0.582  10.456  19.686  0.00  0.00    +0.000 A 
ENDBRANCH   2   5
BRANCH   1  16
ATOM     16  C   UNL     1       1.564   6.647  20.805  0.00  0.00    +0.000 C 
BRANCH  16  20
ATOM     17  C   UNL     1       4.534   5.919  17.747  0.00  0.00    +0.000 A 
ATOM     18  C   UNL     1       3.632   6.985  17.639  0.00  0.00    +0.000 A 
ATOM     19  C   UNL     1       2.685   7.225  18.638  0.00  0.00    +0.000 A 
ATOM     20  C   UNL     1       2.603   6.379  19.749  0.00  0.00    +0.000 A 
ATOM     21  C   UNL     1       3.502   5.314  19.857  0.00  0.00    +0.000 A 
ATOM     22  C   UNL     1       4.448   5.084  18.864  0.00  0.00    +0.000 A 
ATOM     23  F   UNL     1       5.298   4.065  19.051  0.00  0.00    +0.000 F 
BRANCH  17  29
ATOM     24  C   UNL     1       7.493   6.978  17.717  0.00  0.00    +0.000 C 
ATOM     25  C   UNL     1       6.819   6.166  16.668  0.00  0.00    +0.000 A 
ATOM     26  N   UNL     1       7.432   5.722  15.585  0.00  0.00    +0.000 NA
ATOM     27  C   UNL     1       6.529   4.935  14.935  0.00  0.00    +0.000 A 
ATOM     28  C   UNL     1       5.347   4.886  15.628  0.00  0.00    +0.000 A 
ATOM     29  N   UNL     1       5.514   5.680  16.746  0.00  0.00    +0.000 N 
ENDBRANCH  17  29
ENDBRANCH  16  20
ENDBRANCH   1  16
TORSDOF 4
ENDMDL
MODEL 6
REMARK VINA RESULT:      -8.6      1.026      1.729
REMARK  Name = 
REMARK  5 active torsions:
REMARK  status: ('A' for Active; 'I' for Inactive)
REMARK    1  A    between atoms: C_1  and  C_2
REMARK    2  A    between atoms: N_6  and  C_7
REMARK    3  A    between atoms: C_10  and  C_11
REMARK    4  A    between atoms: C_11  and  N_12
REMARK    5  A    between atoms: C_13  and  C_15
REMARK                            x       y       z     vdW  Elec       q    Type
REMARK                         _______ _______ _______ _____ _____    ______ ____
ROOT
ATOM      1  N   UNL     1      -0.034  10.135  18.487  0.00  0.00    +0.000 N 
ATOM      2  C   UNL     1      -1.116  10.881  18.848  0.00  0.00    +0.000 C 
ATOM      3  O   UNL     1      -1.105  11.520  19.902  0.00  0.00    +0.000 OA
ATOM      4  H   UNL     1      -0.061   9.636  17.611  0.00  0.00    +0.000 HD
ENDROOT
BRANCH   2   5
ATOM      5  C   UNL     1      -2.333  10.866  17.949  0.00  0.00    +0.000 A 
ATOM      6  C   UNL     1      -2.014  10.259  16.700  0.00  0.00    +0.000 A 
ATOM      7  C   UNL     1      -2.934  10.197  15.683  0.00  0.00    +0.000 A 
ATOM      8  F   UNL     1      -2.618   9.641  14.507  0.00  0.00    +0.000 F 
ATOM      9  C   UNL     1      -4.151  10.809  15.855  0.00  0.00    +0.000 A 
ATOM     10  C   UNL     1      -4.470  11.453  17.058  0.00  0.00    +0.000 A 
ATOM     11  C   UNL     1      -5.631  12.221  17.049  0.00  0.00    +0.000 A 
ATOM     12  C   UNL     1      -5.958  13.011  18.133  0.00  0.00    +0.000 A 
ATOM     13  C   UNL     1      -5.504  12.542  19.328  0.00  0.00    +0.000 A 
ATOM     14  N   UNL     1      -4.288  11.909  19.393  0.00  0.00    +0.000 NA
ATOM     15  C   UNL     1      -3.664  11.421  18.217  0.00  0.00    +0.000 A 
ENDBRANCH   2   5
BRANCH   1  16
ATOM     16  C   UNL     1       1.150  10.075  19.294  0.00  0.00    +0.000 C 
BRANCH  16  20
ATOM     17  C   UNL     1       2.845   6.096  19.288  0.00  0.00    +0.000 A 
ATOM     18  C   UNL     1       2.154   6.585  20.404  0.00  0.00    +0.000 A 
ATOM     19  C   UNL     1       1.594   7.867  20.394  0.00  0.00    +0.000 A 
ATOM     20  C   UNL     1       1.747   8.693  19.276  0.00  0.00    +0.000 A 
ATOM     21  C   UNL     1       2.438   8.206  18.163  0.00  0.00    +0.000 A 
ATOM     22  C   UNL     1       2.986   6.928  18.175  0.00  0.00    +0.000 A 
ATOM     23  F   UNL     1       3.606   6.516  17.060  0.00  0.00    +0.000 F 
BRANCH  17  29
ATOM     24  C   UNL     1       5.897   5.343  19.289  0.00  0.00    +0.000 C 
ATOM     25  C   UNL     1       4.741   4.408  19.235  0.00  0.00    +0.000 A 
ATOM     26  N   UNL     1       4.867   3.092  19.248  0.00  0.00    +0.000 NA
ATOM     27  C   UNL     1       3.601   2.591  19.302  0.00  0.00    +0.000 A 
ATOM     28  C   UNL     1       2.682   3.608  19.331  0.00  0.00    +0.000 A 
ATOM     29  N   UNL     1       3.399   4.788  19.282  0.00  0.00    +0.000 N 
ENDBRANCH  17  29
ENDBRANCH  16  20
ENDBRANCH   1  16
TORSDOF 4
ENDMDL
MODEL 7
REMARK VINA RESULT:      -8.5      1.080      1.280
REMARK  Name = 
REMARK  5 active torsions:
REMARK  status: ('A' for Active; 'I' for Inactive)
REMARK    1  A    between atoms: C_1  and  C_2
REMARK    2  A    between atoms: N_6  and  C_7
REMARK    3  A    between atoms: C_10  and  C_11
REMARK    4  A    between atoms: C_11  and  N_12
REMARK    5  A    between atoms: C_13  and  C_15
REMARK                            x       y       z     vdW  Elec       q    Type
REMARK                         _______ _______ _______ _____ _____    ______ ____
ROOT
ATOM      1  N   UNL     1       0.603   9.933  17.815  0.00  0.00    +0.000 N 
ATOM      2  C   UNL     1      -0.203  10.679  18.623  0.00  0.00    +0.000 C 
ATOM      3  O   UNL     1       0.265  11.242  19.615  0.00  0.00    +0.000 OA
ATOM      4  H   UNL     1       0.199   9.498  16.999  0.00  0.00    +0.000 HD
ENDROOT
BRANCH   2   5
ATOM      5  C   UNL     1      -1.677  10.760  18.294  0.00  0.00    +0.000 A 
ATOM      6  C   UNL     1      -1.946  10.082  17.070  0.00  0.00    +0.000 A 
ATOM      7  C   UNL     1      -3.202  10.081  16.517  0.00  0.00    +0.000 A 
ATOM      8  F   UNL     1      -3.440   9.456  15.357  0.00  0.00    +0.000 F 
ATOM      9  C   UNL     1      -4.189  10.821  17.120  0.00  0.00    +0.000 A 
ATOM     10  C   UNL     1      -3.937  11.534  18.300  0.00  0.00    +0.000 A 
ATOM     11  C   UNL     1      -4.934  12.417  18.703  0.00  0.00    +0.000 A 
ATOM     12  C   UNL     1      -4.726  13.273  19.768  0.00  0.00    +0.000 A 
ATOM     13  C   UNL     1      -3.863  12.799  20.708  0.00  0.00    +0.000 A 
ATOM     14  N   UNL     1      -2.782  12.047  20.324  0.00  0.00    +0.000 NA
ATOM     15  C   UNL     1      -2.734  11.458  19.035  0.00  0.00    +0.000 A 
ENDBRANCH   2   5
BRANCH   1  16
ATOM     16  C   UNL     1       2.006   9.785  18.069  0.00  0.00    +0.000 C 
BRANCH  16  20
ATOM     17  C   UNL     1       3.031   5.663  18.884  0.00  0.00    +0.000 A 
ATOM     18  C   UNL     1       3.435   6.287  17.697  0.00  0.00    +0.000 A 
ATOM     19  C   UNL     1       3.114   7.624  17.446  0.00  0.00    +0.000 A 
ATOM     20  C   UNL     1       2.353   8.351  18.368  0.00  0.00    +0.000 A 
ATOM     21  C   UNL     1       1.949   7.729  19.552  0.00  0.00    +0.000 A 
ATOM     22  C   UNL     1       2.277   6.400  19.801  0.00  0.00    +0.000 A 
ATOM     23  F   UNL     1       1.884   5.880  20.971  0.00  0.00    +0.000 F 
BRANCH  17  29
ATOM     24  C   UNL     1       1.128   3.169  18.694  0.00  0.00    +0.000 C 
ATOM     25  C   UNL     1       2.550   3.182  19.130  0.00  0.00    +0.000 A 
ATOM     26  N   UNL     1       3.227   2.090  19.440  0.00  0.00    +0.000 NA
ATOM     27  C   UNL     1       4.507   2.493  19.676  0.00  0.00    +0.000 A 
ATOM     28  C   UNL     1       4.624   3.848  19.503  0.00  0.00    +0.000 A 
ATOM     29  N   UNL     1       3.370   4.311  19.156  0.00  0.00    +0.000 N 
ENDBRANCH  17  29
ENDBRANCH  16  20
ENDBRANCH   1  16
TORSDOF 4
ENDMDL
MODEL 8
REMARK VINA RESULT:      -8.4      3.223      9.738
REMARK  Name = 
REMARK  5 active torsions:
REMARK  status: ('A' for Active; 'I' for Inactive)
REMARK    1  A    between atoms: C_1  and  C_2
REMARK    2  A    between atoms: N_6  and  C_7
REMARK    3  A    between atoms: C_10  and  C_11
REMARK    4  A    between atoms: C_11  and  N_12
REMARK    5  A    between atoms: C_13  and  C_15
REMARK                            x       y       z     vdW  Elec       q    Type
REMARK                         _______ _______ _______ _____ _____    ______ ____
ROOT
ATOM      1  N   UNL     1       3.443   5.900  19.900  0.00  0.00    +0.000 N 
ATOM      2  C   UNL     1       3.630   5.230  18.727  0.00  0.00    +0.000 C 
ATOM      3  O   UNL     1       2.662   4.790  18.103  0.00  0.00    +0.000 OA
ATOM      4  H   UNL     1       4.250   6.267  20.380  0.00  0.00    +0.000 HD
ENDROOT
BRANCH   2   5
ATOM      5  C   UNL     1       5.046   5.009  18.242  0.00  0.00    +0.000 A 
ATOM      6  C   UNL     1       5.972   5.265  19.294  0.00  0.00    +0.000 A 
ATOM      7  C   UNL     1       7.326   5.208  19.080  0.00  0.00    +0.000 A 
ATOM      8  F   UNL     1       8.188   5.469  20.072  0.00  0.00    +0.000 F 
ATOM      9  C   UNL     1       7.785   4.982  17.806  0.00  0.00    +0.000 A 
ATOM     10  C   UNL     1       6.892   4.773  16.745  0.00  0.00    +0.000 A 
ATOM     11  C   UNL     1       7.451   4.772  15.471  0.00  0.00    +0.000 A 
ATOM     12  C   UNL     1       6.644   4.721  14.351  0.00  0.00    +0.000 A 
ATOM     13  C   UNL     1       5.462   4.071  14.540  0.00  0.00    +0.000 A 
ATOM     14  N   UNL     1       4.812   4.176  15.742  0.00  0.00    +0.000 NA
ATOM     15  C   UNL     1       5.495   4.641  16.895  0.00  0.00    +0.000 A 
ENDBRANCH   2   5
BRANCH   1  16
ATOM     16  C   UNL     1       2.136   6.132  20.441  0.00  0.00    +0.000 C 
BRANCH  16  20
ATOM     17  C   UNL     1       0.795  10.173  19.682  0.00  0.00    +0.000 A 
ATOM     18  C   UNL     1       0.502   9.530  20.892  0.00  0.00    +0.000 A 
ATOM     19  C   UNL     1       0.952   8.229  21.138  0.00  0.00    +0.000 A 
ATOM     20  C   UNL     1       1.675   7.538  20.161  0.00  0.00    +0.000 A 
ATOM     21  C   UNL     1       1.966   8.178  18.953  0.00  0.00    +0.000 A 
ATOM     22  C   UNL     1       1.523   9.475  18.716  0.00  0.00    +0.000 A 
ATOM     23  F   UNL     1       1.867  10.037  17.549  0.00  0.00    +0.000 F 
BRANCH  17  29
ATOM     24  C   UNL     1      -1.704  11.049  17.989  0.00  0.00    +0.000 C 
ATOM     25  C   UNL     1      -0.712  11.938  18.651  0.00  0.00    +0.000 A 
ATOM     26  N   UNL     1      -0.806  13.256  18.660  0.00  0.00    +0.000 NA
ATOM     27  C   UNL     1       0.210  13.703  19.450  0.00  0.00    +0.000 A 
ATOM     28  C   UNL     1       0.935  12.649  19.941  0.00  0.00    +0.000 A 
ATOM     29  N   UNL     1       0.359  11.502  19.432  0.00  0.00    +0.000 N 
ENDBRANCH  17  29
ENDBRANCH  16  20
ENDBRANCH   1  16
TORSDOF 4
ENDMDL
MODEL 9
REMARK VINA RESULT:      -8.4      3.101      4.772
REMARK  Name = 
REMARK  5 active torsions:
REMARK  status: ('A' for Active; 'I' for Inactive)
REMARK    1  A    between atoms: C_1  and  C_2
REMARK    2  A    between atoms: N_6  and  C_7
REMARK    3  A    between atoms: C_10  and  C_11
REMARK    4  A    between atoms: C_11  and  N_12
REMARK    5  A    between atoms: C_13  and  C_15
REMARK                            x       y       z     vdW  Elec       q    Type
REMARK                         _______ _______ _______ _____ _____    ______ ____
ROOT
ATOM      1  N   UNL     1       0.813   7.722  20.597  0.00  0.00    +0.000 N 
ATOM      2  C   UNL     1       0.927   8.836  21.375  0.00  0.00    +0.000 C 
ATOM      3  O   UNL     1       1.675   8.834  22.354  0.00  0.00    +0.000 OA
ATOM      4  H   UNL     1       0.209   7.757  19.790  0.00  0.00    +0.000 HD
ENDROOT
BRANCH   2   5
ATOM      5  C   UNL     1       0.087  10.046  21.028  0.00  0.00    +0.000 A 
ATOM      6  C   UNL     1      -0.069  10.881  22.172  0.00  0.00    +0.000 A 
ATOM      7  C   UNL     1      -0.857  12.003  22.132  0.00  0.00    +0.000 A 
ATOM      8  F   UNL     1      -1.012  12.771  23.218  0.00  0.00    +0.000 F 
ATOM      9  C   UNL     1      -1.570  12.270  20.988  0.00  0.00    +0.000 A 
ATOM     10  C   UNL     1      -1.468  11.437  19.865  0.00  0.00    +0.000 A 
ATOM     11  C   UNL     1      -2.389  11.672  18.849  0.00  0.00    +0.000 A 
ATOM     12  C   UNL     1      -2.470  10.818  17.765  0.00  0.00    +0.000 A 
ATOM     13  C   UNL     1      -1.299  10.201  17.448  0.00  0.00    +0.000 A 
ATOM     14  N   UNL     1      -0.436   9.822  18.444  0.00  0.00    +0.000 NA
ATOM     15  C   UNL     1      -0.558  10.365  19.749  0.00  0.00    +0.000 A 
ENDBRANCH   2   5
BRANCH   1  16
ATOM     16  C   UNL     1       1.555   6.526  20.870  0.00  0.00    +0.000 C 
BRANCH  16  20
ATOM     17  C   UNL     1       4.533   5.762  17.829  0.00  0.00    +0.000 A 
ATOM     18  C   UNL     1       4.416   4.930  18.950  0.00  0.00    +0.000 A 
ATOM     19  C   UNL     1       3.440   5.173  19.922  0.00  0.00    +0.000 A 
ATOM     20  C   UNL     1       2.587   6.275  19.803  0.00  0.00    +0.000 A 
ATOM     21  C   UNL     1       2.705   7.106  18.685  0.00  0.00    +0.000 A 
ATOM     22  C   UNL     1       3.671   6.855  17.718  0.00  0.00    +0.000 A 
ATOM     23  F   UNL     1       3.704   7.675  16.658  0.00  0.00    +0.000 F 
BRANCH  17  29
ATOM     24  C   UNL     1       7.434   6.962  17.680  0.00  0.00    +0.000 C 
ATOM     25  C   UNL     1       6.786   6.055  16.695  0.00  0.00    +0.000 A 
ATOM     26  N   UNL     1       7.404   5.575  15.630  0.00  0.00    +0.000 NA
ATOM     27  C   UNL     1       6.532   4.706  15.046  0.00  0.00    +0.000 A 
ATOM     28  C   UNL     1       5.365   4.642  15.762  0.00  0.00    +0.000 A 
ATOM     29  N   UNL     1       5.508   5.511  16.827  0.00  0.00    +0.000 N 
ENDBRANCH  17  29
ENDBRANCH  16  20
ENDBRANCH   1  16
TORSDOF 4
ENDMDL
