MODEL 1
REMARK VINA RESULT:      -8.8      0.000      0.000
REMARK  Name = 
REMARK  4 active torsions:
REMARK  status: ('A' for Active; 'I' for Inactive)
REMARK    1  A    between atoms: C_1  and  C_2
REMARK    2  A    between atoms: C_2  and  N_3
REMARK    3  A    between atoms: C_2  and  C_17
REMARK    4  A    between atoms: C_4  and  C_6
REMARK                            x       y       z     vdW  Elec       q    Type
REMARK                         _______ _______ _______ _____ _____    ______ ____
ROOT
ATOM      1  N   UNL     1       5.408   5.605  18.350  0.00  0.00    +0.000 N 
ATOM      2  C   UNL     1       4.383   4.951  18.999  0.00  0.00    +0.000 C 
ATOM      3  O   UNL     1       4.339   3.744  19.182  0.00  0.00    +0.000 OA
ATOM      4  H   UNL     1       5.347   6.609  18.217  0.00  0.00    +0.000 HD
ENDROOT
BRANCH   2   5
ATOM      5  C   UNL     1       3.234   5.840  19.459  0.00  0.00    +0.000 A 
ATOM      6  N   UNL     1       2.664   5.535  20.598  0.00  0.00    +0.000 NA
ATOM      7  N   UNL     1       1.650   6.318  21.073  0.00  0.00    +0.000 N 
ATOM      8  C   UNL     1       1.413   7.612  20.574  0.00  0.00    +0.000 A 
ATOM      9  C   UNL     1       0.545   8.490  21.233  0.00  0.00    +0.000 A 
ATOM     10  C   UNL     1       0.251   9.747  20.689  0.00  0.00    +0.000 A 
ATOM     11  C   UNL     1       0.800  10.129  19.465  0.00  0.00    +0.000 A 
ATOM     12  C   UNL     1       1.644   9.256  18.783  0.00  0.00    +0.000 A 
ATOM     13  C   UNL     1       1.937   8.009  19.346  0.00  0.00    +0.000 A 
ATOM     14  C   UNL     1       2.791   7.040  18.658  0.00  0.00    +0.000 A 
ATOM     15  O   UNL     1       3.114   7.181  17.489  0.00  0.00    +0.000 OA
ATOM     16  H   UNL     1       1.404   6.185  22.054  0.00  0.00    +0.000 HD
ENDBRANCH   2   5
BRANCH   1  18
ATOM     17  C   UNL     1       7.860   5.711  18.253  0.00  0.00    +0.000 C 
ATOM     18  C   UNL     1       6.603   4.905  17.919  0.00  0.00    +0.000 C 
BRANCH  18  19
ATOM     19  C   UNL     1       6.507   4.655  16.452  0.00  0.00    +0.000 A 
ATOM     20  C   UNL     1       5.732   3.807  15.685  0.00  0.00    +0.000 A 
ATOM     21  C   UNL     1       6.163   3.967  14.338  0.00  0.00    +0.000 A 
ATOM     22  C   UNL     1       5.831   3.398  13.097  0.00  0.00    +0.000 A 
ATOM     23  C   UNL     1       6.532   3.817  11.955  0.00  0.00    +0.000 A 
ATOM     24  C   UNL     1       7.534   4.789  12.040  0.00  0.00    +0.000 A 
ATOM     25  C   UNL     1       7.868   5.377  13.263  0.00  0.00    +0.000 A 
ATOM     26  C   UNL     1       7.163   4.931  14.379  0.00  0.00    +0.000 A 
ATOM     27  O   UNL     1       7.360   5.362  15.652  0.00  0.00    +0.000 OA
ENDBRANCH  18  19
ENDBRANCH   1  18
TORSDOF 3
ENDMDL
MODEL 2
REMARK VINA RESULT:      -8.4      1.534      7.971
REMARK  Name = 
REMARK  4 active torsions:
REMARK  status: ('A' for Active; 'I' for Inactive)
REMARK    1  A    between atoms: C_1  and  C_2
REMARK    2  A    between atoms: C_2  and  N_3
REMARK    3  A    between atoms: C_2  and  C_17
REMARK    4  A    between atoms: C_4  and  C_6
REMARK                            x       y       z     vdW  Elec       q    Type
REMARK                         _______ _______ _______ _____ _____    ______ ____
ROOT
ATOM      1  N   UNL     1       4.120   5.005  18.378  0.00  0.00    +0.000 N 
ATOM      2  C   UNL     1       5.480   4.862  18.211  0.00  0.00    +0.000 C 
ATOM      3  O   UNL     1       6.273   4.675  19.121  0.00  0.00    +0.000 OA
ATOM      4  H   UNL     1       3.539   5.186  17.566  0.00  0.00    +0.000 HD
ENDROOT
BRANCH   2   5
ATOM      5  C   UNL     1       5.976   5.000  16.777  0.00  0.00    +0.000 A 
ATOM      6  N   UNL     1       7.099   5.649  16.596  0.00  0.00    +0.000 NA
ATOM      7  N   UNL     1       7.607   5.774  15.333  0.00  0.00    +0.000 N 
ATOM      8  C   UNL     1       7.166   4.965  14.270  0.00  0.00    +0.000 A 
ATOM      9  C   UNL     1       7.862   4.928  13.057  0.00  0.00    +0.000 A 
ATOM     10  C   UNL     1       7.374   4.183  11.975  0.00  0.00    +0.000 A 
ATOM     11  C   UNL     1       6.170   3.488  12.087  0.00  0.00    +0.000 A 
ATOM     12  C   UNL     1       5.451   3.537  13.279  0.00  0.00    +0.000 A 
ATOM     13  C   UNL     1       5.958   4.276  14.353  0.00  0.00    +0.000 A 
ATOM     14  C   UNL     1       5.229   4.389  15.617  0.00  0.00    +0.000 A 
ATOM     15  O   UNL     1       4.068   4.026  15.726  0.00  0.00    +0.000 OA
ATOM     16  H   UNL     1       8.580   6.073  15.270  0.00  0.00    +0.000 HD
ENDBRANCH   2   5
BRANCH   1  18
ATOM     17  C   UNL     1       2.625   3.565  19.693  0.00  0.00    +0.000 C 
ATOM     18  C   UNL     1       3.490   4.826  19.673  0.00  0.00    +0.000 C 
BRANCH  18  19
ATOM     19  C   UNL     1       2.672   6.036  19.976  0.00  0.00    +0.000 A 
ATOM     20  C   UNL     1       1.819   6.367  21.010  0.00  0.00    +0.000 A 
ATOM     21  C   UNL     1       1.267   7.640  20.693  0.00  0.00    +0.000 A 
ATOM     22  C   UNL     1       0.334   8.511  21.280  0.00  0.00    +0.000 A 
ATOM     23  C   UNL     1       0.022   9.708  20.617  0.00  0.00    +0.000 A 
ATOM     24  C   UNL     1       0.631  10.041  19.403  0.00  0.00    +0.000 A 
ATOM     25  C   UNL     1       1.572   9.194  18.812  0.00  0.00    +0.000 A 
ATOM     26  C   UNL     1       1.851   8.008  19.487  0.00  0.00    +0.000 A 
ATOM     27  O   UNL     1       2.715   7.050  19.061  0.00  0.00    +0.000 OA
ENDBRANCH  18  19
ENDBRANCH   1  18
TORSDOF 3
ENDMDL
MODEL 3
REMARK VINA RESULT:      -8.1      1.662      8.280
REMARK  Name = 
REMARK  4 active torsions:
REMARK  status: ('A' for Active; 'I' for Inactive)
REMARK    1  A    between atoms: C_1  and  C_2
REMARK    2  A    between atoms: C_2  and  N_3
REMARK    3  A    between atoms: C_2  and  C_17
REMARK    4  A    between atoms: C_4  and  C_6
REMARK                            x       y       z     vdW  Elec       q    Type
REMARK                         _______ _______ _______ _____ _____    ______ ____
ROOT
ATOM      1  N   UNL     1       3.997   5.587  18.425  0.00  0.00    +0.000 N 
ATOM      2  C   UNL     1       5.271   5.091  18.262  0.00  0.00    +0.000 C 
ATOM      3  O   UNL     1       5.970   4.666  19.170  0.00  0.00    +0.000 OA
ATOM      4  H   UNL     1       3.500   5.946  17.617  0.00  0.00    +0.000 HD
ENDROOT
BRANCH   2   5
ATOM      5  C   UNL     1       5.811   5.141  16.838  0.00  0.00    +0.000 A 
ATOM      6  N   UNL     1       6.960   5.744  16.658  0.00  0.00    +0.000 NA
ATOM      7  N   UNL     1       7.506   5.790  15.406  0.00  0.00    +0.000 N 
ATOM      8  C   UNL     1       7.067   4.943  14.372  0.00  0.00    +0.000 A 
ATOM      9  C   UNL     1       7.795   4.823  13.182  0.00  0.00    +0.000 A 
ATOM     10  C   UNL     1       7.313   4.040  12.125  0.00  0.00    +0.000 A 
ATOM     11  C   UNL     1       6.084   3.390  12.236  0.00  0.00    +0.000 A 
ATOM     12  C   UNL     1       5.334   3.521  13.403  0.00  0.00    +0.000 A 
ATOM     13  C   UNL     1       5.836   4.297  14.453  0.00  0.00    +0.000 A 
ATOM     14  C   UNL     1       5.077   4.496  15.688  0.00  0.00    +0.000 A 
ATOM     15  O   UNL     1       3.902   4.176  15.782  0.00  0.00    +0.000 OA
ATOM     16  H   UNL     1       8.490   6.055  15.356  0.00  0.00    +0.000 HD
ENDBRANCH   2   5
BRANCH   1  18
ATOM     17  C   UNL     1       2.490   4.261  19.842  0.00  0.00    +0.000 C 
ATOM     18  C   UNL     1       3.320   5.539  19.707  0.00  0.00    +0.000 C 
BRANCH  18  19
ATOM     19  C   UNL     1       2.459   6.749  19.838  0.00  0.00    +0.000 A 
ATOM     20  C   UNL     1       2.226   7.839  19.022  0.00  0.00    +0.000 A 
ATOM     21  C   UNL     1       1.358   8.709  19.741  0.00  0.00    +0.000 A 
ATOM     22  C   UNL     1       0.775   9.967  19.514  0.00  0.00    +0.000 A 
ATOM     23  C   UNL     1      -0.029  10.527  20.520  0.00  0.00    +0.000 A 
ATOM     24  C   UNL     1      -0.261   9.848  21.720  0.00  0.00    +0.000 A 
ATOM     25  C   UNL     1       0.299   8.590  21.957  0.00  0.00    +0.000 A 
ATOM     26  C   UNL     1       1.102   8.066  20.946  0.00  0.00    +0.000 A 
ATOM     27  O   UNL     1       1.750   6.874  21.000  0.00  0.00    +0.000 OA
ENDBRANCH  18  19
ENDBRANCH   1  18
TORSDOF 3
ENDMDL
MODEL 4
REMARK VINA RESULT:      -7.9      0.742      1.292
REMARK  Name = 
REMARK  4 active torsions:
REMARK  status: ('A' for Active; 'I' for Inactive)
REMARK    1  A    between atoms: C_1  and  C_2
REMARK    2  A    between atoms: C_2  and  N_3
REMARK    3  A    between atoms: C_2  and  C_17
REMARK    4  A    between atoms: C_4  and  C_6
REMARK                            x       y       z     vdW  Elec       q    Type
REMARK                         _______ _______ _______ _____ _____    ______ ____
ROOT
ATOM      1  N   UNL     1       5.411   5.603  18.369  0.00  0.00    +0.000 N 
ATOM      2  C   UNL     1       4.298   5.106  19.012  0.00  0.00    +0.000 C 
ATOM      3  O   UNL     1       4.141   3.933  19.314  0.00  0.00    +0.000 OA
ATOM      4  H   UNL     1       5.444   6.589  18.130  0.00  0.00    +0.000 HD
ENDROOT
BRANCH   2   5
ATOM      5  C   UNL     1       3.204   6.127  19.299  0.00  0.00    +0.000 A 
ATOM      6  N   UNL     1       2.592   6.035  20.454  0.00  0.00    +0.000 NA
ATOM      7  N   UNL     1       1.625   6.945  20.777  0.00  0.00    +0.000 N 
ATOM      8  C   UNL     1       1.488   8.161  20.084  0.00  0.00    +0.000 A 
ATOM      9  C   UNL     1       0.670   9.183  20.579  0.00  0.00    +0.000 A 
ATOM     10  C   UNL     1       0.474  10.360  19.845  0.00  0.00    +0.000 A 
ATOM     11  C   UNL     1       1.072  10.518  18.595  0.00  0.00    +0.000 A 
ATOM     12  C   UNL     1       1.867   9.499  18.075  0.00  0.00    +0.000 A 
ATOM     13  C   UNL     1       2.062   8.335  18.826  0.00  0.00    +0.000 A 
ATOM     14  C   UNL     1       2.861   7.219  18.316  0.00  0.00    +0.000 A 
ATOM     15  O   UNL     1       3.216   7.161  17.149  0.00  0.00    +0.000 OA
ATOM     16  H   UNL     1       1.351   6.977  21.759  0.00  0.00    +0.000 HD
ENDBRANCH   2   5
BRANCH   1  18
ATOM     17  C   UNL     1       7.825   5.347  18.740  0.00  0.00    +0.000 C 
ATOM     18  C   UNL     1       6.566   4.770  18.093  0.00  0.00    +0.000 C 
BRANCH  18  19
ATOM     19  C   UNL     1       6.731   4.657  16.616  0.00  0.00    +0.000 A 
ATOM     20  C   UNL     1       7.597   5.240  15.712  0.00  0.00    +0.000 A 
ATOM     21  C   UNL     1       7.200   4.794  14.420  0.00  0.00    +0.000 A 
ATOM     22  C   UNL     1       7.619   5.026  13.099  0.00  0.00    +0.000 A 
ATOM     23  C   UNL     1       6.925   4.398  12.053  0.00  0.00    +0.000 A 
ATOM     24  C   UNL     1       5.846   3.547  12.311  0.00  0.00    +0.000 A 
ATOM     25  C   UNL     1       5.425   3.293  13.620  0.00  0.00    +0.000 A 
ATOM     26  C   UNL     1       6.125   3.941  14.634  0.00  0.00    +0.000 A 
ATOM     27  O   UNL     1       5.852   3.840  15.961  0.00  0.00    +0.000 OA
ENDBRANCH  18  19
ENDBRANCH   1  18
TORSDOF 3
ENDMDL
MODEL 5
REMARK VINA RESULT:      -7.8      1.555      8.003
REMARK  Name = 
REMARK  4 active torsions:
REMARK  status: ('A' for Active; 'I' for Inactive)
REMARK    1  A    between atoms: C_1  and  C_2
REMARK    2  A    between atoms: C_2  and  N_3
REMARK    3  A    between atoms: C_2  and  C_17
REMARK    4  A    between atoms: C_4  and  C_6
REMARK                            x       y       z     vdW  Elec       q    Type
REMARK                         _______ _______ _______ _____ _____    ______ ____
ROOT
ATOM      1  N   UNL     1       3.998   5.256  18.421  0.00  0.00    +0.000 N 
ATOM      2  C   UNL     1       5.360   5.208  18.224  0.00  0.00    +0.000 C 
ATOM      3  O   UNL     1       6.190   5.609  19.025  0.00  0.00    +0.000 OA
ATOM      4  H   UNL     1       3.381   4.926  17.686  0.00  0.00    +0.000 HD
ENDROOT
BRANCH   2   5
ATOM      5  C   UNL     1       5.802   4.649  16.876  0.00  0.00    +0.000 A 
ATOM      6  N   UNL     1       5.233   3.539  16.477  0.00  0.00    +0.000 NA
ATOM      7  N   UNL     1       5.568   3.012  15.262  0.00  0.00    +0.000 N 
ATOM      8  C   UNL     1       6.237   3.768  14.282  0.00  0.00    +0.000 A 
ATOM      9  C   UNL     1       6.348   3.303  12.966  0.00  0.00    +0.000 A 
ATOM     10  C   UNL     1       7.083   4.021  12.014  0.00  0.00    +0.000 A 
ATOM     11  C   UNL     1       7.738   5.199  12.374  0.00  0.00    +0.000 A 
ATOM     12  C   UNL     1       7.661   5.661  13.686  0.00  0.00    +0.000 A 
ATOM     13  C   UNL     1       6.913   4.937  14.621  0.00  0.00    +0.000 A 
ATOM     14  C   UNL     1       6.823   5.358  16.020  0.00  0.00    +0.000 A 
ATOM     15  O   UNL     1       7.551   6.224  16.481  0.00  0.00    +0.000 OA
ATOM     16  H   UNL     1       4.941   2.294  14.897  0.00  0.00    +0.000 HD
ENDBRANCH   2   5
BRANCH   1  18
ATOM     17  C   UNL     1       2.562   4.597  20.302  0.00  0.00    +0.000 C 
ATOM     18  C   UNL     1       3.427   5.695  19.680  0.00  0.00    +0.000 C 
BRANCH  18  19
ATOM     19  C   UNL     1       2.626   6.929  19.438  0.00  0.00    +0.000 A 
ATOM     20  C   UNL     1       2.470   7.757  18.343  0.00  0.00    +0.000 A 
ATOM     21  C   UNL     1       1.631   8.829  18.759  0.00  0.00    +0.000 A 
ATOM     22  C   UNL     1       1.120   9.998  18.170  0.00  0.00    +0.000 A 
ATOM     23  C   UNL     1       0.321  10.850  18.949  0.00  0.00    +0.000 A 
ATOM     24  C   UNL     1       0.024  10.543  20.281  0.00  0.00    +0.000 A 
ATOM     25  C   UNL     1       0.512   9.377  20.878  0.00  0.00    +0.000 A 
ATOM     26  C   UNL     1       1.311   8.559  20.084  0.00  0.00    +0.000 A 
ATOM     27  O   UNL     1       1.895   7.402  20.491  0.00  0.00    +0.000 OA
ENDBRANCH  18  19
ENDBRANCH   1  18
TORSDOF 3
ENDMDL
MODEL 6
REMARK VINA RESULT:      -7.8      1.849      2.594
REMARK  Name = 
REMARK  4 active torsions:
REMARK  status: ('A' for Active; 'I' for Inactive)
REMARK    1  A    between atoms: C_1  and  C_2
REMARK    2  A    between atoms: C_2  and  N_3
REMARK    3  A    between atoms: C_2  and  C_17
REMARK    4  A    between atoms: C_4  and  C_6
REMARK                            x       y       z     vdW  Elec       q    Type
REMARK                         _______ _______ _______ _____ _____    ______ ____
ROOT
ATOM      1  N   UNL     1       4.235   6.081  18.066  0.00  0.00    +0.000 N 
ATOM      2  C   UNL     1       2.866   6.218  18.147  0.00  0.00    +0.000 C 
ATOM      3  O   UNL     1       2.070   5.304  17.995  0.00  0.00    +0.000 OA
ATOM      4  H   UNL     1       4.820   6.902  18.178  0.00  0.00    +0.000 HD
ENDROOT
BRANCH   2   5
ATOM      5  C   UNL     1       2.369   7.636  18.400  0.00  0.00    +0.000 A 
ATOM      6  N   UNL     1       2.485   8.492  17.416  0.00  0.00    +0.000 NA
ATOM      7  N   UNL     1       2.025   9.768  17.578  0.00  0.00    +0.000 N 
ATOM      8  C   UNL     1       1.140  10.114  18.615  0.00  0.00    +0.000 A 
ATOM      9  C   UNL     1       0.484  11.351  18.620  0.00  0.00    +0.000 A 
ATOM     10  C   UNL     1      -0.333  11.722  19.696  0.00  0.00    +0.000 A 
ATOM     11  C   UNL     1      -0.483  10.871  20.791  0.00  0.00    +0.000 A 
ATOM     12  C   UNL     1       0.184   9.649  20.814  0.00  0.00    +0.000 A 
ATOM     13  C   UNL     1       0.987   9.289  19.727  0.00  0.00    +0.000 A 
ATOM     14  C   UNL     1       1.737   8.032  19.712  0.00  0.00    +0.000 A 
ATOM     15  O   UNL     1       1.864   7.345  20.714  0.00  0.00    +0.000 OA
ATOM     16  H   UNL     1       1.922  10.319  16.725  0.00  0.00    +0.000 HD
ENDBRANCH   2   5
BRANCH   1  18
ATOM     17  C   UNL     1       5.819   4.486  19.057  0.00  0.00    +0.000 C 
ATOM     18  C   UNL     1       4.861   4.783  17.902  0.00  0.00    +0.000 C 
BRANCH  18  19
ATOM     19  C   UNL     1       5.580   4.761  16.596  0.00  0.00    +0.000 A 
ATOM     20  C   UNL     1       6.699   5.416  16.119  0.00  0.00    +0.000 A 
ATOM     21  C   UNL     1       6.842   5.040  14.754  0.00  0.00    +0.000 A 
ATOM     22  C   UNL     1       7.721   5.359  13.706  0.00  0.00    +0.000 A 
ATOM     23  C   UNL     1       7.504   4.779  12.446  0.00  0.00    +0.000 A 
ATOM     24  C   UNL     1       6.444   3.891  12.232  0.00  0.00    +0.000 A 
ATOM     25  C   UNL     1       5.569   3.551  13.268  0.00  0.00    +0.000 A 
ATOM     26  C   UNL     1       5.803   4.152  14.502  0.00  0.00    +0.000 A 
ATOM     27  O   UNL     1       5.050   3.967  15.618  0.00  0.00    +0.000 OA
ENDBRANCH  18  19
ENDBRANCH   1  18
TORSDOF 3
ENDMDL
MODEL 7
REMARK VINA RESULT:      -7.7      1.737      2.216
REMARK  Name = 
REMARK  4 active torsions:
REMARK  status: ('A' for Active; 'I' for Inactive)
REMARK    1  A    between atoms: C_1  and  C_2
REMARK    2  A    between atoms: C_2  and  N_3
REMARK    3  A    between atoms: C_2  and  C_17
REMARK    4  A    between atoms: C_4  and  C_6
REMARK                            x       y       z     vdW  Elec       q    Type
REMARK                         _______ _______ _______ _____ _____    ______ ____
ROOT
ATOM      1  N   UNL     1       4.577   6.321  18.146  0.00  0.00    +0.000 N 
ATOM      2  C   UNL     1       3.201   6.298  18.199  0.00  0.00    +0.000 C 
ATOM      3  O   UNL     1       2.518   5.297  18.045  0.00  0.00    +0.000 OA
ATOM      4  H   UNL     1       5.061   7.205  18.257  0.00  0.00    +0.000 HD
ENDROOT
BRANCH   2   5
ATOM      5  C   UNL     1       2.537   7.652  18.422  0.00  0.00    +0.000 A 
ATOM      6  N   UNL     1       2.548   8.493  17.418  0.00  0.00    +0.000 NA
ATOM      7  N   UNL     1       1.938   9.709  17.553  0.00  0.00    +0.000 N 
ATOM      8  C   UNL     1       1.020   9.970  18.586  0.00  0.00    +0.000 A 
ATOM      9  C   UNL     1       0.221  11.119  18.566  0.00  0.00    +0.000 A 
ATOM     10  C   UNL     1      -0.633  11.414  19.637  0.00  0.00    +0.000 A 
ATOM     11  C   UNL     1      -0.677  10.577  20.752  0.00  0.00    +0.000 A 
ATOM     12  C   UNL     1       0.132   9.445  20.800  0.00  0.00    +0.000 A 
ATOM     13  C   UNL     1       0.970   9.158  19.718  0.00  0.00    +0.000 A 
ATOM     14  C   UNL     1       1.865   8.000  19.728  0.00  0.00    +0.000 A 
ATOM     15  O   UNL     1       2.076   7.357  20.745  0.00  0.00    +0.000 OA
ATOM     16  H   UNL     1       1.769  10.223  16.688  0.00  0.00    +0.000 HD
ENDBRANCH   2   5
BRANCH   1  18
ATOM     17  C   UNL     1       6.684   5.215  18.758  0.00  0.00    +0.000 C 
ATOM     18  C   UNL     1       5.352   5.102  18.013  0.00  0.00    +0.000 C 
BRANCH  18  19
ATOM     19  C   UNL     1       5.575   4.834  16.563  0.00  0.00    +0.000 A 
ATOM     20  C   UNL     1       4.925   4.045  15.635  0.00  0.00    +0.000 A 
ATOM     21  C   UNL     1       5.668   4.142  14.425  0.00  0.00    +0.000 A 
ATOM     22  C   UNL     1       5.581   3.583  13.139  0.00  0.00    +0.000 A 
ATOM     23  C   UNL     1       6.562   3.916  12.192  0.00  0.00    +0.000 A 
ATOM     24  C   UNL     1       7.602   4.797  12.509  0.00  0.00    +0.000 A 
ATOM     25  C   UNL     1       7.696   5.374  13.779  0.00  0.00    +0.000 A 
ATOM     26  C   UNL     1       6.715   5.014  14.699  0.00  0.00    +0.000 A 
ATOM     27  O   UNL     1       6.650   5.448  15.985  0.00  0.00    +0.000 OA
ENDBRANCH  18  19
ENDBRANCH   1  18
TORSDOF 3
ENDMDL
MODEL 8
REMARK VINA RESULT:      -7.7      3.471      8.529
REMARK  Name = 
REMARK  4 active torsions:
REMARK  status: ('A' for Active; 'I' for Inactive)
REMARK    1  A    between atoms: C_1  and  C_2
REMARK    2  A    between atoms: C_2  and  N_3
REMARK    3  A    between atoms: C_2  and  C_17
REMARK    4  A    between atoms: C_4  and  C_6
REMARK                            x       y       z     vdW  Elec       q    Type
REMARK                         _______ _______ _______ _____ _____    ______ ____
ROOT
ATOM      1  N   UNL     1       1.135   8.978  19.791  0.00  0.00    +0.000 N 
ATOM      2  C   UNL     1       2.050   8.413  18.930  0.00  0.00    +0.000 C 
ATOM      3  O   UNL     1       2.524   8.978  17.956  0.00  0.00    +0.000 OA
ATOM      4  H   UNL     1       0.772   8.423  20.559  0.00  0.00    +0.000 HD
ENDROOT
BRANCH   2   5
ATOM      5  C   UNL     1       2.424   6.967  19.236  0.00  0.00    +0.000 A 
ATOM      6  N   UNL     1       2.037   6.484  20.390  0.00  0.00    +0.000 NA
ATOM      7  N   UNL     1       2.316   5.183  20.702  0.00  0.00    +0.000 N 
ATOM      8  C   UNL     1       2.700   4.249  19.722  0.00  0.00    +0.000 A 
ATOM      9  C   UNL     1       2.737   2.880  20.008  0.00  0.00    +0.000 A 
ATOM     10  C   UNL     1       3.196   1.963  19.054  0.00  0.00    +0.000 A 
ATOM     11  C   UNL     1       3.649   2.408  17.811  0.00  0.00    +0.000 A 
ATOM     12  C   UNL     1       3.644   3.770  17.521  0.00  0.00    +0.000 A 
ATOM     13  C   UNL     1       3.172   4.671  18.481  0.00  0.00    +0.000 A 
ATOM     14  C   UNL     1       3.174   6.115  18.242  0.00  0.00    +0.000 A 
ATOM     15  O   UNL     1       3.771   6.611  17.299  0.00  0.00    +0.000 OA
ATOM     16  H   UNL     1       1.801   4.791  21.490  0.00  0.00    +0.000 HD
ENDBRANCH   2   5
BRANCH   1  18
ATOM     17  C   UNL     1       0.532  10.999  21.050  0.00  0.00    +0.000 C 
ATOM     18  C   UNL     1       0.737  10.367  19.672  0.00  0.00    +0.000 C 
BRANCH  18  19
ATOM     19  C   UNL     1      -0.514  10.438  18.864  0.00  0.00    +0.000 A 
ATOM     20  C   UNL     1      -0.871   9.941  17.626  0.00  0.00    +0.000 A 
ATOM     21  C   UNL     1      -2.185  10.418  17.358  0.00  0.00    +0.000 A 
ATOM     22  C   UNL     1      -3.098  10.319  16.295  0.00  0.00    +0.000 A 
ATOM     23  C   UNL     1      -4.331  10.982  16.402  0.00  0.00    +0.000 A 
ATOM     24  C   UNL     1      -4.657  11.719  17.545  0.00  0.00    +0.000 A 
ATOM     25  C   UNL     1      -3.767  11.817  18.619  0.00  0.00    +0.000 A 
ATOM     26  C   UNL     1      -2.548  11.158  18.477  0.00  0.00    +0.000 A 
ATOM     27  O   UNL     1      -1.548  11.156  19.396  0.00  0.00    +0.000 OA
ENDBRANCH  18  19
ENDBRANCH   1  18
TORSDOF 3
ENDMDL
MODEL 9
REMARK VINA RESULT:      -7.6      3.810      8.339
REMARK  Name = 
REMARK  4 active torsions:
REMARK  status: ('A' for Active; 'I' for Inactive)
REMARK    1  A    between atoms: C_1  and  C_2
REMARK    2  A    between atoms: C_2  and  N_3
REMARK    3  A    between atoms: C_2  and  C_17
REMARK    4  A    between atoms: C_4  and  C_6
REMARK                            x       y       z     vdW  Elec       q    Type
REMARK                         _______ _______ _______ _____ _____    ______ ____
ROOT
ATOM      1  N   UNL     1       1.060   8.984  19.870  0.00  0.00    +0.000 N 
ATOM      2  C   UNL     1       1.983   8.340  19.075  0.00  0.00    +0.000 C 
ATOM      3  O   UNL     1       2.627   8.879  18.188  0.00  0.00    +0.000 OA
ATOM      4  H   UNL     1       0.549   8.449  20.565  0.00  0.00    +0.000 HD
ENDROOT
BRANCH   2   5
ATOM      5  C   UNL     1       2.136   6.847  19.336  0.00  0.00    +0.000 A 
ATOM      6  N   UNL     1       1.681   6.392  20.477  0.00  0.00    +0.000 NA
ATOM      7  N   UNL     1       1.763   5.055  20.748  0.00  0.00    +0.000 N 
ATOM      8  C   UNL     1       2.003   4.105  19.739  0.00  0.00    +0.000 A 
ATOM      9  C   UNL     1       1.835   2.737  19.983  0.00  0.00    +0.000 A 
ATOM     10  C   UNL     1       2.153   1.791  19.000  0.00  0.00    +0.000 A 
ATOM     11  C   UNL     1       2.668   2.201  17.770  0.00  0.00    +0.000 A 
ATOM     12  C   UNL     1       2.867   3.556  17.521  0.00  0.00    +0.000 A 
ATOM     13  C   UNL     1       2.534   4.489  18.509  0.00  0.00    +0.000 A 
ATOM     14  C   UNL     1       2.752   5.922  18.314  0.00  0.00    +0.000 A 
ATOM     15  O   UNL     1       3.416   6.353  17.384  0.00  0.00    +0.000 OA
ATOM     16  H   UNL     1       1.194   4.720  21.526  0.00  0.00    +0.000 HD
ENDBRANCH   2   5
BRANCH   1  18
ATOM     17  C   UNL     1       0.844  11.048  21.183  0.00  0.00    +0.000 C 
ATOM     18  C   UNL     1       0.855  10.417  19.790  0.00  0.00    +0.000 C 
BRANCH  18  19
ATOM     19  C   UNL     1      -0.430  10.677  19.078  0.00  0.00    +0.000 A 
ATOM     20  C   UNL     1      -1.569  11.384  19.409  0.00  0.00    +0.000 A 
ATOM     21  C   UNL     1      -2.493  11.191  18.343  0.00  0.00    +0.000 A 
ATOM     22  C   UNL     1      -3.811  11.589  18.065  0.00  0.00    +0.000 A 
ATOM     23  C   UNL     1      -4.409  11.150  16.873  0.00  0.00    +0.000 A 
ATOM     24  C   UNL     1      -3.710  10.345  15.969  0.00  0.00    +0.000 A 
ATOM     25  C   UNL     1      -2.393   9.952  16.222  0.00  0.00    +0.000 A 
ATOM     26  C   UNL     1      -1.832  10.392  17.418  0.00  0.00    +0.000 A 
ATOM     27  O   UNL     1      -0.579  10.096  17.850  0.00  0.00    +0.000 OA
ENDBRANCH  18  19
ENDBRANCH   1  18
TORSDOF 3
ENDMDL
