MODEL 1
REMARK VINA RESULT:      -9.0      0.000      0.000
REMARK  Name = 
REMARK  4 active torsions:
REMARK  status: ('A' for Active; 'I' for Inactive)
REMARK    1  A    between atoms: C_2  and  C_3
REMARK    2  A    between atoms: C_3  and  N_4
REMARK    3  A    between atoms: C_6  and  C_7
REMARK    4  A    between atoms: N_22  and  C_23
REMARK                            x       y       z     vdW  Elec       q    Type
REMARK                         _______ _______ _______ _____ _____    ______ ____
ROOT
ATOM      1  N   UNL     1       2.691   5.639  18.297  0.00  0.00    +0.000 N 
ATOM      2  C   UNL     1       3.473   5.257  17.103  0.00  0.00    +0.000 C 
ATOM      3  C   UNL     1       4.355   4.030  17.321  0.00  0.00    +0.000 C 
ATOM      4  O   UNL     1       3.559   2.913  17.732  0.00  0.00    +0.000 OA
ATOM      5  C   UNL     1       2.658   3.220  18.725  0.00  0.00    +0.000 A 
ATOM      6  C   UNL     1       2.093   2.111  19.363  0.00  0.00    +0.000 A 
ATOM      7  C   UNL     1       1.180   2.292  20.396  0.00  0.00    +0.000 A 
ATOM      8  C   UNL     1       0.851   3.582  20.802  0.00  0.00    +0.000 A 
ATOM      9  C   UNL     1       1.400   4.690  20.145  0.00  0.00    +0.000 A 
ATOM     10  C   UNL     1       2.289   4.540  19.070  0.00  0.00    +0.000 A 
ENDROOT
BRANCH   3  11
ATOM     11  C   UNL     1       5.581   4.307  18.220  0.00  0.00    +0.000 C 
ATOM     12  O   UNL     1       5.683   3.807  19.343  0.00  0.00    +0.000 OA
ATOM     13  N   UNL     1       6.545   5.179  17.731  0.00  0.00    +0.000 N 
ATOM     14  C   UNL     1       7.851   5.230  18.378  0.00  0.00    +0.000 C 
ATOM     15  C   UNL     1       8.133   6.619  18.936  0.00  0.00    +0.000 C 
ATOM     16  C   UNL     1       7.956   7.685  17.854  0.00  0.00    +0.000 C 
ATOM     17  C   UNL     1       6.574   7.581  17.214  0.00  0.00    +0.000 C 
ATOM     18  C   UNL     1       6.313   6.172  16.681  0.00  0.00    +0.000 C 
ENDBRANCH   3  11
BRANCH   1  19
ATOM     19  C   UNL     1       3.083   6.900  18.971  0.00  0.00    +0.000 C 
BRANCH  19  21
ATOM     20  O   UNL     1       2.608   8.437  17.172  0.00  0.00    +0.000 OA
ATOM     21  C   UNL     1       2.394   8.125  18.337  0.00  0.00    +0.000 C 
ATOM     22  N   UNL     1       1.596   8.842  19.223  0.00  0.00    +0.000 N 
ATOM     23  H   UNL     1       1.683   8.562  20.200  0.00  0.00    +0.000 HD
BRANCH  22  24
ATOM     24  C   UNL     1       0.785   9.950  18.905  0.00  0.00    +0.000 A 
ATOM     25  C   UNL     1       1.217  11.274  19.056  0.00  0.00    +0.000 A 
ATOM     26  C   UNL     1       0.351  12.331  18.785  0.00  0.00    +0.000 A 
ATOM     27  F   UNL     1       0.774  13.587  18.946  0.00  0.00    +0.000 F 
ATOM     28  C   UNL     1      -0.948  12.104  18.350  0.00  0.00    +0.000 A 
ATOM     29  C   UNL     1      -1.352  10.789  18.160  0.00  0.00    +0.000 A 
ATOM     30  F   UNL     1      -2.598  10.546  17.729  0.00  0.00    +0.000 F 
ATOM     31  C   UNL     1      -0.500   9.715  18.416  0.00  0.00    +0.000 A 
ENDBRANCH  22  24
ENDBRANCH  19  21
ENDBRANCH   1  19
TORSDOF 4
ENDMDL
MODEL 2
REMARK VINA RESULT:      -8.9      0.259      1.487
REMARK  Name = 
REMARK  4 active torsions:
REMARK  status: ('A' for Active; 'I' for Inactive)
REMARK    1  A    between atoms: C_2  and  C_3
REMARK    2  A    between atoms: C_3  and  N_4
REMARK    3  A    between atoms: C_6  and  C_7
REMARK    4  A    between atoms: N_22  and  C_23
REMARK                            x       y       z     vdW  Elec       q    Type
REMARK                         _______ _______ _______ _____ _____    ______ ____
ROOT
ATOM      1  N   UNL     1       2.663   5.653  18.303  0.00  0.00    +0.000 N 
ATOM      2  C   UNL     1       3.459   5.313  17.105  0.00  0.00    +0.000 C 
ATOM      3  C   UNL     1       4.348   4.086  17.294  0.00  0.00    +0.000 C 
ATOM      4  O   UNL     1       3.556   2.952  17.664  0.00  0.00    +0.000 OA
ATOM      5  C   UNL     1       2.644   3.222  18.658  0.00  0.00    +0.000 A 
ATOM      6  C   UNL     1       2.082   2.090  19.257  0.00  0.00    +0.000 A 
ATOM      7  C   UNL     1       1.159   2.234  20.287  0.00  0.00    +0.000 A 
ATOM      8  C   UNL     1       0.817   3.508  20.729  0.00  0.00    +0.000 A 
ATOM      9  C   UNL     1       1.363   4.639  20.110  0.00  0.00    +0.000 A 
ATOM     10  C   UNL     1       2.263   4.528  19.039  0.00  0.00    +0.000 A 
ENDROOT
BRANCH   3  11
ATOM     11  C   UNL     1       5.563   4.346  18.212  0.00  0.00    +0.000 C 
ATOM     12  O   UNL     1       5.642   3.842  19.335  0.00  0.00    +0.000 OA
ATOM     13  N   UNL     1       6.547   5.204  17.739  0.00  0.00    +0.000 N 
ATOM     14  C   UNL     1       7.844   5.236  18.406  0.00  0.00    +0.000 C 
ATOM     15  C   UNL     1       8.136   6.621  18.970  0.00  0.00    +0.000 C 
ATOM     16  C   UNL     1       7.990   7.690  17.887  0.00  0.00    +0.000 C 
ATOM     17  C   UNL     1       6.617   7.606  17.226  0.00  0.00    +0.000 C 
ATOM     18  C   UNL     1       6.345   6.202  16.687  0.00  0.00    +0.000 C 
ENDBRANCH   3  11
BRANCH   1  19
ATOM     19  C   UNL     1       3.039   6.897  19.018  0.00  0.00    +0.000 C 
BRANCH  19  21
ATOM     20  O   UNL     1       2.465   8.456  17.268  0.00  0.00    +0.000 OA
ATOM     21  C   UNL     1       2.317   8.129  18.440  0.00  0.00    +0.000 C 
ATOM     22  N   UNL     1       1.572   8.835  19.379  0.00  0.00    +0.000 N 
ATOM     23  H   UNL     1       1.714   8.543  20.345  0.00  0.00    +0.000 HD
BRANCH  22  24
ATOM     24  C   UNL     1       0.744   9.947  19.122  0.00  0.00    +0.000 A 
ATOM     25  C   UNL     1      -0.646   9.841  18.978  0.00  0.00    +0.000 A 
ATOM     26  C   UNL     1      -1.407  10.964  18.663  0.00  0.00    +0.000 A 
ATOM     27  F   UNL     1      -2.729  10.844  18.519  0.00  0.00    +0.000 F 
ATOM     28  C   UNL     1      -0.817  12.211  18.496  0.00  0.00    +0.000 A 
ATOM     29  C   UNL     1       0.555  12.312  18.684  0.00  0.00    +0.000 A 
ATOM     30  F   UNL     1       1.145  13.509  18.539  0.00  0.00    +0.000 F 
ATOM     31  C   UNL     1       1.336  11.205  19.009  0.00  0.00    +0.000 A 
ENDBRANCH  22  24
ENDBRANCH  19  21
ENDBRANCH   1  19
TORSDOF 4
ENDMDL
MODEL 3
REMARK VINA RESULT:      -8.7      1.870      2.108
REMARK  Name = 
REMARK  4 active torsions:
REMARK  status: ('A' for Active; 'I' for Inactive)
REMARK    1  A    between atoms: C_2  and  C_3
REMARK    2  A    between atoms: C_3  and  N_4
REMARK    3  A    between atoms: C_6  and  C_7
REMARK    4  A    between atoms: N_22  and  C_23
REMARK                            x       y       z     vdW  Elec       q    Type
REMARK                         _______ _______ _______ _____ _____    ______ ____
ROOT
ATOM      1  N   UNL     1       2.482   5.705  18.621  0.00  0.00    +0.000 N 
ATOM      2  C   UNL     1       3.225   5.723  17.344  0.00  0.00    +0.000 C 
ATOM      3  C   UNL     1       4.081   4.477  17.122  0.00  0.00    +0.000 C 
ATOM      4  O   UNL     1       3.267   3.301  17.170  0.00  0.00    +0.000 OA
ATOM      5  C   UNL     1       2.397   3.280  18.236  0.00  0.00    +0.000 A 
ATOM      6  C   UNL     1       1.820   2.032  18.494  0.00  0.00    +0.000 A 
ATOM      7  C   UNL     1       0.937   1.880  19.557  0.00  0.00    +0.000 A 
ATOM      8  C   UNL     1       0.651   2.971  20.373  0.00  0.00    +0.000 A 
ATOM      9  C   UNL     1       1.211   4.224  20.097  0.00  0.00    +0.000 A 
ATOM     10  C   UNL     1       2.070   4.420  19.005  0.00  0.00    +0.000 A 
ENDROOT
BRANCH   3  11
ATOM     11  C   UNL     1       5.334   4.426  18.025  0.00  0.00    +0.000 C 
ATOM     12  O   UNL     1       5.366   3.733  19.044  0.00  0.00    +0.000 OA
ATOM     13  N   UNL     1       6.411   5.226  17.665  0.00  0.00    +0.000 N 
ATOM     14  C   UNL     1       7.712   4.985  18.279  0.00  0.00    +0.000 C 
ATOM     15  C   UNL     1       8.187   6.207  19.055  0.00  0.00    +0.000 C 
ATOM     16  C   UNL     1       8.160   7.455  18.171  0.00  0.00    +0.000 C 
ATOM     17  C   UNL     1       6.777   7.653  17.558  0.00  0.00    +0.000 C 
ATOM     18  C   UNL     1       6.320   6.405  16.803  0.00  0.00    +0.000 C 
ENDBRANCH   3  11
BRANCH   1  19
ATOM     19  C   UNL     1       2.921   6.670  19.658  0.00  0.00    +0.000 C 
BRANCH  19  21
ATOM     20  O   UNL     1       1.773   8.523  18.620  0.00  0.00    +0.000 OA
ATOM     21  C   UNL     1       2.047   7.940  19.663  0.00  0.00    +0.000 C 
ATOM     22  N   UNL     1       1.685   8.368  20.936  0.00  0.00    +0.000 N 
ATOM     23  H   UNL     1       2.158   7.885  21.700  0.00  0.00    +0.000 HD
BRANCH  22  24
ATOM     24  C   UNL     1       0.826   9.443  21.242  0.00  0.00    +0.000 A 
ATOM     25  C   UNL     1      -0.006   9.451  22.370  0.00  0.00    +0.000 A 
ATOM     26  C   UNL     1      -0.880  10.513  22.589  0.00  0.00    +0.000 A 
ATOM     27  F   UNL     1      -1.675  10.501  23.662  0.00  0.00    +0.000 F 
ATOM     28  C   UNL     1      -0.942  11.589  21.713  0.00  0.00    +0.000 A 
ATOM     29  C   UNL     1      -0.081  11.591  20.623  0.00  0.00    +0.000 A 
ATOM     30  F   UNL     1      -0.114  12.626  19.769  0.00  0.00    +0.000 F 
ATOM     31  C   UNL     1       0.809  10.545  20.387  0.00  0.00    +0.000 A 
ENDBRANCH  22  24
ENDBRANCH  19  21
ENDBRANCH   1  19
TORSDOF 4
ENDMDL
MODEL 4
REMARK VINA RESULT:      -8.7      1.668      1.787
REMARK  Name = 
REMARK  4 active torsions:
REMARK  status: ('A' for Active; 'I' for Inactive)
REMARK    1  A    between atoms: C_2  and  C_3
REMARK    2  A    between atoms: C_3  and  N_4
REMARK    3  A    between atoms: C_6  and  C_7
REMARK    4  A    between atoms: N_22  and  C_23
REMARK                            x       y       z     vdW  Elec       q    Type
REMARK                         _______ _______ _______ _____ _____    ______ ____
ROOT
ATOM      1  N   UNL     1       2.663   5.627  18.386  0.00  0.00    +0.000 N 
ATOM      2  C   UNL     1       3.424   5.354  17.149  0.00  0.00    +0.000 C 
ATOM      3  C   UNL     1       4.281   4.092  17.229  0.00  0.00    +0.000 C 
ATOM      4  O   UNL     1       3.464   2.956  17.533  0.00  0.00    +0.000 OA
ATOM      5  C   UNL     1       2.581   3.178  18.564  0.00  0.00    +0.000 A 
ATOM      6  C   UNL     1       1.998   2.021  19.091  0.00  0.00    +0.000 A 
ATOM      7  C   UNL     1       1.100   2.113  20.149  0.00  0.00    +0.000 A 
ATOM      8  C   UNL     1       0.805   3.361  20.690  0.00  0.00    +0.000 A 
ATOM      9  C   UNL     1       1.371   4.519  20.144  0.00  0.00    +0.000 A 
ATOM     10  C   UNL     1       2.245   4.462  19.048  0.00  0.00    +0.000 A 
ENDROOT
BRANCH   3  11
ATOM     11  C   UNL     1       5.522   4.250  18.136  0.00  0.00    +0.000 C 
ATOM     12  O   UNL     1       5.609   3.662  19.216  0.00  0.00    +0.000 OA
ATOM     13  N   UNL     1       6.519   5.116  17.706  0.00  0.00    +0.000 N 
ATOM     14  C   UNL     1       7.829   5.063  18.344  0.00  0.00    +0.000 C 
ATOM     15  C   UNL     1       8.172   6.393  19.003  0.00  0.00    +0.000 C 
ATOM     16  C   UNL     1       8.034   7.544  18.006  0.00  0.00    +0.000 C 
ATOM     17  C   UNL     1       6.645   7.547  17.372  0.00  0.00    +0.000 C 
ATOM     18  C   UNL     1       6.323   6.194  16.736  0.00  0.00    +0.000 C 
ENDBRANCH   3  11
BRANCH   1  19
ATOM     19  C   UNL     1       3.090   6.803  19.182  0.00  0.00    +0.000 C 
BRANCH  19  21
ATOM     20  O   UNL     1       1.626   8.359  18.059  0.00  0.00    +0.000 OA
ATOM     21  C   UNL     1       2.046   7.937  19.130  0.00  0.00    +0.000 C 
ATOM     22  N   UNL     1       1.711   8.449  20.378  0.00  0.00    +0.000 N 
ATOM     23  H   UNL     1       2.295   8.121  21.147  0.00  0.00    +0.000 HD
BRANCH  22  24
ATOM     24  C   UNL     1       0.729   9.426  20.643  0.00  0.00    +0.000 A 
ATOM     25  C   UNL     1       0.206  10.263  19.648  0.00  0.00    +0.000 A 
ATOM     26  C   UNL     1      -0.717  11.253  19.977  0.00  0.00    +0.000 A 
ATOM     27  F   UNL     1      -1.197  12.050  19.019  0.00  0.00    +0.000 F 
ATOM     28  C   UNL     1      -1.150  11.428  21.285  0.00  0.00    +0.000 A 
ATOM     29  C   UNL     1      -0.659  10.564  22.255  0.00  0.00    +0.000 A 
ATOM     30  F   UNL     1      -1.072  10.707  23.523  0.00  0.00    +0.000 F 
ATOM     31  C   UNL     1       0.258   9.560  21.948  0.00  0.00    +0.000 A 
ENDBRANCH  22  24
ENDBRANCH  19  21
ENDBRANCH   1  19
TORSDOF 4
ENDMDL
MODEL 5
REMARK VINA RESULT:      -8.7      1.173      1.739
REMARK  Name = 
REMARK  4 active torsions:
REMARK  status: ('A' for Active; 'I' for Inactive)
REMARK    1  A    between atoms: C_2  and  C_3
REMARK    2  A    between atoms: C_3  and  N_4
REMARK    3  A    between atoms: C_6  and  C_7
REMARK    4  A    between atoms: N_22  and  C_23
REMARK                            x       y       z     vdW  Elec       q    Type
REMARK                         _______ _______ _______ _____ _____    ______ ____
ROOT
ATOM      1  N   UNL     1       2.437   5.789  18.711  0.00  0.00    +0.000 N 
ATOM      2  C   UNL     1       3.139   5.786  17.411  0.00  0.00    +0.000 C 
ATOM      3  C   UNL     1       4.000   4.544  17.188  0.00  0.00    +0.000 C 
ATOM      4  O   UNL     1       3.199   3.362  17.286  0.00  0.00    +0.000 OA
ATOM      5  C   UNL     1       2.364   3.355  18.380  0.00  0.00    +0.000 A 
ATOM      6  C   UNL     1       1.808   2.108  18.681  0.00  0.00    +0.000 A 
ATOM      7  C   UNL     1       0.960   1.970  19.775  0.00  0.00    +0.000 A 
ATOM      8  C   UNL     1       0.690   3.075  20.576  0.00  0.00    +0.000 A 
ATOM      9  C   UNL     1       1.229   4.327  20.257  0.00  0.00    +0.000 A 
ATOM     10  C   UNL     1       2.051   4.508  19.134  0.00  0.00    +0.000 A 
ENDROOT
BRANCH   3  11
ATOM     11  C   UNL     1       5.282   4.524  18.051  0.00  0.00    +0.000 C 
ATOM     12  O   UNL     1       5.354   3.849  19.081  0.00  0.00    +0.000 OA
ATOM     13  N   UNL     1       6.337   5.329  17.643  0.00  0.00    +0.000 N 
ATOM     14  C   UNL     1       7.659   5.114  18.220  0.00  0.00    +0.000 C 
ATOM     15  C   UNL     1       8.144   6.355  18.959  0.00  0.00    +0.000 C 
ATOM     16  C   UNL     1       8.074   7.586  18.055  0.00  0.00    +0.000 C 
ATOM     17  C   UNL     1       6.670   7.758  17.483  0.00  0.00    +0.000 C 
ATOM     18  C   UNL     1       6.205   6.491  16.764  0.00  0.00    +0.000 C 
ENDBRANCH   3  11
BRANCH   1  19
ATOM     19  C   UNL     1       2.899   6.779  19.713  0.00  0.00    +0.000 C 
BRANCH  19  21
ATOM     20  O   UNL     1       1.111   7.658  21.075  0.00  0.00    +0.000 OA
ATOM     21  C   UNL     1       1.794   7.794  20.066  0.00  0.00    +0.000 C 
ATOM     22  N   UNL     1       1.622   8.791  19.113  0.00  0.00    +0.000 N 
ATOM     23  H   UNL     1       2.134   8.646  18.244  0.00  0.00    +0.000 HD
BRANCH  22  24
ATOM     24  C   UNL     1       0.748   9.894  19.208  0.00  0.00    +0.000 A 
ATOM     25  C   UNL     1      -0.264  10.143  18.272  0.00  0.00    +0.000 A 
ATOM     26  C   UNL     1      -1.058  11.282  18.381  0.00  0.00    +0.000 A 
ATOM     27  F   UNL     1      -2.011  11.510  17.474  0.00  0.00    +0.000 F 
ATOM     28  C   UNL     1      -0.878  12.188  19.418  0.00  0.00    +0.000 A 
ATOM     29  C   UNL     1       0.098  11.909  20.365  0.00  0.00    +0.000 A 
ATOM     30  F   UNL     1       0.281  12.764  21.383  0.00  0.00    +0.000 F 
ATOM     31  C   UNL     1       0.898  10.771  20.282  0.00  0.00    +0.000 A 
ENDBRANCH  22  24
ENDBRANCH  19  21
ENDBRANCH   1  19
TORSDOF 4
ENDMDL
MODEL 6
REMARK VINA RESULT:      -8.4      2.079      4.874
REMARK  Name = 
REMARK  4 active torsions:
REMARK  status: ('A' for Active; 'I' for Inactive)
REMARK    1  A    between atoms: C_2  and  C_3
REMARK    2  A    between atoms: C_3  and  N_4
REMARK    3  A    between atoms: C_6  and  C_7
REMARK    4  A    between atoms: N_22  and  C_23
REMARK                            x       y       z     vdW  Elec       q    Type
REMARK                         _______ _______ _______ _____ _____    ______ ____
ROOT
ATOM      1  N   UNL     1       4.426   6.112  18.018  0.00  0.00    +0.000 N 
ATOM      2  C   UNL     1       4.754   5.492  19.319  0.00  0.00    +0.000 C 
ATOM      3  C   UNL     1       5.238   4.049  19.199  0.00  0.00    +0.000 C 
ATOM      4  O   UNL     1       6.387   3.979  18.349  0.00  0.00    +0.000 OA
ATOM      5  C   UNL     1       6.245   4.690  17.179  0.00  0.00    +0.000 A 
ATOM      6  C   UNL     1       7.198   4.396  16.199  0.00  0.00    +0.000 A 
ATOM      7  C   UNL     1       7.150   5.038  14.966  0.00  0.00    +0.000 A 
ATOM      8  C   UNL     1       6.135   5.955  14.710  0.00  0.00    +0.000 A 
ATOM      9  C   UNL     1       5.197   6.265  15.702  0.00  0.00    +0.000 A 
ATOM     10  C   UNL     1       5.246   5.668  16.971  0.00  0.00    +0.000 A 
ENDROOT
BRANCH   3  11
ATOM     11  C   UNL     1       4.113   3.053  18.839  0.00  0.00    +0.000 C 
ATOM     12  O   UNL     1       4.133   2.412  17.786  0.00  0.00    +0.000 OA
ATOM     13  N   UNL     1       3.054   2.939  19.730  0.00  0.00    +0.000 N 
ATOM     14  C   UNL     1       2.142   1.807  19.609  0.00  0.00    +0.000 C 
ATOM     15  C   UNL     1       0.719   2.276  19.335  0.00  0.00    +0.000 C 
ATOM     16  C   UNL     1       0.273   3.299  20.381  0.00  0.00    +0.000 C 
ATOM     17  C   UNL     1       1.265   4.456  20.462  0.00  0.00    +0.000 C 
ATOM     18  C   UNL     1       2.686   3.953  20.719  0.00  0.00    +0.000 C 
ENDBRANCH   3  11
BRANCH   1  19
ATOM     19  C   UNL     1       2.992   6.384  17.756  0.00  0.00    +0.000 C 
BRANCH  19  21
ATOM     20  O   UNL     1       2.885   8.794  17.823  0.00  0.00    +0.000 OA
ATOM     21  C   UNL     1       2.550   7.738  18.347  0.00  0.00    +0.000 C 
ATOM     22  N   UNL     1       1.825   7.626  19.528  0.00  0.00    +0.000 N 
ATOM     23  H   UNL     1       1.804   6.689  19.930  0.00  0.00    +0.000 HD
BRANCH  22  24
ATOM     24  C   UNL     1       1.224   8.683  20.241  0.00  0.00    +0.000 A 
ATOM     25  C   UNL     1       0.766   9.853  19.619  0.00  0.00    +0.000 A 
ATOM     26  C   UNL     1       0.237  10.892  20.381  0.00  0.00    +0.000 A 
ATOM     27  F   UNL     1      -0.185  12.005  19.774  0.00  0.00    +0.000 F 
ATOM     28  C   UNL     1       0.137  10.794  21.763  0.00  0.00    +0.000 A 
ATOM     29  C   UNL     1       0.552   9.613  22.364  0.00  0.00    +0.000 A 
ATOM     30  F   UNL     1       0.454   9.491  23.696  0.00  0.00    +0.000 F 
ATOM     31  C   UNL     1       1.076   8.556  21.622  0.00  0.00    +0.000 A 
ENDBRANCH  22  24
ENDBRANCH  19  21
ENDBRANCH   1  19
TORSDOF 4
ENDMDL
MODEL 7
REMARK VINA RESULT:      -8.3      2.125      4.892
REMARK  Name = 
REMARK  4 active torsions:
REMARK  status: ('A' for Active; 'I' for Inactive)
REMARK    1  A    between atoms: C_2  and  C_3
REMARK    2  A    between atoms: C_3  and  N_4
REMARK    3  A    between atoms: C_6  and  C_7
REMARK    4  A    between atoms: N_22  and  C_23
REMARK                            x       y       z     vdW  Elec       q    Type
REMARK                         _______ _______ _______ _____ _____    ______ ____
ROOT
ATOM      1  N   UNL     1       4.429   6.126  18.021  0.00  0.00    +0.000 N 
ATOM      2  C   UNL     1       4.740   5.493  19.319  0.00  0.00    +0.000 C 
ATOM      3  C   UNL     1       5.214   4.047  19.192  0.00  0.00    +0.000 C 
ATOM      4  O   UNL     1       6.371   3.976  18.352  0.00  0.00    +0.000 OA
ATOM      5  C   UNL     1       6.246   4.698  17.187  0.00  0.00    +0.000 A 
ATOM      6  C   UNL     1       7.206   4.406  16.214  0.00  0.00    +0.000 A 
ATOM      7  C   UNL     1       7.175   5.058  14.986  0.00  0.00    +0.000 A 
ATOM      8  C   UNL     1       6.169   5.985  14.728  0.00  0.00    +0.000 A 
ATOM      9  C   UNL     1       5.224   6.293  15.714  0.00  0.00    +0.000 A 
ATOM     10  C   UNL     1       5.256   5.685  16.978  0.00  0.00    +0.000 A 
ENDROOT
BRANCH   3  11
ATOM     11  C   UNL     1       4.085   3.063  18.812  0.00  0.00    +0.000 C 
ATOM     12  O   UNL     1       4.102   2.445  17.745  0.00  0.00    +0.000 OA
ATOM     13  N   UNL     1       3.027   2.932  19.702  0.00  0.00    +0.000 N 
ATOM     14  C   UNL     1       2.112   1.806  19.558  0.00  0.00    +0.000 C 
ATOM     15  C   UNL     1       0.690   2.285  19.297  0.00  0.00    +0.000 C 
ATOM     16  C   UNL     1       0.249   3.286  20.366  0.00  0.00    +0.000 C 
ATOM     17  C   UNL     1       1.244   4.438  20.471  0.00  0.00    +0.000 C 
ATOM     18  C   UNL     1       2.664   3.925  20.714  0.00  0.00    +0.000 C 
ENDBRANCH   3  11
BRANCH   1  19
ATOM     19  C   UNL     1       3.000   6.412  17.747  0.00  0.00    +0.000 C 
BRANCH  19  21
ATOM     20  O   UNL     1       2.847   8.815  17.895  0.00  0.00    +0.000 OA
ATOM     21  C   UNL     1       2.547   7.736  18.393  0.00  0.00    +0.000 C 
ATOM     22  N   UNL     1       1.856   7.571  19.588  0.00  0.00    +0.000 N 
ATOM     23  H   UNL     1       1.865   6.622  19.960  0.00  0.00    +0.000 HD
BRANCH  22  24
ATOM     24  C   UNL     1       1.254   8.593  20.351  0.00  0.00    +0.000 A 
ATOM     25  C   UNL     1       1.188   8.555  21.751  0.00  0.00    +0.000 A 
ATOM     26  C   UNL     1       0.526   9.562  22.449  0.00  0.00    +0.000 A 
ATOM     27  F   UNL     1       0.461   9.505  23.782  0.00  0.00    +0.000 F 
ATOM     28  C   UNL     1      -0.070  10.627  21.787  0.00  0.00    +0.000 A 
ATOM     29  C   UNL     1       0.041  10.678  20.404  0.00  0.00    +0.000 A 
ATOM     30  F   UNL     1      -0.516  11.704  19.743  0.00  0.00    +0.000 F 
ATOM     31  C   UNL     1       0.706   9.688  19.683  0.00  0.00    +0.000 A 
ENDBRANCH  22  24
ENDBRANCH  19  21
ENDBRANCH   1  19
TORSDOF 4
ENDMDL
MODEL 8
REMARK VINA RESULT:      -8.2      1.695      4.783
REMARK  Name = 
REMARK  4 active torsions:
REMARK  status: ('A' for Active; 'I' for Inactive)
REMARK    1  A    between atoms: C_2  and  C_3
REMARK    2  A    between atoms: C_3  and  N_4
REMARK    3  A    between atoms: C_6  and  C_7
REMARK    4  A    between atoms: N_22  and  C_23
REMARK                            x       y       z     vdW  Elec       q    Type
REMARK                         _______ _______ _______ _____ _____    ______ ____
ROOT
ATOM      1  N   UNL     1       4.369   6.107  18.030  0.00  0.00    +0.000 N 
ATOM      2  C   UNL     1       4.684   5.496  19.338  0.00  0.00    +0.000 C 
ATOM      3  C   UNL     1       5.191   4.059  19.231  0.00  0.00    +0.000 C 
ATOM      4  O   UNL     1       6.355   4.004  18.400  0.00  0.00    +0.000 OA
ATOM      5  C   UNL     1       6.223   4.710  17.226  0.00  0.00    +0.000 A 
ATOM      6  C   UNL     1       7.197   4.427  16.263  0.00  0.00    +0.000 A 
ATOM      7  C   UNL     1       7.160   5.065  15.027  0.00  0.00    +0.000 A 
ATOM      8  C   UNL     1       6.137   5.966  14.751  0.00  0.00    +0.000 A 
ATOM      9  C   UNL     1       5.177   6.265  15.726  0.00  0.00    +0.000 A 
ATOM     10  C   UNL     1       5.213   5.672  16.998  0.00  0.00    +0.000 A 
ENDROOT
BRANCH   3  11
ATOM     11  C   UNL     1       4.086   3.046  18.854  0.00  0.00    +0.000 C 
ATOM     12  O   UNL     1       4.140   2.393  17.809  0.00  0.00    +0.000 OA
ATOM     13  N   UNL     1       3.006   2.930  19.719  0.00  0.00    +0.000 N 
ATOM     14  C   UNL     1       2.111   1.786  19.589  0.00  0.00    +0.000 C 
ATOM     15  C   UNL     1       0.690   2.236  19.274  0.00  0.00    +0.000 C 
ATOM     16  C   UNL     1       0.206   3.265  20.296  0.00  0.00    +0.000 C 
ATOM     17  C   UNL     1       1.183   4.435  20.388  0.00  0.00    +0.000 C 
ATOM     18  C   UNL     1       2.602   3.951  20.686  0.00  0.00    +0.000 C 
ENDBRANCH   3  11
BRANCH   1  19
ATOM     19  C   UNL     1       2.936   6.358  17.743  0.00  0.00    +0.000 C 
BRANCH  19  21
ATOM     20  O   UNL     1       2.346   7.580  19.739  0.00  0.00    +0.000 OA
ATOM     21  C   UNL     1       2.404   7.582  18.515  0.00  0.00    +0.000 C 
ATOM     22  N   UNL     1       1.951   8.610  17.695  0.00  0.00    +0.000 N 
ATOM     23  H   UNL     1       1.888   8.372  16.705  0.00  0.00    +0.000 HD
BRANCH  22  24
ATOM     24  C   UNL     1       1.492   9.874  18.118  0.00  0.00    +0.000 A 
ATOM     25  C   UNL     1       0.187  10.090  18.582  0.00  0.00    +0.000 A 
ATOM     26  C   UNL     1      -0.231  11.372  18.930  0.00  0.00    +0.000 A 
ATOM     27  F   UNL     1      -1.481  11.564  19.359  0.00  0.00    +0.000 F 
ATOM     28  C   UNL     1       0.629  12.460  18.839  0.00  0.00    +0.000 A 
ATOM     29  C   UNL     1       1.932  12.227  18.420  0.00  0.00    +0.000 A 
ATOM     30  F   UNL     1       2.783  13.260  18.336  0.00  0.00    +0.000 F 
ATOM     31  C   UNL     1       2.376  10.951  18.077  0.00  0.00    +0.000 A 
ENDBRANCH  22  24
ENDBRANCH  19  21
ENDBRANCH   1  19
TORSDOF 4
ENDMDL
MODEL 9
REMARK VINA RESULT:      -8.2      1.687      4.566
REMARK  Name = 
REMARK  4 active torsions:
REMARK  status: ('A' for Active; 'I' for Inactive)
REMARK    1  A    between atoms: C_2  and  C_3
REMARK    2  A    between atoms: C_3  and  N_4
REMARK    3  A    between atoms: C_6  and  C_7
REMARK    4  A    between atoms: N_22  and  C_23
REMARK                            x       y       z     vdW  Elec       q    Type
REMARK                         _______ _______ _______ _____ _____    ______ ____
ROOT
ATOM      1  N   UNL     1       4.351   6.105  18.025  0.00  0.00    +0.000 N 
ATOM      2  C   UNL     1       4.694   5.495  19.326  0.00  0.00    +0.000 C 
ATOM      3  C   UNL     1       5.202   4.060  19.209  0.00  0.00    +0.000 C 
ATOM      4  O   UNL     1       6.349   4.008  18.355  0.00  0.00    +0.000 OA
ATOM      5  C   UNL     1       6.192   4.712  17.183  0.00  0.00    +0.000 A 
ATOM      6  C   UNL     1       7.147   4.432  16.201  0.00  0.00    +0.000 A 
ATOM      7  C   UNL     1       7.083   5.069  14.967  0.00  0.00    +0.000 A 
ATOM      8  C   UNL     1       6.052   5.968  14.711  0.00  0.00    +0.000 A 
ATOM      9  C   UNL     1       5.112   6.264  15.705  0.00  0.00    +0.000 A 
ATOM     10  C   UNL     1       5.175   5.672  16.976  0.00  0.00    +0.000 A 
ENDROOT
BRANCH   3  11
ATOM     11  C   UNL     1       4.093   3.044  18.855  0.00  0.00    +0.000 C 
ATOM     12  O   UNL     1       4.127   2.391  17.809  0.00  0.00    +0.000 OA
ATOM     13  N   UNL     1       3.031   2.925  19.742  0.00  0.00    +0.000 N 
ATOM     14  C   UNL     1       2.136   1.778  19.630  0.00  0.00    +0.000 C 
ATOM     15  C   UNL     1       0.708   2.224  19.344  0.00  0.00    +0.000 C 
ATOM     16  C   UNL     1       0.243   3.252  20.376  0.00  0.00    +0.000 C 
ATOM     17  C   UNL     1       1.218   4.424  20.448  0.00  0.00    +0.000 C 
ATOM     18  C   UNL     1       2.644   3.945  20.717  0.00  0.00    +0.000 C 
ENDBRANCH   3  11
BRANCH   1  19
ATOM     19  C   UNL     1       2.912   6.352  17.766  0.00  0.00    +0.000 C 
BRANCH  19  21
ATOM     20  O   UNL     1       2.390   7.568  19.784  0.00  0.00    +0.000 OA
ATOM     21  C   UNL     1       2.389   7.567  18.559  0.00  0.00    +0.000 C 
ATOM     22  N   UNL     1       1.874   8.580  17.758  0.00  0.00    +0.000 N 
ATOM     23  H   UNL     1       1.769   8.337  16.774  0.00  0.00    +0.000 HD
BRANCH  22  24
ATOM     24  C   UNL     1       1.407   9.835  18.199  0.00  0.00    +0.000 A 
ATOM     25  C   UNL     1       2.208  10.985  18.200  0.00  0.00    +0.000 A 
ATOM     26  C   UNL     1       1.714  12.185  18.705  0.00  0.00    +0.000 A 
ATOM     27  F   UNL     1       2.494  13.269  18.709  0.00  0.00    +0.000 F 
ATOM     28  C   UNL     1       0.422  12.279  19.206  0.00  0.00    +0.000 A 
ATOM     29  C   UNL     1      -0.378  11.145  19.160  0.00  0.00    +0.000 A 
ATOM     30  F   UNL     1      -1.634  11.214  19.627  0.00  0.00    +0.000 F 
ATOM     31  C   UNL     1       0.091   9.935  18.650  0.00  0.00    +0.000 A 
ENDBRANCH  22  24
ENDBRANCH  19  21
ENDBRANCH   1  19
TORSDOF 4
ENDMDL
