MODEL 1
REMARK VINA RESULT:      -7.6      0.000      0.000
REMARK  Name = 
REMARK  2 active torsions:
REMARK  status: ('A' for Active; 'I' for Inactive)
REMARK    1  A    between atoms: C_1  and  C_2
REMARK    2  A    between atoms: C_8  and  C_9
REMARK                            x       y       z     vdW  Elec       q    Type
REMARK                         _______ _______ _______ _____ _____    ______ ____
ROOT
ATOM      1  C   UNL     1       4.731   3.810  17.921  0.00  0.00    +0.000 C 
ATOM      2  O   UNL     1       5.183   3.070  18.786  0.00  0.00    +0.000 OA
ATOM      3  N   UNL     1       3.418   4.261  17.902  0.00  0.00    +0.000 N 
ATOM      4  C   UNL     1       2.436   3.810  18.885  0.00  0.00    +0.000 C 
ATOM      5  C   UNL     1       1.374   4.919  18.897  0.00  0.00    +0.000 C 
ATOM      6  C   UNL     1       2.211   6.177  18.582  0.00  0.00    +0.000 C 
ATOM      7  C   UNL     1       3.048   6.609  19.805  0.00  0.00    +0.000 C 
ATOM      8  C   UNL     1       2.126   7.271  20.823  0.00  0.00    +0.000 C 
ATOM      9  C   UNL     1       1.460   8.416  20.126  0.00  0.00    +0.000 A 
ATOM     10  C   UNL     1       1.072   9.554  20.838  0.00  0.00    +0.000 A 
ATOM     11  C   UNL     1       0.691  10.705  20.150  0.00  0.00    +0.000 A 
ATOM     12  C   UNL     1       0.697  10.719  18.756  0.00  0.00    +0.000 A 
ATOM     13  C   UNL     1       0.969   9.546  18.051  0.00  0.00    +0.000 A 
ATOM     14  C   UNL     1       1.300   8.382  18.740  0.00  0.00    +0.000 A 
ATOM     15  O   UNL     1       1.465   7.248  17.994  0.00  0.00    +0.000 OA
ATOM     16  C   UNL     1       3.081   5.602  17.456  0.00  0.00    +0.000 C 
ENDROOT
BRANCH   1  24
ATOM     17  C   UNL     1       5.684   3.190  12.385  0.00  0.00    +0.000 C 
ATOM     18  C   UNL     1       6.439   4.067  13.309  0.00  0.00    +0.000 A 
ATOM     19  N   UNL     1       7.502   4.835  12.905  0.00  0.00    +0.000 N 
ATOM     20  N   UNL     1       8.092   5.551  13.880  0.00  0.00    +0.000 NA
ATOM     21  C   UNL     1       7.385   5.245  14.969  0.00  0.00    +0.000 A 
ATOM     22  N   UNL     1       7.580   5.696  16.234  0.00  0.00    +0.000 NA
ATOM     23  C   UNL     1       6.673   5.153  17.115  0.00  0.00    +0.000 A 
ATOM     24  C   UNL     1       5.615   4.256  16.818  0.00  0.00    +0.000 A 
ATOM     25  C   UNL     1       5.397   3.776  15.515  0.00  0.00    +0.000 A 
ATOM     26  C   UNL     1       6.334   4.325  14.653  0.00  0.00    +0.000 A 
ATOM     27  H   UNL     1       7.894   4.918  11.972  0.00  0.00    +0.000 HD
ENDBRANCH   1  24
TORSDOF 1
ENDMDL
MODEL 2
REMARK VINA RESULT:      -7.1      2.983      7.883
REMARK  Name = 
REMARK  2 active torsions:
REMARK  status: ('A' for Active; 'I' for Inactive)
REMARK    1  A    between atoms: C_1  and  C_2
REMARK    2  A    between atoms: C_8  and  C_9
REMARK                            x       y       z     vdW  Elec       q    Type
REMARK                         _______ _______ _______ _____ _____    ______ ____
ROOT
ATOM      1  C   UNL     1       1.774   5.546  20.355  0.00  0.00    +0.000 C 
ATOM      2  O   UNL     1       0.837   4.780  20.546  0.00  0.00    +0.000 OA
ATOM      3  N   UNL     1       3.085   5.129  20.172  0.00  0.00    +0.000 N 
ATOM      4  C   UNL     1       3.467   3.723  20.279  0.00  0.00    +0.000 C 
ATOM      5  C   UNL     1       4.764   3.619  19.464  0.00  0.00    +0.000 C 
ATOM      6  C   UNL     1       4.549   4.686  18.368  0.00  0.00    +0.000 C 
ATOM      7  C   UNL     1       3.539   4.199  17.308  0.00  0.00    +0.000 C 
ATOM      8  C   UNL     1       4.224   3.173  16.411  0.00  0.00    +0.000 C 
ATOM      9  C   UNL     1       5.425   3.843  15.822  0.00  0.00    +0.000 A 
ATOM     10  C   UNL     1       5.901   3.473  14.561  0.00  0.00    +0.000 A 
ATOM     11  C   UNL     1       6.850   4.266  13.919  0.00  0.00    +0.000 A 
ATOM     12  C   UNL     1       7.323   5.424  14.534  0.00  0.00    +0.000 A 
ATOM     13  C   UNL     1       6.936   5.725  15.839  0.00  0.00    +0.000 A 
ATOM     14  C   UNL     1       6.026   4.905  16.502  0.00  0.00    +0.000 A 
ATOM     15  O   UNL     1       5.759   5.205  17.809  0.00  0.00    +0.000 OA
ATOM     16  C   UNL     1       3.977   5.807  19.246  0.00  0.00    +0.000 C 
ENDROOT
BRANCH   1  24
ATOM     17  C   UNL     1      -0.323   9.817  23.405  0.00  0.00    +0.000 C 
ATOM     18  C   UNL     1       0.259   9.916  22.047  0.00  0.00    +0.000 A 
ATOM     19  N   UNL     1       0.336  11.098  21.354  0.00  0.00    +0.000 N 
ATOM     20  N   UNL     1       0.869  11.003  20.121  0.00  0.00    +0.000 NA
ATOM     21  C   UNL     1       1.158   9.707  20.001  0.00  0.00    +0.000 A 
ATOM     22  N   UNL     1       1.708   9.080  18.930  0.00  0.00    +0.000 NA
ATOM     23  C   UNL     1       1.847   7.728  19.147  0.00  0.00    +0.000 A 
ATOM     24  C   UNL     1       1.517   7.005  20.322  0.00  0.00    +0.000 A 
ATOM     25  C   UNL     1       0.946   7.636  21.441  0.00  0.00    +0.000 A 
ATOM     26  C   UNL     1       0.801   8.992  21.189  0.00  0.00    +0.000 A 
ATOM     27  H   UNL     1       0.035  12.020  21.655  0.00  0.00    +0.000 HD
ENDBRANCH   1  24
TORSDOF 1
ENDMDL
MODEL 3
REMARK VINA RESULT:      -6.7      6.329     10.599
REMARK  Name = 
REMARK  2 active torsions:
REMARK  status: ('A' for Active; 'I' for Inactive)
REMARK    1  A    between atoms: C_1  and  C_2
REMARK    2  A    between atoms: C_8  and  C_9
REMARK                            x       y       z     vdW  Elec       q    Type
REMARK                         _______ _______ _______ _____ _____    ______ ____
ROOT
ATOM      1  C   UNL     1      -2.819  12.632  21.400  0.00  0.00    +0.000 C 
ATOM      2  O   UNL     1      -3.142  12.656  22.582  0.00  0.00    +0.000 OA
ATOM      3  N   UNL     1      -1.502  12.615  20.962  0.00  0.00    +0.000 N 
ATOM      4  C   UNL     1      -0.380  12.711  21.893  0.00  0.00    +0.000 C 
ATOM      5  C   UNL     1       0.797  12.080  21.135  0.00  0.00    +0.000 C 
ATOM      6  C   UNL     1       0.094  11.015  20.266  0.00  0.00    +0.000 C 
ATOM      7  C   UNL     1      -0.343   9.803  21.116  0.00  0.00    +0.000 C 
ATOM      8  C   UNL     1       0.887   8.965  21.447  0.00  0.00    +0.000 C 
ATOM      9  C   UNL     1       1.515   8.580  20.144  0.00  0.00    +0.000 A 
ATOM     10  C   UNL     1       2.224   7.382  20.022  0.00  0.00    +0.000 A 
ATOM     11  C   UNL     1       2.581   6.914  18.758  0.00  0.00    +0.000 A 
ATOM     12  C   UNL     1       2.231   7.641  17.621  0.00  0.00    +0.000 A 
ATOM     13  C   UNL     1       1.629   8.892  17.754  0.00  0.00    +0.000 A 
ATOM     14  C   UNL     1       1.318   9.383  19.020  0.00  0.00    +0.000 A 
ATOM     15  O   UNL     1       0.814  10.653  19.084  0.00  0.00    +0.000 OA
ATOM     16  C   UNL     1      -1.100  11.853  19.791  0.00  0.00    +0.000 C 
ENDROOT
BRANCH   1  24
ATOM     17  C   UNL     1      -3.998  10.818  16.180  0.00  0.00    +0.000 C 
ATOM     18  C   UNL     1      -4.906  11.583  17.064  0.00  0.00    +0.000 A 
ATOM     19  N   UNL     1      -6.169  11.963  16.687  0.00  0.00    +0.000 N 
ATOM     20  N   UNL     1      -6.848  12.678  17.603  0.00  0.00    +0.000 NA
ATOM     21  C   UNL     1      -5.998  12.768  18.627  0.00  0.00    +0.000 A 
ATOM     22  N   UNL     1      -6.194  13.406  19.809  0.00  0.00    +0.000 NA
ATOM     23  C   UNL     1      -5.092  13.313  20.627  0.00  0.00    +0.000 A 
ATOM     24  C   UNL     1      -3.877  12.629  20.363  0.00  0.00    +0.000 A 
ATOM     25  C   UNL     1      -3.655  11.964  19.145  0.00  0.00    +0.000 A 
ATOM     26  C   UNL     1      -4.773  12.088  18.334  0.00  0.00    +0.000 A 
ATOM     27  H   UNL     1      -6.641  11.777  15.807  0.00  0.00    +0.000 HD
ENDBRANCH   1  24
TORSDOF 1
ENDMDL
MODEL 4
REMARK VINA RESULT:      -6.7      3.742      6.620
REMARK  Name = 
REMARK  2 active torsions:
REMARK  status: ('A' for Active; 'I' for Inactive)
REMARK    1  A    between atoms: C_1  and  C_2
REMARK    2  A    between atoms: C_8  and  C_9
REMARK                            x       y       z     vdW  Elec       q    Type
REMARK                         _______ _______ _______ _____ _____    ______ ____
ROOT
ATOM      1  C   UNL     1       1.880   9.243  18.330  0.00  0.00    +0.000 C 
ATOM      2  O   UNL     1       1.891   9.321  17.108  0.00  0.00    +0.000 OA
ATOM      3  N   UNL     1       1.756  10.341  19.171  0.00  0.00    +0.000 N 
ATOM      4  C   UNL     1       1.713  11.706  18.652  0.00  0.00    +0.000 C 
ATOM      5  C   UNL     1       1.003  12.507  19.752  0.00  0.00    +0.000 C 
ATOM      6  C   UNL     1       0.040  11.461  20.352  0.00  0.00    +0.000 C 
ATOM      7  C   UNL     1      -1.155  11.201  19.411  0.00  0.00    +0.000 C 
ATOM      8  C   UNL     1      -2.116  12.382  19.499  0.00  0.00    +0.000 C 
ATOM      9  C   UNL     1      -2.511  12.516  20.936  0.00  0.00    +0.000 A 
ATOM     10  C   UNL     1      -3.764  13.025  21.286  0.00  0.00    +0.000 A 
ATOM     11  C   UNL     1      -4.218  12.909  22.599  0.00  0.00    +0.000 A 
ATOM     12  C   UNL     1      -3.422  12.286  23.559  0.00  0.00    +0.000 A 
ATOM     13  C   UNL     1      -2.125  11.887  23.234  0.00  0.00    +0.000 A 
ATOM     14  C   UNL     1      -1.653  12.050  21.933  0.00  0.00    +0.000 A 
ATOM     15  O   UNL     1      -0.345  11.723  21.705  0.00  0.00    +0.000 OA
ATOM     16  C   UNL     1       1.002  10.267  20.412  0.00  0.00    +0.000 C 
ENDROOT
BRANCH   1  24
ATOM     17  C   UNL     1       3.617   3.949  17.384  0.00  0.00    +0.000 C 
ATOM     18  C   UNL     1       3.059   4.472  18.652  0.00  0.00    +0.000 A 
ATOM     19  N   UNL     1       2.881   3.691  19.766  0.00  0.00    +0.000 N 
ATOM     20  N   UNL     1       2.336   4.321  20.824  0.00  0.00    +0.000 NA
ATOM     21  C   UNL     1       2.152   5.568  20.388  0.00  0.00    +0.000 A 
ATOM     22  N   UNL     1       1.614   6.610  21.072  0.00  0.00    +0.000 NA
ATOM     23  C   UNL     1       1.557   7.749  20.303  0.00  0.00    +0.000 A 
ATOM     24  C   UNL     1       2.013   7.913  18.970  0.00  0.00    +0.000 A 
ATOM     25  C   UNL     1       2.571   6.846  18.245  0.00  0.00    +0.000 A 
ATOM     26  C   UNL     1       2.600   5.708  19.037  0.00  0.00    +0.000 A 
ATOM     27  H   UNL     1       3.102   2.707  19.881  0.00  0.00    +0.000 HD
ENDBRANCH   1  24
TORSDOF 1
ENDMDL
MODEL 5
REMARK VINA RESULT:      -6.6      7.215     10.781
REMARK  Name = 
REMARK  2 active torsions:
REMARK  status: ('A' for Active; 'I' for Inactive)
REMARK    1  A    between atoms: C_1  and  C_2
REMARK    2  A    between atoms: C_8  and  C_9
REMARK                            x       y       z     vdW  Elec       q    Type
REMARK                         _______ _______ _______ _____ _____    ______ ____
ROOT
ATOM      1  C   UNL     1      -1.379  12.907  23.149  0.00  0.00    +0.000 C 
ATOM      2  O   UNL     1      -0.638  13.799  23.544  0.00  0.00    +0.000 OA
ATOM      3  N   UNL     1      -2.763  12.964  23.227  0.00  0.00    +0.000 N 
ATOM      4  C   UNL     1      -3.451  14.077  23.877  0.00  0.00    +0.000 C 
ATOM      5  C   UNL     1      -4.854  14.071  23.254  0.00  0.00    +0.000 C 
ATOM      6  C   UNL     1      -4.577  13.549  21.827  0.00  0.00    +0.000 C 
ATOM      7  C   UNL     1      -3.913  14.635  20.956  0.00  0.00    +0.000 C 
ATOM      8  C   UNL     1      -4.969  15.660  20.557  0.00  0.00    +0.000 C 
ATOM      9  C   UNL     1      -6.054  14.912  19.847  0.00  0.00    +0.000 A 
ATOM     10  C   UNL     1      -6.813  15.533  18.852  0.00  0.00    +0.000 A 
ATOM     11  C   UNL     1      -7.637  14.767  18.029  0.00  0.00    +0.000 A 
ATOM     12  C   UNL     1      -7.702  13.385  18.200  0.00  0.00    +0.000 A 
ATOM     13  C   UNL     1      -7.036  12.785  19.269  0.00  0.00    +0.000 A 
ATOM     14  C   UNL     1      -6.253  13.558  20.123  0.00  0.00    +0.000 A 
ATOM     15  O   UNL     1      -5.702  12.924  21.202  0.00  0.00    +0.000 OA
ATOM     16  C   UNL     1      -3.608  12.413  22.181  0.00  0.00    +0.000 C 
ENDROOT
BRANCH   1  24
ATOM     17  C   UNL     1       1.365  10.993  18.593  0.00  0.00    +0.000 C 
ATOM     18  C   UNL     1       0.986  10.198  19.783  0.00  0.00    +0.000 A 
ATOM     19  N   UNL     1       1.255   8.857  19.900  0.00  0.00    +0.000 N 
ATOM     20  N   UNL     1       0.816   8.284  21.036  0.00  0.00    +0.000 NA
ATOM     21  C   UNL     1       0.238   9.289  21.695  0.00  0.00    +0.000 A 
ATOM     22  N   UNL     1      -0.378   9.238  22.903  0.00  0.00    +0.000 NA
ATOM     23  C   UNL     1      -0.882  10.465  23.271  0.00  0.00    +0.000 A 
ATOM     24  C   UNL     1      -0.784  11.686  22.556  0.00  0.00    +0.000 A 
ATOM     25  C   UNL     1      -0.151  11.759  21.303  0.00  0.00    +0.000 A 
ATOM     26  C   UNL     1       0.331  10.508  20.950  0.00  0.00    +0.000 A 
ATOM     27  H   UNL     1       1.733   8.256  19.236  0.00  0.00    +0.000 HD
ENDBRANCH   1  24
TORSDOF 1
ENDMDL
MODEL 6
REMARK VINA RESULT:      -6.6     10.755     12.260
REMARK  Name = 
REMARK  2 active torsions:
REMARK  status: ('A' for Active; 'I' for Inactive)
REMARK    1  A    between atoms: C_1  and  C_2
REMARK    2  A    between atoms: C_8  and  C_9
REMARK                            x       y       z     vdW  Elec       q    Type
REMARK                         _______ _______ _______ _____ _____    ______ ____
ROOT
ATOM      1  C   UNL     1      -2.454  13.044  21.739  0.00  0.00    +0.000 C 
ATOM      2  O   UNL     1      -1.802  12.180  22.314  0.00  0.00    +0.000 OA
ATOM      3  N   UNL     1      -2.113  14.389  21.733  0.00  0.00    +0.000 N 
ATOM      4  C   UNL     1      -0.976  14.898  22.496  0.00  0.00    +0.000 C 
ATOM      5  C   UNL     1      -0.597  16.206  21.787  0.00  0.00    +0.000 C 
ATOM      6  C   UNL     1      -0.972  15.903  20.320  0.00  0.00    +0.000 C 
ATOM      7  C   UNL     1       0.054  14.952  19.669  0.00  0.00    +0.000 C 
ATOM      8  C   UNL     1       1.324  15.735  19.359  0.00  0.00    +0.000 C 
ATOM      9  C   UNL     1       0.928  16.875  18.474  0.00  0.00    +0.000 A 
ATOM     10  C   UNL     1       1.825  17.393  17.536  0.00  0.00    +0.000 A 
ATOM     11  C   UNL     1       1.370  18.271  16.553  0.00  0.00    +0.000 A 
ATOM     12  C   UNL     1       0.023  18.631  16.509  0.00  0.00    +0.000 A 
ATOM     13  C   UNL     1      -0.843  18.206  17.517  0.00  0.00    +0.000 A 
ATOM     14  C   UNL     1      -0.376  17.370  18.528  0.00  0.00    +0.000 A 
ATOM     15  O   UNL     1      -1.252  17.066  19.533  0.00  0.00    +0.000 OA
ATOM     16  C   UNL     1      -2.326  15.223  20.561  0.00  0.00    +0.000 C 
ENDROOT
BRANCH   1  24
ATOM     17  C   UNL     1      -4.363  11.454  16.663  0.00  0.00    +0.000 C 
ATOM     18  C   UNL     1      -5.173  11.605  17.893  0.00  0.00    +0.000 A 
ATOM     19  N   UNL     1      -6.527  11.384  17.925  0.00  0.00    +0.000 N 
ATOM     20  N   UNL     1      -7.111  11.595  19.119  0.00  0.00    +0.000 NA
ATOM     21  C   UNL     1      -6.099  11.965  19.905  0.00  0.00    +0.000 A 
ATOM     22  N   UNL     1      -6.156  12.305  21.218  0.00  0.00    +0.000 NA
ATOM     23  C   UNL     1      -4.919  12.655  21.708  0.00  0.00    +0.000 A 
ATOM     24  C   UNL     1      -3.684  12.654  21.010  0.00  0.00    +0.000 A 
ATOM     25  C   UNL     1      -3.604  12.306  19.651  0.00  0.00    +0.000 A 
ATOM     26  C   UNL     1      -4.866  11.975  19.179  0.00  0.00    +0.000 A 
ATOM     27  H   UNL     1      -7.130  11.093  17.162  0.00  0.00    +0.000 HD
ENDBRANCH   1  24
TORSDOF 1
ENDMDL
MODEL 7
REMARK VINA RESULT:      -6.5      6.999     11.511
REMARK  Name = 
REMARK  2 active torsions:
REMARK  status: ('A' for Active; 'I' for Inactive)
REMARK    1  A    between atoms: C_1  and  C_2
REMARK    2  A    between atoms: C_8  and  C_9
REMARK                            x       y       z     vdW  Elec       q    Type
REMARK                         _______ _______ _______ _____ _____    ______ ____
ROOT
ATOM      1  C   UNL     1      -3.384  13.054  22.144  0.00  0.00    +0.000 C 
ATOM      2  O   UNL     1      -3.681  12.967  23.329  0.00  0.00    +0.000 OA
ATOM      3  N   UNL     1      -2.078  13.121  21.680  0.00  0.00    +0.000 N 
ATOM      4  C   UNL     1      -0.939  13.179  22.594  0.00  0.00    +0.000 C 
ATOM      5  C   UNL     1       0.241  12.657  21.763  0.00  0.00    +0.000 C 
ATOM      6  C   UNL     1      -0.443  11.643  20.821  0.00  0.00    +0.000 C 
ATOM      7  C   UNL     1      -0.819  10.350  21.574  0.00  0.00    +0.000 C 
ATOM      8  C   UNL     1       0.446   9.532  21.809  0.00  0.00    +0.000 C 
ATOM      9  C   UNL     1       1.057   9.280  20.466  0.00  0.00    +0.000 A 
ATOM     10  C   UNL     1       1.804   8.123  20.230  0.00  0.00    +0.000 A 
ATOM     11  C   UNL     1       2.149   7.776  18.925  0.00  0.00    +0.000 A 
ATOM     12  C   UNL     1       1.749   8.581  17.860  0.00  0.00    +0.000 A 
ATOM     13  C   UNL     1       1.107   9.794  18.109  0.00  0.00    +0.000 A 
ATOM     14  C   UNL     1       0.808  10.167  19.418  0.00  0.00    +0.000 A 
ATOM     15  O   UNL     1       0.262  11.407  19.599  0.00  0.00    +0.000 OA
ATOM     16  C   UNL     1      -1.676  12.475  20.442  0.00  0.00    +0.000 C 
ENDROOT
BRANCH   1  24
ATOM     17  C   UNL     1      -6.933   9.785  19.201  0.00  0.00    +0.000 C 
ATOM     18  C   UNL     1      -6.850  11.262  19.139  0.00  0.00    +0.000 A 
ATOM     19  N   UNL     1      -7.644  12.018  18.314  0.00  0.00    +0.000 N 
ATOM     20  N   UNL     1      -7.417  13.344  18.362  0.00  0.00    +0.000 NA
ATOM     21  C   UNL     1      -6.437  13.465  19.258  0.00  0.00    +0.000 A 
ATOM     22  N   UNL     1      -5.829  14.607  19.668  0.00  0.00    +0.000 NA
ATOM     23  C   UNL     1      -4.842  14.356  20.592  0.00  0.00    +0.000 A 
ATOM     24  C   UNL     1      -4.465  13.099  21.131  0.00  0.00    +0.000 A 
ATOM     25  C   UNL     1      -5.082  11.905  20.720  0.00  0.00    +0.000 A 
ATOM     26  C   UNL     1      -6.060  12.185  19.776  0.00  0.00    +0.000 A 
ATOM     27  H   UNL     1      -8.365  11.698  17.675  0.00  0.00    +0.000 HD
ENDBRANCH   1  24
TORSDOF 1
ENDMDL
MODEL 8
REMARK VINA RESULT:      -6.5      7.883     12.127
REMARK  Name = 
REMARK  2 active torsions:
REMARK  status: ('A' for Active; 'I' for Inactive)
REMARK    1  A    between atoms: C_1  and  C_2
REMARK    2  A    between atoms: C_8  and  C_9
REMARK                            x       y       z     vdW  Elec       q    Type
REMARK                         _______ _______ _______ _____ _____    ______ ____
ROOT
ATOM      1  C   UNL     1      -4.031  14.082  22.297  0.00  0.00    +0.000 C 
ATOM      2  O   UNL     1      -4.509  14.188  23.420  0.00  0.00    +0.000 OA
ATOM      3  N   UNL     1      -2.668  14.020  22.043  0.00  0.00    +0.000 N 
ATOM      4  C   UNL     1      -1.680  14.162  23.109  0.00  0.00    +0.000 C 
ATOM      5  C   UNL     1      -0.425  13.469  22.558  0.00  0.00    +0.000 C 
ATOM      6  C   UNL     1      -1.027  12.357  21.672  0.00  0.00    +0.000 C 
ATOM      7  C   UNL     1      -1.600  11.210  22.531  0.00  0.00    +0.000 C 
ATOM      8  C   UNL     1      -0.443  10.381  23.078  0.00  0.00    +0.000 C 
ATOM      9  C   UNL     1       0.345   9.902  21.898  0.00  0.00    +0.000 A 
ATOM     10  C   UNL     1       1.038   8.690  21.950  0.00  0.00    +0.000 A 
ATOM     11  C   UNL     1       1.552   8.135  20.779  0.00  0.00    +0.000 A 
ATOM     12  C   UNL     1       1.373   8.789  19.561  0.00  0.00    +0.000 A 
ATOM     13  C   UNL     1       0.785  10.054  19.531  0.00  0.00    +0.000 A 
ATOM     14  C   UNL     1       0.318  10.632  20.709  0.00  0.00    +0.000 A 
ATOM     15  O   UNL     1      -0.163  11.909  20.624  0.00  0.00    +0.000 OA
ATOM     16  C   UNL     1      -2.129  13.177  20.988  0.00  0.00    +0.000 C 
ENDROOT
BRANCH   1  24
ATOM     17  C   UNL     1      -6.793  10.490  18.919  0.00  0.00    +0.000 C 
ATOM     18  C   UNL     1      -6.825  11.967  18.836  0.00  0.00    +0.000 A 
ATOM     19  N   UNL     1      -7.541  12.644  17.881  0.00  0.00    +0.000 N 
ATOM     20  N   UNL     1      -7.436  13.985  17.932  0.00  0.00    +0.000 NA
ATOM     21  C   UNL     1      -6.622  14.199  18.966  0.00  0.00    +0.000 A 
ATOM     22  N   UNL     1      -6.182  15.394  19.438  0.00  0.00    +0.000 NA
ATOM     23  C   UNL     1      -5.333  15.238  20.509  0.00  0.00    +0.000 A 
ATOM     24  C   UNL     1      -4.941  14.024  21.129  0.00  0.00    +0.000 A 
ATOM     25  C   UNL     1      -5.384  12.777  20.655  0.00  0.00    +0.000 A 
ATOM     26  C   UNL     1      -6.223  12.962  19.566  0.00  0.00    +0.000 A 
ATOM     27  H   UNL     1      -8.125  12.256  17.146  0.00  0.00    +0.000 HD
ENDBRANCH   1  24
TORSDOF 1
ENDMDL
MODEL 9
REMARK VINA RESULT:      -6.5      8.663     11.935
REMARK  Name = 
REMARK  2 active torsions:
REMARK  status: ('A' for Active; 'I' for Inactive)
REMARK    1  A    between atoms: C_1  and  C_2
REMARK    2  A    between atoms: C_8  and  C_9
REMARK                            x       y       z     vdW  Elec       q    Type
REMARK                         _______ _______ _______ _____ _____    ______ ____
ROOT
ATOM      1  C   UNL     1       4.810  17.011  19.506  0.00  0.00    +0.000 C 
ATOM      2  O   UNL     1       4.834  17.976  20.261  0.00  0.00    +0.000 OA
ATOM      3  N   UNL     1       5.882  16.626  18.713  0.00  0.00    +0.000 N 
ATOM      4  C   UNL     1       7.115  17.408  18.655  0.00  0.00    +0.000 C 
ATOM      5  C   UNL     1       8.180  16.402  18.196  0.00  0.00    +0.000 C 
ATOM      6  C   UNL     1       7.669  15.081  18.809  0.00  0.00    +0.000 C 
ATOM      7  C   UNL     1       7.917  15.041  20.331  0.00  0.00    +0.000 C 
ATOM      8  C   UNL     1       9.398  14.781  20.582  0.00  0.00    +0.000 C 
ATOM      9  C   UNL     1       9.737  13.496  19.893  0.00  0.00    +0.000 A 
ATOM     10  C   UNL     1      10.747  12.667  20.389  0.00  0.00    +0.000 A 
ATOM     11  C   UNL     1      10.881  11.369  19.898  0.00  0.00    +0.000 A 
ATOM     12  C   UNL     1      10.009  10.902  18.915  0.00  0.00    +0.000 A 
ATOM     13  C   UNL     1       9.081  11.770  18.340  0.00  0.00    +0.000 A 
ATOM     14  C   UNL     1       8.982  13.083  18.795  0.00  0.00    +0.000 A 
ATOM     15  O   UNL     1       8.117  13.905  18.127  0.00  0.00    +0.000 OA
ATOM     16  C   UNL     1       6.181  15.225  18.465  0.00  0.00    +0.000 C 
ENDROOT
BRANCH   1  24
ATOM     17  C   UNL     1      -0.618  17.238  17.949  0.00  0.00    +0.000 C 
ATOM     18  C   UNL     1       0.089  16.051  18.483  0.00  0.00    +0.000 A 
ATOM     19  N   UNL     1      -0.529  14.842  18.681  0.00  0.00    +0.000 N 
ATOM     20  N   UNL     1       0.255  13.878  19.199  0.00  0.00    +0.000 NA
ATOM     21  C   UNL     1       1.437  14.477  19.344  0.00  0.00    +0.000 A 
ATOM     22  N   UNL     1       2.579  13.939  19.844  0.00  0.00    +0.000 NA
ATOM     23  C   UNL     1       3.607  14.855  19.867  0.00  0.00    +0.000 A 
ATOM     24  C   UNL     1       3.574  16.198  19.414  0.00  0.00    +0.000 A 
ATOM     25  C   UNL     1       2.401  16.774  18.894  0.00  0.00    +0.000 A 
ATOM     26  C   UNL     1       1.379  15.836  18.899  0.00  0.00    +0.000 A 
ATOM     27  H   UNL     1      -1.496  14.597  18.491  0.00  0.00    +0.000 HD
ENDBRANCH   1  24
TORSDOF 1
ENDMDL
