MODEL 1
REMARK VINA RESULT:      -9.7      0.000      0.000
REMARK  Name = 
REMARK  6 active torsions:
REMARK  status: ('A' for Active; 'I' for Inactive)
REMARK    1  A    between atoms: C_1  and  C_2
REMARK    2  A    between atoms: N_5  and  S_6
REMARK    3  A    between atoms: S_6  and  C_9
REMARK    4  A    between atoms: C_12  and  N_13
REMARK    5  A    between atoms: C_14  and  C_16
REMARK    6  A    between atoms: C_16  and  C_17
REMARK                            x       y       z     vdW  Elec       q    Type
REMARK                         _______ _______ _______ _____ _____    ______ ____
ROOT
ATOM      1  C   UNL     1       1.109   9.709  19.551  0.00  0.00    +0.000 A 
ATOM      2  C   UNL     1       1.281   8.695  20.481  0.00  0.00    +0.000 A 
ATOM      3  C   UNL     1       1.907   7.508  20.106  0.00  0.00    +0.000 A 
ATOM      4  C   UNL     1       2.387   7.315  18.807  0.00  0.00    +0.000 A 
ATOM      5  C   UNL     1       2.168   8.328  17.859  0.00  0.00    +0.000 A 
ATOM      6  C   UNL     1       1.532   9.529  18.229  0.00  0.00    +0.000 A 
ENDROOT
BRANCH   4   7
ATOM      7  N   UNL     1       3.077   6.137  18.418  0.00  0.00    +0.000 N 
ATOM      8  C   UNL     1       2.497   4.996  17.880  0.00  0.00    +0.000 C 
ATOM      9  O   UNL     1       1.297   4.823  17.665  0.00  0.00    +0.000 OA
ATOM     10  H   UNL     1       4.074   6.113  18.607  0.00  0.00    +0.000 HD
BRANCH   8  11
ATOM     11  C   UNL     1       3.468   3.913  17.504  0.00  0.00    +0.000 C 
BRANCH  11  12
ATOM     12  C   UNL     1       4.862   4.278  17.032  0.00  0.00    +0.000 A 
ATOM     13  C   UNL     1       5.122   3.890  15.692  0.00  0.00    +0.000 A 
ATOM     14  C   UNL     1       6.287   4.251  15.032  0.00  0.00    +0.000 A 
ATOM     15  C   UNL     1       7.130   5.167  15.629  0.00  0.00    +0.000 A 
ATOM     16  C   UNL     1       6.868   5.603  16.924  0.00  0.00    +0.000 A 
ATOM     17  C   UNL     1       7.684   6.593  17.442  0.00  0.00    +0.000 A 
ATOM     18  C   UNL     1       8.148   6.382  18.725  0.00  0.00    +0.000 A 
ATOM     19  C   UNL     1       7.307   5.719  19.599  0.00  0.00    +0.000 A 
ATOM     20  C   UNL     1       6.093   5.159  19.127  0.00  0.00    +0.000 A 
ATOM     21  C   UNL     1       5.865   5.020  17.727  0.00  0.00    +0.000 A 
ENDBRANCH  11  12
ENDBRANCH   8  11
ENDBRANCH   4   7
BRANCH   1  22
ATOM     22  S   UNL     1       0.265  11.208  20.069  0.00  0.00    +0.000 S 
ATOM     23  O   UNL     1       0.553  12.231  19.072  0.00  0.00    +0.000 OA
ATOM     24  O   UNL     1       0.537  11.416  21.458  0.00  0.00    +0.000 OA
BRANCH  22  29
ATOM     25  C   UNL     1      -2.992  10.046  15.221  0.00  0.00    +0.000 C 
ATOM     26  C   UNL     1      -2.647  10.464  16.592  0.00  0.00    +0.000 A 
ATOM     27  C   UNL     1      -1.887   9.924  17.600  0.00  0.00    +0.000 A 
ATOM     28  C   UNL     1      -1.952  10.882  18.628  0.00  0.00    +0.000 A 
ATOM     29  N   UNL     1      -1.337  10.797  19.862  0.00  0.00    +0.000 N 
ATOM     30  N   UNL     1      -2.744  11.904  18.306  0.00  0.00    +0.000 NA
ATOM     31  O   UNL     1      -3.163  11.651  17.011  0.00  0.00    +0.000 OA
ATOM     32  H   UNL     1      -1.815  10.377  20.652  0.00  0.00    +0.000 HD
ENDBRANCH  22  29
ENDBRANCH   1  22
TORSDOF 5
ENDMDL
MODEL 2
REMARK VINA RESULT:      -9.4      1.050      1.171
REMARK  Name = 
REMARK  6 active torsions:
REMARK  status: ('A' for Active; 'I' for Inactive)
REMARK    1  A    between atoms: C_1  and  C_2
REMARK    2  A    between atoms: N_5  and  S_6
REMARK    3  A    between atoms: S_6  and  C_9
REMARK    4  A    between atoms: C_12  and  N_13
REMARK    5  A    between atoms: C_14  and  C_16
REMARK    6  A    between atoms: C_16  and  C_17
REMARK                            x       y       z     vdW  Elec       q    Type
REMARK                         _______ _______ _______ _____ _____    ______ ____
ROOT
ATOM      1  C   UNL     1       0.985   9.807  19.323  0.00  0.00    +0.000 A 
ATOM      2  C   UNL     1       1.205   8.879  20.330  0.00  0.00    +0.000 A 
ATOM      3  C   UNL     1       1.851   7.679  20.040  0.00  0.00    +0.000 A 
ATOM      4  C   UNL     1       2.305   7.388  18.750  0.00  0.00    +0.000 A 
ATOM      5  C   UNL     1       2.037   8.311  17.726  0.00  0.00    +0.000 A 
ATOM      6  C   UNL     1       1.381   9.525  18.010  0.00  0.00    +0.000 A 
ENDROOT
BRANCH   4   7
ATOM      7  N   UNL     1       3.014   6.197  18.444  0.00  0.00    +0.000 N 
ATOM      8  C   UNL     1       2.463   5.035  17.920  0.00  0.00    +0.000 C 
ATOM      9  O   UNL     1       1.276   4.852  17.649  0.00  0.00    +0.000 OA
ATOM     10  H   UNL     1       3.999   6.183  18.686  0.00  0.00    +0.000 HD
BRANCH   8  11
ATOM     11  C   UNL     1       3.453   3.940  17.639  0.00  0.00    +0.000 C 
BRANCH  11  12
ATOM     12  C   UNL     1       4.839   4.287  17.128  0.00  0.00    +0.000 A 
ATOM     13  C   UNL     1       5.066   3.873  15.791  0.00  0.00    +0.000 A 
ATOM     14  C   UNL     1       6.219   4.214  15.098  0.00  0.00    +0.000 A 
ATOM     15  C   UNL     1       7.081   5.134  15.660  0.00  0.00    +0.000 A 
ATOM     16  C   UNL     1       6.851   5.595  16.952  0.00  0.00    +0.000 A 
ATOM     17  C   UNL     1       7.685   6.588  17.434  0.00  0.00    +0.000 A 
ATOM     18  C   UNL     1       8.176   6.396  18.709  0.00  0.00    +0.000 A 
ATOM     19  C   UNL     1       7.351   5.756  19.614  0.00  0.00    +0.000 A 
ATOM     20  C   UNL     1       6.123   5.196  19.180  0.00  0.00    +0.000 A 
ATOM     21  C   UNL     1       5.862   5.034  17.787  0.00  0.00    +0.000 A 
ENDBRANCH  11  12
ENDBRANCH   8  11
ENDBRANCH   4   7
BRANCH   1  22
ATOM     22  S   UNL     1       0.117  11.325  19.734  0.00  0.00    +0.000 S 
ATOM     23  O   UNL     1       1.124  12.359  19.928  0.00  0.00    +0.000 OA
ATOM     24  O   UNL     1      -0.855  11.023  20.740  0.00  0.00    +0.000 OA
BRANCH  22  29
ATOM     25  C   UNL     1      -5.574  10.957  18.018  0.00  0.00    +0.000 C 
ATOM     26  C   UNL     1      -4.102  10.991  17.942  0.00  0.00    +0.000 A 
ATOM     27  C   UNL     1      -3.130  11.806  18.466  0.00  0.00    +0.000 A 
ATOM     28  C   UNL     1      -1.925  11.228  18.025  0.00  0.00    +0.000 A 
ATOM     29  N   UNL     1      -0.651  11.688  18.300  0.00  0.00    +0.000 N 
ATOM     30  N   UNL     1      -2.138  10.178  17.234  0.00  0.00    +0.000 NA
ATOM     31  O   UNL     1      -3.512  10.013  17.202  0.00  0.00    +0.000 OA
ATOM     32  H   UNL     1      -0.195  12.351  17.682  0.00  0.00    +0.000 HD
ENDBRANCH  22  29
ENDBRANCH   1  22
TORSDOF 5
ENDMDL
MODEL 3
REMARK VINA RESULT:      -9.3      2.068      2.864
REMARK  Name = 
REMARK  6 active torsions:
REMARK  status: ('A' for Active; 'I' for Inactive)
REMARK    1  A    between atoms: C_1  and  C_2
REMARK    2  A    between atoms: N_5  and  S_6
REMARK    3  A    between atoms: S_6  and  C_9
REMARK    4  A    between atoms: C_12  and  N_13
REMARK    5  A    between atoms: C_14  and  C_16
REMARK    6  A    between atoms: C_16  and  C_17
REMARK                            x       y       z     vdW  Elec       q    Type
REMARK                         _______ _______ _______ _____ _____    ______ ____
ROOT
ATOM      1  C   UNL     1       1.091   9.711  19.611  0.00  0.00    +0.000 A 
ATOM      2  C   UNL     1       1.401   8.664  20.465  0.00  0.00    +0.000 A 
ATOM      3  C   UNL     1       2.004   7.513  19.964  0.00  0.00    +0.000 A 
ATOM      4  C   UNL     1       2.324   7.388  18.608  0.00  0.00    +0.000 A 
ATOM      5  C   UNL     1       1.964   8.433  17.741  0.00  0.00    +0.000 A 
ATOM      6  C   UNL     1       1.351   9.598  18.239  0.00  0.00    +0.000 A 
ENDROOT
BRANCH   4   7
ATOM      7  N   UNL     1       2.988   6.248  18.085  0.00  0.00    +0.000 N 
ATOM      8  C   UNL     1       2.511   4.944  18.116  0.00  0.00    +0.000 C 
ATOM      9  O   UNL     1       1.445   4.572  18.609  0.00  0.00    +0.000 OA
ATOM     10  H   UNL     1       3.918   6.399  17.708  0.00  0.00    +0.000 HD
BRANCH   8  11
ATOM     11  C   UNL     1       3.393   3.934  17.438  0.00  0.00    +0.000 C 
BRANCH  11  12
ATOM     12  C   UNL     1       4.777   4.335  16.967  0.00  0.00    +0.000 A 
ATOM     13  C   UNL     1       5.022   4.021  15.606  0.00  0.00    +0.000 A 
ATOM     14  C   UNL     1       6.175   4.425  14.950  0.00  0.00    +0.000 A 
ATOM     15  C   UNL     1       7.019   5.315  15.583  0.00  0.00    +0.000 A 
ATOM     16  C   UNL     1       6.772   5.681  16.903  0.00  0.00    +0.000 A 
ATOM     17  C   UNL     1       7.587   6.649  17.461  0.00  0.00    +0.000 A 
ATOM     18  C   UNL     1       8.070   6.374  18.725  0.00  0.00    +0.000 A 
ATOM     19  C   UNL     1       7.247   5.660  19.574  0.00  0.00    +0.000 A 
ATOM     20  C   UNL     1       6.030   5.116  19.090  0.00  0.00    +0.000 A 
ATOM     21  C   UNL     1       5.784   5.048  17.687  0.00  0.00    +0.000 A 
ENDBRANCH  11  12
ENDBRANCH   8  11
ENDBRANCH   4   7
BRANCH   1  22
ATOM     22  S   UNL     1       0.282  11.162  20.295  0.00  0.00    +0.000 S 
ATOM     23  O   UNL     1       1.233  11.804  21.191  0.00  0.00    +0.000 OA
ATOM     24  O   UNL     1      -1.024  10.777  20.735  0.00  0.00    +0.000 OA
BRANCH  22  29
ATOM     25  C   UNL     1       4.045  15.060  17.824  0.00  0.00    +0.000 C 
ATOM     26  C   UNL     1       2.781  14.409  18.213  0.00  0.00    +0.000 A 
ATOM     27  C   UNL     1       2.320  13.116  18.195  0.00  0.00    +0.000 A 
ATOM     28  C   UNL     1       1.032  13.205  18.758  0.00  0.00    +0.000 A 
ATOM     29  N   UNL     1       0.158  12.155  18.961  0.00  0.00    +0.000 N 
ATOM     30  N   UNL     1       0.699  14.463  19.039  0.00  0.00    +0.000 NA
ATOM     31  O   UNL     1       1.813  15.220  18.718  0.00  0.00    +0.000 OA
ATOM     32  H   UNL     1      -0.514  11.894  18.248  0.00  0.00    +0.000 HD
ENDBRANCH  22  29
ENDBRANCH   1  22
TORSDOF 5
ENDMDL
MODEL 4
REMARK VINA RESULT:      -9.2      1.245      2.487
REMARK  Name = 
REMARK  6 active torsions:
REMARK  status: ('A' for Active; 'I' for Inactive)
REMARK    1  A    between atoms: C_1  and  C_2
REMARK    2  A    between atoms: N_5  and  S_6
REMARK    3  A    between atoms: S_6  and  C_9
REMARK    4  A    between atoms: C_12  and  N_13
REMARK    5  A    between atoms: C_14  and  C_16
REMARK    6  A    between atoms: C_16  and  C_17
REMARK                            x       y       z     vdW  Elec       q    Type
REMARK                         _______ _______ _______ _____ _____    ______ ____
ROOT
ATOM      1  C   UNL     1      -0.020  10.181  19.499  0.00  0.00    +0.000 A 
ATOM      2  C   UNL     1       0.767   9.852  18.405  0.00  0.00    +0.000 A 
ATOM      3  C   UNL     1       1.698   8.821  18.504  0.00  0.00    +0.000 A 
ATOM      4  C   UNL     1       1.852   8.088  19.685  0.00  0.00    +0.000 A 
ATOM      5  C   UNL     1       1.085   8.457  20.803  0.00  0.00    +0.000 A 
ATOM      6  C   UNL     1       0.145   9.501  20.712  0.00  0.00    +0.000 A 
ENDROOT
BRANCH   4   7
ATOM      7  N   UNL     1       2.755   6.997  19.791  0.00  0.00    +0.000 N 
ATOM      8  C   UNL     1       2.700   5.822  19.054  0.00  0.00    +0.000 C 
ATOM      9  O   UNL     1       1.856   5.537  18.203  0.00  0.00    +0.000 OA
ATOM     10  H   UNL     1       3.467   7.068  20.511  0.00  0.00    +0.000 HD
BRANCH   8  11
ATOM     11  C   UNL     1       3.816   4.855  19.326  0.00  0.00    +0.000 C 
BRANCH  11  12
ATOM     12  C   UNL     1       5.159   5.038  18.645  0.00  0.00    +0.000 A 
ATOM     13  C   UNL     1       6.206   5.364  19.544  0.00  0.00    +0.000 A 
ATOM     14  C   UNL     1       7.531   5.440  19.139  0.00  0.00    +0.000 A 
ATOM     15  C   UNL     1       7.861   5.005  17.871  0.00  0.00    +0.000 A 
ATOM     16  C   UNL     1       6.855   4.630  16.987  0.00  0.00    +0.000 A 
ATOM     17  C   UNL     1       7.239   4.109  15.764  0.00  0.00    +0.000 A 
ATOM     18  C   UNL     1       6.583   4.614  14.660  0.00  0.00    +0.000 A 
ATOM     19  C   UNL     1       5.256   4.964  14.820  0.00  0.00    +0.000 A 
ATOM     20  C   UNL     1       4.666   4.938  16.109  0.00  0.00    +0.000 A 
ATOM     21  C   UNL     1       5.488   4.835  17.270  0.00  0.00    +0.000 A 
ENDBRANCH  11  12
ENDBRANCH   8  11
ENDBRANCH   4   7
BRANCH   1  22
ATOM     22  S   UNL     1      -1.183  11.541  19.338  0.00  0.00    +0.000 S 
ATOM     23  O   UNL     1      -0.729  12.367  18.228  0.00  0.00    +0.000 OA
ATOM     24  O   UNL     1      -1.409  12.090  20.640  0.00  0.00    +0.000 OA
BRANCH  22  29
ATOM     25  C   UNL     1      -3.037   9.919  13.916  0.00  0.00    +0.000 C 
ATOM     26  C   UNL     1      -3.081  10.323  15.333  0.00  0.00    +0.000 A 
ATOM     27  C   UNL     1      -2.421   9.924  16.468  0.00  0.00    +0.000 A 
ATOM     28  C   UNL     1      -2.923  10.773  17.473  0.00  0.00    +0.000 A 
ATOM     29  N   UNL     1      -2.559  10.765  18.805  0.00  0.00    +0.000 N 
ATOM     30  N   UNL     1      -3.868  11.588  17.007  0.00  0.00    +0.000 NA
ATOM     31  O   UNL     1      -3.950  11.321  15.651  0.00  0.00    +0.000 OA
ATOM     32  H   UNL     1      -3.059  10.193  19.476  0.00  0.00    +0.000 HD
ENDBRANCH  22  29
ENDBRANCH   1  22
TORSDOF 5
ENDMDL
MODEL 5
REMARK VINA RESULT:      -9.2      1.061      1.504
REMARK  Name = 
REMARK  6 active torsions:
REMARK  status: ('A' for Active; 'I' for Inactive)
REMARK    1  A    between atoms: C_1  and  C_2
REMARK    2  A    between atoms: N_5  and  S_6
REMARK    3  A    between atoms: S_6  and  C_9
REMARK    4  A    between atoms: C_12  and  N_13
REMARK    5  A    between atoms: C_14  and  C_16
REMARK    6  A    between atoms: C_16  and  C_17
REMARK                            x       y       z     vdW  Elec       q    Type
REMARK                         _______ _______ _______ _____ _____    ______ ____
ROOT
ATOM      1  C   UNL     1       1.035   9.349  19.907  0.00  0.00    +0.000 A 
ATOM      2  C   UNL     1       1.454   9.367  18.585  0.00  0.00    +0.000 A 
ATOM      3  C   UNL     1       2.156   8.284  18.065  0.00  0.00    +0.000 A 
ATOM      4  C   UNL     1       2.441   7.157  18.843  0.00  0.00    +0.000 A 
ATOM      5  C   UNL     1       2.056   7.166  20.193  0.00  0.00    +0.000 A 
ATOM      6  C   UNL     1       1.348   8.259  20.728  0.00  0.00    +0.000 A 
ENDROOT
BRANCH   4   7
ATOM      7  N   UNL     1       3.108   6.019  18.317  0.00  0.00    +0.000 N 
ATOM      8  C   UNL     1       2.495   4.874  17.825  0.00  0.00    +0.000 C 
ATOM      9  O   UNL     1       1.283   4.662  17.777  0.00  0.00    +0.000 OA
ATOM     10  H   UNL     1       4.121   6.028  18.361  0.00  0.00    +0.000 HD
BRANCH   8  11
ATOM     11  C   UNL     1       3.439   3.842  17.276  0.00  0.00    +0.000 C 
BRANCH  11  12
ATOM     12  C   UNL     1       4.842   4.243  16.863  0.00  0.00    +0.000 A 
ATOM     13  C   UNL     1       5.149   3.913  15.518  0.00  0.00    +0.000 A 
ATOM     14  C   UNL     1       6.329   4.315  14.910  0.00  0.00    +0.000 A 
ATOM     15  C   UNL     1       7.140   5.217  15.570  0.00  0.00    +0.000 A 
ATOM     16  C   UNL     1       6.832   5.597  16.872  0.00  0.00    +0.000 A 
ATOM     17  C   UNL     1       7.617   6.576  17.455  0.00  0.00    +0.000 A 
ATOM     18  C   UNL     1       8.043   6.319  18.742  0.00  0.00    +0.000 A 
ATOM     19  C   UNL     1       7.185   5.611  19.562  0.00  0.00    +0.000 A 
ATOM     20  C   UNL     1       5.994   5.055  19.030  0.00  0.00    +0.000 A 
ATOM     21  C   UNL     1       5.812   4.970  17.618  0.00  0.00    +0.000 A 
ENDBRANCH  11  12
ENDBRANCH   8  11
ENDBRANCH   4   7
BRANCH   1  22
ATOM     22  S   UNL     1       0.162  10.784  20.547  0.00  0.00    +0.000 S 
ATOM     23  O   UNL     1       1.158  11.666  21.138  0.00  0.00    +0.000 OA
ATOM     24  O   UNL     1      -0.969  10.321  21.291  0.00  0.00    +0.000 OA
BRANCH  22  29
ATOM     25  C   UNL     1      -5.232  11.540  18.140  0.00  0.00    +0.000 C 
ATOM     26  C   UNL     1      -3.770  11.393  18.245  0.00  0.00    +0.000 A 
ATOM     27  C   UNL     1      -2.802  11.944  19.048  0.00  0.00    +0.000 A 
ATOM     28  C   UNL     1      -1.613  11.315  18.633  0.00  0.00    +0.000 A 
ATOM     29  N   UNL     1      -0.351  11.534  19.149  0.00  0.00    +0.000 N 
ATOM     30  N   UNL     1      -1.820  10.488  17.610  0.00  0.00    +0.000 NA
ATOM     31  O   UNL     1      -3.186  10.518  17.381  0.00  0.00    +0.000 OA
ATOM     32  H   UNL     1       0.256  12.242  18.752  0.00  0.00    +0.000 HD
ENDBRANCH  22  29
ENDBRANCH   1  22
TORSDOF 5
ENDMDL
MODEL 6
REMARK VINA RESULT:      -9.2      3.373      9.331
REMARK  Name = 
REMARK  6 active torsions:
REMARK  status: ('A' for Active; 'I' for Inactive)
REMARK    1  A    between atoms: C_1  and  C_2
REMARK    2  A    between atoms: N_5  and  S_6
REMARK    3  A    between atoms: S_6  and  C_9
REMARK    4  A    between atoms: C_12  and  N_13
REMARK    5  A    between atoms: C_14  and  C_16
REMARK    6  A    between atoms: C_16  and  C_17
REMARK                            x       y       z     vdW  Elec       q    Type
REMARK                         _______ _______ _______ _____ _____    ______ ____
ROOT
ATOM      1  C   UNL     1       3.682   5.598  19.000  0.00  0.00    +0.000 A 
ATOM      2  C   UNL     1       3.289   6.850  18.553  0.00  0.00    +0.000 A 
ATOM      3  C   UNL     1       2.289   7.546  19.227  0.00  0.00    +0.000 A 
ATOM      4  C   UNL     1       1.672   7.017  20.366  0.00  0.00    +0.000 A 
ATOM      5  C   UNL     1       2.041   5.729  20.785  0.00  0.00    +0.000 A 
ATOM      6  C   UNL     1       3.049   5.017  20.106  0.00  0.00    +0.000 A 
ENDROOT
BRANCH   4   7
ATOM      7  N   UNL     1       0.690   7.732  21.100  0.00  0.00    +0.000 N 
ATOM      8  C   UNL     1       0.926   8.826  21.923  0.00  0.00    +0.000 C 
ATOM      9  O   UNL     1       2.022   9.338  22.153  0.00  0.00    +0.000 OA
ATOM     10  H   UNL     1      -0.258   7.371  21.058  0.00  0.00    +0.000 HD
BRANCH   8  11
ATOM     11  C   UNL     1      -0.305   9.429  22.537  0.00  0.00    +0.000 C 
BRANCH  11  12
ATOM     12  C   UNL     1      -0.833  10.756  22.026  0.00  0.00    +0.000 A 
ATOM     13  C   UNL     1      -1.277  11.621  23.059  0.00  0.00    +0.000 A 
ATOM     14  C   UNL     1      -1.669  12.928  22.809  0.00  0.00    +0.000 A 
ATOM     15  C   UNL     1      -1.444  13.459  21.555  0.00  0.00    +0.000 A 
ATOM     16  C   UNL     1      -0.960  12.643  20.537  0.00  0.00    +0.000 A 
ATOM     17  C   UNL     1      -0.658  13.241  19.327  0.00  0.00    +0.000 A 
ATOM     18  C   UNL     1      -1.125  12.593  18.202  0.00  0.00    +0.000 A 
ATOM     19  C   UNL     1      -1.172  11.213  18.241  0.00  0.00    +0.000 A 
ATOM     20  C   UNL     1      -0.892  10.529  19.451  0.00  0.00    +0.000 A 
ATOM     21  C   UNL     1      -0.845  11.244  20.684  0.00  0.00    +0.000 A 
ENDBRANCH  11  12
ENDBRANCH   8  11
ENDBRANCH   4   7
BRANCH   1  22
ATOM     22  S   UNL     1       4.951   4.721  18.080  0.00  0.00    +0.000 S 
ATOM     23  O   UNL     1       4.314   3.569  17.456  0.00  0.00    +0.000 OA
ATOM     24  O   UNL     1       6.097   4.579  18.926  0.00  0.00    +0.000 OA
BRANCH  22  29
ATOM     25  C   UNL     1       6.907   3.934  12.511  0.00  0.00    +0.000 C 
ATOM     26  C   UNL     1       6.652   4.576  13.812  0.00  0.00    +0.000 A 
ATOM     27  C   UNL     1       5.546   4.724  14.612  0.00  0.00    +0.000 A 
ATOM     28  C   UNL     1       6.031   5.408  15.743  0.00  0.00    +0.000 A 
ATOM     29  N   UNL     1       5.290   5.789  16.845  0.00  0.00    +0.000 N 
ATOM     30  N   UNL     1       7.321   5.716  15.622  0.00  0.00    +0.000 NA
ATOM     31  O   UNL     1       7.719   5.169  14.414  0.00  0.00    +0.000 OA
ATOM     32  H   UNL     1       4.840   6.696  16.879  0.00  0.00    +0.000 HD
ENDBRANCH  22  29
ENDBRANCH   1  22
TORSDOF 5
ENDMDL
MODEL 7
REMARK VINA RESULT:      -9.0      1.441      2.211
REMARK  Name = 
REMARK  6 active torsions:
REMARK  status: ('A' for Active; 'I' for Inactive)
REMARK    1  A    between atoms: C_1  and  C_2
REMARK    2  A    between atoms: N_5  and  S_6
REMARK    3  A    between atoms: S_6  and  C_9
REMARK    4  A    between atoms: C_12  and  N_13
REMARK    5  A    between atoms: C_14  and  C_16
REMARK    6  A    between atoms: C_16  and  C_17
REMARK                            x       y       z     vdW  Elec       q    Type
REMARK                         _______ _______ _______ _____ _____    ______ ____
ROOT
ATOM      1  C   UNL     1      -0.132  10.229  19.756  0.00  0.00    +0.000 A 
ATOM      2  C   UNL     1       0.668   9.821  18.699  0.00  0.00    +0.000 A 
ATOM      3  C   UNL     1       1.542   8.749  18.862  0.00  0.00    +0.000 A 
ATOM      4  C   UNL     1       1.626   8.053  20.073  0.00  0.00    +0.000 A 
ATOM      5  C   UNL     1       0.848   8.501  21.153  0.00  0.00    +0.000 A 
ATOM      6  C   UNL     1      -0.035   9.587  20.998  0.00  0.00    +0.000 A 
ENDROOT
BRANCH   4   7
ATOM      7  N   UNL     1       2.468   6.924  20.244  0.00  0.00    +0.000 N 
ATOM      8  C   UNL     1       2.046   5.611  20.407  0.00  0.00    +0.000 C 
ATOM      9  O   UNL     1       0.877   5.224  20.440  0.00  0.00    +0.000 OA
ATOM     10  H   UNL     1       3.464   7.108  20.308  0.00  0.00    +0.000 HD
BRANCH   8  11
ATOM     11  C   UNL     1       3.153   4.601  20.511  0.00  0.00    +0.000 C 
BRANCH  11  12
ATOM     12  C   UNL     1       3.885   4.151  19.262  0.00  0.00    +0.000 A 
ATOM     13  C   UNL     1       3.223   3.106  18.568  0.00  0.00    +0.000 A 
ATOM     14  C   UNL     1       3.660   2.647  17.334  0.00  0.00    +0.000 A 
ATOM     15  C   UNL     1       4.651   3.350  16.679  0.00  0.00    +0.000 A 
ATOM     16  C   UNL     1       5.280   4.413  17.318  0.00  0.00    +0.000 A 
ATOM     17  C   UNL     1       6.197   5.147  16.587  0.00  0.00    +0.000 A 
ATOM     18  C   UNL     1       7.392   5.420  17.219  0.00  0.00    +0.000 A 
ATOM     19  C   UNL     1       7.353   5.621  18.585  0.00  0.00    +0.000 A 
ATOM     20  C   UNL     1       6.149   5.399  19.300  0.00  0.00    +0.000 A 
ATOM     21  C   UNL     1       5.068   4.703  18.683  0.00  0.00    +0.000 A 
ENDBRANCH  11  12
ENDBRANCH   8  11
ENDBRANCH   4   7
BRANCH   1  22
ATOM     22  S   UNL     1      -1.218  11.638  19.512  0.00  0.00    +0.000 S 
ATOM     23  O   UNL     1      -0.695  12.396  18.384  0.00  0.00    +0.000 OA
ATOM     24  O   UNL     1      -1.449  12.248  20.786  0.00  0.00    +0.000 OA
BRANCH  22  29
ATOM     25  C   UNL     1      -3.000   9.859  14.116  0.00  0.00    +0.000 C 
ATOM     26  C   UNL     1      -3.063  10.332  15.510  0.00  0.00    +0.000 A 
ATOM     27  C   UNL     1      -2.459   9.954  16.684  0.00  0.00    +0.000 A 
ATOM     28  C   UNL     1      -2.943  10.875  17.631  0.00  0.00    +0.000 A 
ATOM     29  N   UNL     1      -2.619  10.912  18.973  0.00  0.00    +0.000 N 
ATOM     30  N   UNL     1      -3.828  11.716  17.098  0.00  0.00    +0.000 NA
ATOM     31  O   UNL     1      -3.885  11.389  15.754  0.00  0.00    +0.000 OA
ATOM     32  H   UNL     1      -3.170  10.401  19.654  0.00  0.00    +0.000 HD
ENDBRANCH  22  29
ENDBRANCH   1  22
TORSDOF 5
ENDMDL
MODEL 8
REMARK VINA RESULT:      -9.0      2.593      9.595
REMARK  Name = 
REMARK  6 active torsions:
REMARK  status: ('A' for Active; 'I' for Inactive)
REMARK    1  A    between atoms: C_1  and  C_2
REMARK    2  A    between atoms: N_5  and  S_6
REMARK    3  A    between atoms: S_6  and  C_9
REMARK    4  A    between atoms: C_12  and  N_13
REMARK    5  A    between atoms: C_14  and  C_16
REMARK    6  A    between atoms: C_16  and  C_17
REMARK                            x       y       z     vdW  Elec       q    Type
REMARK                         _______ _______ _______ _____ _____    ______ ____
ROOT
ATOM      1  C   UNL     1       2.947   7.021  18.770  0.00  0.00    +0.000 A 
ATOM      2  C   UNL     1       2.623   7.931  17.776  0.00  0.00    +0.000 A 
ATOM      3  C   UNL     1       1.726   8.963  18.043  0.00  0.00    +0.000 A 
ATOM      4  C   UNL     1       1.147   9.117  19.307  0.00  0.00    +0.000 A 
ATOM      5  C   UNL     1       1.442   8.163  20.295  0.00  0.00    +0.000 A 
ATOM      6  C   UNL     1       2.346   7.116  20.032  0.00  0.00    +0.000 A 
ENDROOT
BRANCH   4   7
ATOM      7  N   UNL     1       0.273  10.192  19.617  0.00  0.00    +0.000 N 
ATOM      8  C   UNL     1       0.490  11.529  19.313  0.00  0.00    +0.000 C 
ATOM      9  O   UNL     1       1.476  11.992  18.738  0.00  0.00    +0.000 OA
ATOM     10  H   UNL     1      -0.553   9.961  20.159  0.00  0.00    +0.000 HD
BRANCH   8  11
ATOM     11  C   UNL     1      -0.626  12.454  19.707  0.00  0.00    +0.000 C 
BRANCH  11  12
ATOM     12  C   UNL     1      -2.057  12.114  19.336  0.00  0.00    +0.000 A 
ATOM     13  C   UNL     1      -3.006  12.549  20.296  0.00  0.00    +0.000 A 
ATOM     14  C   UNL     1      -4.373  12.453  20.079  0.00  0.00    +0.000 A 
ATOM     15  C   UNL     1      -4.820  12.099  18.823  0.00  0.00    +0.000 A 
ATOM     16  C   UNL     1      -3.905  11.718  17.846  0.00  0.00    +0.000 A 
ATOM     17  C   UNL     1      -4.392  11.467  16.576  0.00  0.00    +0.000 A 
ATOM     18  C   UNL     1      -3.935  10.314  15.972  0.00  0.00    +0.000 A 
ATOM     19  C   UNL     1      -2.638   9.926  16.250  0.00  0.00    +0.000 A 
ATOM     20  C   UNL     1      -1.888  10.618  17.235  0.00  0.00    +0.000 A 
ATOM     21  C   UNL     1      -2.539  11.512  18.134  0.00  0.00    +0.000 A 
ENDBRANCH  11  12
ENDBRANCH   8  11
ENDBRANCH   4   7
BRANCH   1  22
ATOM     22  S   UNL     1       4.081   5.686  18.371  0.00  0.00    +0.000 S 
ATOM     23  O   UNL     1       3.377   4.773  17.481  0.00  0.00    +0.000 OA
ATOM     24  O   UNL     1       4.682   5.234  19.588  0.00  0.00    +0.000 OA
BRANCH  22  29
ATOM     25  C   UNL     1       6.783   4.195  13.278  0.00  0.00    +0.000 C 
ATOM     26  C   UNL     1       6.546   4.827  14.588  0.00  0.00    +0.000 A 
ATOM     27  C   UNL     1       5.494   5.504  15.154  0.00  0.00    +0.000 A 
ATOM     28  C   UNL     1       5.934   5.791  16.460  0.00  0.00    +0.000 A 
ATOM     29  N   UNL     1       5.219   6.462  17.433  0.00  0.00    +0.000 N 
ATOM     30  N   UNL     1       7.185   5.381  16.663  0.00  0.00    +0.000 NA
ATOM     31  O   UNL     1       7.562   4.751  15.489  0.00  0.00    +0.000 OA
ATOM     32  H   UNL     1       5.290   7.469  17.525  0.00  0.00    +0.000 HD
ENDBRANCH  22  29
ENDBRANCH   1  22
TORSDOF 5
ENDMDL
MODEL 9
REMARK VINA RESULT:      -9.0      2.876      9.340
REMARK  Name = 
REMARK  6 active torsions:
REMARK  status: ('A' for Active; 'I' for Inactive)
REMARK    1  A    between atoms: C_1  and  C_2
REMARK    2  A    between atoms: N_5  and  S_6
REMARK    3  A    between atoms: S_6  and  C_9
REMARK    4  A    between atoms: C_12  and  N_13
REMARK    5  A    between atoms: C_14  and  C_16
REMARK    6  A    between atoms: C_16  and  C_17
REMARK                            x       y       z     vdW  Elec       q    Type
REMARK                         _______ _______ _______ _____ _____    ______ ____
ROOT
ATOM      1  C   UNL     1       3.237   5.094  18.813  0.00  0.00    +0.000 A 
ATOM      2  C   UNL     1       3.222   6.058  17.817  0.00  0.00    +0.000 A 
ATOM      3  C   UNL     1       2.674   7.313  18.071  0.00  0.00    +0.000 A 
ATOM      4  C   UNL     1       2.145   7.637  19.325  0.00  0.00    +0.000 A 
ATOM      5  C   UNL     1       2.120   6.641  20.315  0.00  0.00    +0.000 A 
ATOM      6  C   UNL     1       2.669   5.368  20.064  0.00  0.00    +0.000 A 
ENDROOT
BRANCH   4   7
ATOM      7  N   UNL     1       1.631   8.926  19.624  0.00  0.00    +0.000 N 
ATOM      8  C   UNL     1       1.531   9.987  18.733  0.00  0.00    +0.000 C 
ATOM      9  O   UNL     1       1.881   9.980  17.553  0.00  0.00    +0.000 OA
ATOM     10  H   UNL     1       1.369   9.096  20.589  0.00  0.00    +0.000 HD
BRANCH   8  11
ATOM     11  C   UNL     1       0.896  11.226  19.299  0.00  0.00    +0.000 C 
BRANCH  11  12
ATOM     12  C   UNL     1      -0.614  11.360  19.317  0.00  0.00    +0.000 A 
ATOM     13  C   UNL     1      -1.105  12.039  20.462  0.00  0.00    +0.000 A 
ATOM     14  C   UNL     1      -2.443  12.381  20.601  0.00  0.00    +0.000 A 
ATOM     15  C   UNL     1      -3.282  12.222  19.517  0.00  0.00    +0.000 A 
ATOM     16  C   UNL     1      -2.810  11.605  18.362  0.00  0.00    +0.000 A 
ATOM     17  C   UNL     1      -3.658  11.558  17.270  0.00  0.00    +0.000 A 
ATOM     18  C   UNL     1      -3.749  10.339  16.631  0.00  0.00    +0.000 A 
ATOM     19  C   UNL     1      -2.610   9.558  16.593  0.00  0.00    +0.000 A 
ATOM     20  C   UNL     1      -1.457   9.951  17.320  0.00  0.00    +0.000 A 
ATOM     21  C   UNL     1      -1.549  10.976  18.308  0.00  0.00    +0.000 A 
ENDBRANCH  11  12
ENDBRANCH   8  11
ENDBRANCH   4   7
BRANCH   1  22
ATOM     22  S   UNL     1       3.922   3.479  18.429  0.00  0.00    +0.000 S 
ATOM     23  O   UNL     1       3.900   3.334  16.980  0.00  0.00    +0.000 OA
ATOM     24  O   UNL     1       3.304   2.517  19.290  0.00  0.00    +0.000 OA
BRANCH  22  29
ATOM     25  C   UNL     1       7.791   7.932  17.620  0.00  0.00    +0.000 C 
ATOM     26  C   UNL     1       7.270   6.569  17.822  0.00  0.00    +0.000 A 
ATOM     27  C   UNL     1       6.359   6.004  18.680  0.00  0.00    +0.000 A 
ATOM     28  C   UNL     1       6.309   4.654  18.286  0.00  0.00    +0.000 A 
ATOM     29  N   UNL     1       5.524   3.668  18.852  0.00  0.00    +0.000 N 
ATOM     30  N   UNL     1       7.170   4.390  17.305  0.00  0.00    +0.000 NA
ATOM     31  O   UNL     1       7.759   5.604  16.996  0.00  0.00    +0.000 OA
ATOM     32  H   UNL     1       5.872   3.105  19.620  0.00  0.00    +0.000 HD
ENDBRANCH  22  29
ENDBRANCH   1  22
TORSDOF 5
ENDMDL
