MODEL 1
REMARK VINA RESULT:      -7.9      0.000      0.000
REMARK  Name = 
REMARK  5 active torsions:
REMARK  status: ('A' for Active; 'I' for Inactive)
REMARK    1  A    between atoms: C_1  and  C_2
REMARK    2  A    between atoms: C_10  and  C_11
REMARK    3  A    between atoms: C_17  and  C_18
REMARK    4  A    between atoms: C_18  and  C_19
REMARK    5  A    between atoms: C_29  and  O_30
REMARK                            x       y       z     vdW  Elec       q    Type
REMARK                         _______ _______ _______ _____ _____    ______ ____
ROOT
ATOM      1  C   UNL     1       2.524   9.715  17.537  0.00  0.00    +0.000 C 
ATOM      2  C   UNL     1       2.921   8.279  17.708  0.00  0.00    +0.000 A 
ATOM      3  N   UNL     1       3.976   7.949  16.935  0.00  0.00    +0.000 NA
ATOM      4  C   UNL     1       4.429   6.695  16.892  0.00  0.00    +0.000 A 
ATOM      5  C   UNL     1       5.527   6.457  16.087  0.00  0.00    +0.000 A 
ATOM      6  C   UNL     1       6.081   5.193  15.922  0.00  0.00    +0.000 A 
ATOM      7  C   UNL     1       5.474   4.121  16.554  0.00  0.00    +0.000 A 
ATOM      8  C   UNL     1       4.350   4.336  17.358  0.00  0.00    +0.000 A 
ATOM      9  C   UNL     1       3.827   5.645  17.610  0.00  0.00    +0.000 A 
ATOM     10  C   UNL     1       2.752   5.979  18.524  0.00  0.00    +0.000 A 
ATOM     11  C   UNL     1       2.292   7.356  18.556  0.00  0.00    +0.000 A 
ENDROOT
BRANCH  10  12
ATOM     12  C   UNL     1       2.193   4.908  19.456  0.00  0.00    +0.000 A 
ATOM     13  C   UNL     1       1.263   3.951  18.997  0.00  0.00    +0.000 A 
ATOM     14  C   UNL     1       0.720   2.965  19.836  0.00  0.00    +0.000 A 
ATOM     15  C   UNL     1       1.188   2.816  21.133  0.00  0.00    +0.000 A 
ATOM     16  C   UNL     1       2.136   3.706  21.611  0.00  0.00    +0.000 A 
ATOM     17  C   UNL     1       2.564   4.772  20.808  0.00  0.00    +0.000 A 
ENDBRANCH  10  12
BRANCH  11  18
ATOM     18  C   UNL     1       1.117   7.702  19.453  0.00  0.00    +0.000 C 
BRANCH  18  19
ATOM     19  C   UNL     1       1.192   8.476  20.746  0.00  0.00    +0.000 C 
ATOM     20  O   UNL     1       1.619   7.969  21.782  0.00  0.00    +0.000 OA
ATOM     21  N   UNL     1       0.617   9.743  20.730  0.00  0.00    +0.000 N 
ATOM     22  C   UNL     1       0.320  10.421  21.974  0.00  0.00    +0.000 C 
ATOM     23  C   UNL     1      -0.059  11.835  21.561  0.00  0.00    +0.000 C 
ATOM     24  C   UNL     1      -1.513  11.971  21.052  0.00  0.00    +0.000 C 
ATOM     25  C   UNL     1      -1.341  12.141  19.530  0.00  0.00    +0.000 C 
ATOM     26  C   UNL     1      -0.104  13.033  19.470  0.00  0.00    +0.000 C 
ATOM     27  C   UNL     1       0.759  12.066  20.272  0.00  0.00    +0.000 C 
ATOM     28  C   UNL     1       0.594  10.678  19.598  0.00  0.00    +0.000 C 
ATOM     29  C   UNL     1      -0.775  10.865  18.874  0.00  0.00    +0.000 C 
BRANCH  29  30
ATOM     30  O   UNL     1      -1.660   9.768  18.924  0.00  0.00    +0.000 OA
ATOM     31  H   UNL     1      -1.341   9.118  18.273  0.00  0.00    +0.000 HD
ENDBRANCH  29  30
ENDBRANCH  18  19
ENDBRANCH  11  18
TORSDOF 4
ENDMDL
MODEL 2
REMARK VINA RESULT:      -7.4      2.288      7.088
REMARK  Name = 
REMARK  5 active torsions:
REMARK  status: ('A' for Active; 'I' for Inactive)
REMARK    1  A    between atoms: C_1  and  C_2
REMARK    2  A    between atoms: C_10  and  C_11
REMARK    3  A    between atoms: C_17  and  C_18
REMARK    4  A    between atoms: C_18  and  C_19
REMARK    5  A    between atoms: C_29  and  O_30
REMARK                            x       y       z     vdW  Elec       q    Type
REMARK                         _______ _______ _______ _____ _____    ______ ____
ROOT
ATOM      1  C   UNL     1       3.166   8.995  17.163  0.00  0.00    +0.000 C 
ATOM      2  C   UNL     1       2.420   8.442  18.340  0.00  0.00    +0.000 A 
ATOM      3  N   UNL     1       1.717   9.393  18.988  0.00  0.00    +0.000 NA
ATOM      4  C   UNL     1       1.048   9.109  20.106  0.00  0.00    +0.000 A 
ATOM      5  C   UNL     1       0.341  10.143  20.689  0.00  0.00    +0.000 A 
ATOM      6  C   UNL     1      -0.371   9.997  21.874  0.00  0.00    +0.000 A 
ATOM      7  C   UNL     1      -0.328   8.774  22.521  0.00  0.00    +0.000 A 
ATOM      8  C   UNL     1       0.397   7.718  21.959  0.00  0.00    +0.000 A 
ATOM      9  C   UNL     1       1.058   7.830  20.693  0.00  0.00    +0.000 A 
ATOM     10  C   UNL     1       1.723   6.760  19.975  0.00  0.00    +0.000 A 
ATOM     11  C   UNL     1       2.431   7.101  18.753  0.00  0.00    +0.000 A 
ENDROOT
BRANCH  10  12
ATOM     12  C   UNL     1       1.604   5.324  20.478  0.00  0.00    +0.000 A 
ATOM     13  C   UNL     1       0.714   4.409  19.876  0.00  0.00    +0.000 A 
ATOM     14  C   UNL     1       0.573   3.087  20.328  0.00  0.00    +0.000 A 
ATOM     15  C   UNL     1       1.415   2.592  21.312  0.00  0.00    +0.000 A 
ATOM     16  C   UNL     1       2.337   3.444  21.898  0.00  0.00    +0.000 A 
ATOM     17  C   UNL     1       2.369   4.798  21.536  0.00  0.00    +0.000 A 
ENDBRANCH  10  12
BRANCH  11  18
ATOM     18  C   UNL     1       3.193   6.004  18.033  0.00  0.00    +0.000 C 
BRANCH  18  19
ATOM     19  C   UNL     1       4.530   5.440  18.447  0.00  0.00    +0.000 C 
ATOM     20  O   UNL     1       4.884   5.408  19.624  0.00  0.00    +0.000 OA
ATOM     21  N   UNL     1       5.391   5.095  17.411  0.00  0.00    +0.000 N 
ATOM     22  C   UNL     1       6.798   4.881  17.677  0.00  0.00    +0.000 C 
ATOM     23  C   UNL     1       7.350   4.297  16.385  0.00  0.00    +0.000 C 
ATOM     24  C   UNL     1       7.639   5.354  15.293  0.00  0.00    +0.000 C 
ATOM     25  C   UNL     1       6.498   5.137  14.280  0.00  0.00    +0.000 C 
ATOM     26  C   UNL     1       6.382   3.615  14.286  0.00  0.00    +0.000 C 
ATOM     27  C   UNL     1       6.146   3.536  15.789  0.00  0.00    +0.000 C 
ATOM     28  C   UNL     1       5.010   4.545  16.103  0.00  0.00    +0.000 C 
ATOM     29  C   UNL     1       5.126   5.507  14.881  0.00  0.00    +0.000 C 
BRANCH  29  30
ATOM     30  O   UNL     1       4.985   6.882  15.155  0.00  0.00    +0.000 OA
ATOM     31  H   UNL     1       5.828   7.307  14.914  0.00  0.00    +0.000 HD
ENDBRANCH  29  30
ENDBRANCH  18  19
ENDBRANCH  11  18
TORSDOF 4
ENDMDL
MODEL 3
REMARK VINA RESULT:      -7.3      1.889      4.028
REMARK  Name = 
REMARK  5 active torsions:
REMARK  status: ('A' for Active; 'I' for Inactive)
REMARK    1  A    between atoms: C_1  and  C_2
REMARK    2  A    between atoms: C_10  and  C_11
REMARK    3  A    between atoms: C_17  and  C_18
REMARK    4  A    between atoms: C_18  and  C_19
REMARK    5  A    between atoms: C_29  and  O_30
REMARK                            x       y       z     vdW  Elec       q    Type
REMARK                         _______ _______ _______ _____ _____    ______ ____
ROOT
ATOM      1  C   UNL     1       3.636   7.638  16.529  0.00  0.00    +0.000 C 
ATOM      2  C   UNL     1       3.129   7.162  17.858  0.00  0.00    +0.000 A 
ATOM      3  N   UNL     1       3.471   5.879  18.101  0.00  0.00    +0.000 NA
ATOM      4  C   UNL     1       3.047   5.254  19.200  0.00  0.00    +0.000 A 
ATOM      5  C   UNL     1       3.464   3.948  19.373  0.00  0.00    +0.000 A 
ATOM      6  C   UNL     1       3.071   3.167  20.453  0.00  0.00    +0.000 A 
ATOM      7  C   UNL     1       2.184   3.708  21.368  0.00  0.00    +0.000 A 
ATOM      8  C   UNL     1       1.733   5.022  21.202  0.00  0.00    +0.000 A 
ATOM      9  C   UNL     1       2.203   5.866  20.145  0.00  0.00    +0.000 A 
ATOM     10  C   UNL     1       1.894   7.271  19.967  0.00  0.00    +0.000 A 
ATOM     11  C   UNL     1       2.382   7.927  18.766  0.00  0.00    +0.000 A 
ENDROOT
BRANCH  10  12
ATOM     12  C   UNL     1       1.137   8.023  21.058  0.00  0.00    +0.000 A 
ATOM     13  C   UNL     1       1.820   8.759  22.050  0.00  0.00    +0.000 A 
ATOM     14  C   UNL     1       1.150   9.446  23.074  0.00  0.00    +0.000 A 
ATOM     15  C   UNL     1      -0.234   9.535  23.066  0.00  0.00    +0.000 A 
ATOM     16  C   UNL     1      -0.944   8.866  22.083  0.00  0.00    +0.000 A 
ATOM     17  C   UNL     1      -0.267   8.067  21.151  0.00  0.00    +0.000 A 
ENDBRANCH  10  12
BRANCH  11  18
ATOM     18  C   UNL     1       2.001   9.377  18.531  0.00  0.00    +0.000 C 
BRANCH  18  19
ATOM     19  C   UNL     1       0.608   9.892  18.269  0.00  0.00    +0.000 C 
ATOM     20  O   UNL     1      -0.163   9.317  17.502  0.00  0.00    +0.000 OA
ATOM     21  N   UNL     1       0.301  11.127  18.829  0.00  0.00    +0.000 N 
ATOM     22  C   UNL     1      -0.853  11.869  18.365  0.00  0.00    +0.000 C 
ATOM     23  C   UNL     1      -0.997  13.016  19.353  0.00  0.00    +0.000 C 
ATOM     24  C   UNL     1      -0.036  14.197  19.087  0.00  0.00    +0.000 C 
ATOM     25  C   UNL     1       1.011  14.062  20.211  0.00  0.00    +0.000 C 
ATOM     26  C   UNL     1       0.130  13.650  21.387  0.00  0.00    +0.000 C 
ATOM     27  C   UNL     1      -0.437  12.432  20.668  0.00  0.00    +0.000 C 
ATOM     28  C   UNL     1       0.783  11.649  20.115  0.00  0.00    +0.000 C 
ATOM     29  C   UNL     1       1.854  12.781  20.052  0.00  0.00    +0.000 C 
BRANCH  29  30
ATOM     30  O   UNL     1       2.683  12.791  18.912  0.00  0.00    +0.000 OA
ATOM     31  H   UNL     1       2.422  12.028  18.366  0.00  0.00    +0.000 HD
ENDBRANCH  29  30
ENDBRANCH  18  19
ENDBRANCH  11  18
TORSDOF 4
ENDMDL
MODEL 4
REMARK VINA RESULT:      -7.3      5.119      8.737
REMARK  Name = 
REMARK  5 active torsions:
REMARK  status: ('A' for Active; 'I' for Inactive)
REMARK    1  A    between atoms: C_1  and  C_2
REMARK    2  A    between atoms: C_10  and  C_11
REMARK    3  A    between atoms: C_17  and  C_18
REMARK    4  A    between atoms: C_18  and  C_19
REMARK    5  A    between atoms: C_29  and  O_30
REMARK                            x       y       z     vdW  Elec       q    Type
REMARK                         _______ _______ _______ _____ _____    ______ ____
ROOT
ATOM      1  C   UNL     1      -5.274  11.155  17.441  0.00  0.00    +0.000 C 
ATOM      2  C   UNL     1      -4.007  11.388  18.209  0.00  0.00    +0.000 A 
ATOM      3  N   UNL     1      -2.971  10.688  17.704  0.00  0.00    +0.000 NA
ATOM      4  C   UNL     1      -1.777  10.706  18.298  0.00  0.00    +0.000 A 
ATOM      5  C   UNL     1      -0.771   9.973  17.696  0.00  0.00    +0.000 A 
ATOM      6  C   UNL     1       0.510   9.875  18.225  0.00  0.00    +0.000 A 
ATOM      7  C   UNL     1       0.774  10.501  19.431  0.00  0.00    +0.000 A 
ATOM      8  C   UNL     1      -0.235  11.232  20.068  0.00  0.00    +0.000 A 
ATOM      9  C   UNL     1      -1.531  11.416  19.487  0.00  0.00    +0.000 A 
ATOM     10  C   UNL     1      -2.591  12.257  20.006  0.00  0.00    +0.000 A 
ATOM     11  C   UNL     1      -3.876  12.224  19.328  0.00  0.00    +0.000 A 
ENDROOT
BRANCH  10  12
ATOM     12  C   UNL     1      -2.313  13.184  21.186  0.00  0.00    +0.000 A 
ATOM     13  C   UNL     1      -2.384  12.719  22.516  0.00  0.00    +0.000 A 
ATOM     14  C   UNL     1      -2.149  13.553  23.620  0.00  0.00    +0.000 A 
ATOM     15  C   UNL     1      -1.703  14.852  23.431  0.00  0.00    +0.000 A 
ATOM     16  C   UNL     1      -1.573  15.337  22.140  0.00  0.00    +0.000 A 
ATOM     17  C   UNL     1      -1.948  14.538  21.051  0.00  0.00    +0.000 A 
ENDBRANCH  10  12
BRANCH  11  18
ATOM     18  C   UNL     1      -5.017  13.042  19.907  0.00  0.00    +0.000 C 
BRANCH  18  19
ATOM     19  C   UNL     1      -5.915  12.623  21.044  0.00  0.00    +0.000 C 
ATOM     20  O   UNL     1      -6.424  11.504  21.091  0.00  0.00    +0.000 OA
ATOM     21  N   UNL     1      -6.246  13.620  21.956  0.00  0.00    +0.000 N 
ATOM     22  C   UNL     1      -7.356  13.431  22.866  0.00  0.00    +0.000 C 
ATOM     23  C   UNL     1      -7.256  14.594  23.841  0.00  0.00    +0.000 C 
ATOM     24  C   UNL     1      -7.832  15.921  23.295  0.00  0.00    +0.000 C 
ATOM     25  C   UNL     1      -6.572  16.756  22.995  0.00  0.00    +0.000 C 
ATOM     26  C   UNL     1      -5.684  16.388  24.181  0.00  0.00    +0.000 C 
ATOM     27  C   UNL     1      -5.743  14.893  23.892  0.00  0.00    +0.000 C 
ATOM     28  C   UNL     1      -5.386  14.727  22.392  0.00  0.00    +0.000 C 
ATOM     29  C   UNL     1      -5.743  16.144  21.847  0.00  0.00    +0.000 C 
BRANCH  29  30
ATOM     30  O   UNL     1      -6.396  16.186  20.599  0.00  0.00    +0.000 OA
ATOM     31  H   UNL     1      -7.160  15.584  20.659  0.00  0.00    +0.000 HD
ENDBRANCH  29  30
ENDBRANCH  18  19
ENDBRANCH  11  18
TORSDOF 4
ENDMDL
MODEL 5
REMARK VINA RESULT:      -7.3      4.794      8.499
REMARK  Name = 
REMARK  5 active torsions:
REMARK  status: ('A' for Active; 'I' for Inactive)
REMARK    1  A    between atoms: C_1  and  C_2
REMARK    2  A    between atoms: C_10  and  C_11
REMARK    3  A    between atoms: C_17  and  C_18
REMARK    4  A    between atoms: C_18  and  C_19
REMARK    5  A    between atoms: C_29  and  O_30
REMARK                            x       y       z     vdW  Elec       q    Type
REMARK                         _______ _______ _______ _____ _____    ______ ____
ROOT
ATOM      1  C   UNL     1      -2.084  11.506  17.700  0.00  0.00    +0.000 C 
ATOM      2  C   UNL     1      -1.700  11.406  19.146  0.00  0.00    +0.000 A 
ATOM      3  N   UNL     1      -0.736  10.484  19.352  0.00  0.00    +0.000 NA
ATOM      4  C   UNL     1      -0.315  10.198  20.584  0.00  0.00    +0.000 A 
ATOM      5  C   UNL     1       0.689   9.254  20.695  0.00  0.00    +0.000 A 
ATOM      6  C   UNL     1       1.199   8.834  21.918  0.00  0.00    +0.000 A 
ATOM      7  C   UNL     1       0.640   9.350  23.075  0.00  0.00    +0.000 A 
ATOM      8  C   UNL     1      -0.391  10.292  22.987  0.00  0.00    +0.000 A 
ATOM      9  C   UNL     1      -0.860  10.800  21.734  0.00  0.00    +0.000 A 
ATOM     10  C   UNL     1      -1.828  11.863  21.547  0.00  0.00    +0.000 A 
ATOM     11  C   UNL     1      -2.256  12.160  20.190  0.00  0.00    +0.000 A 
ENDROOT
BRANCH  10  12
ATOM     12  C   UNL     1      -2.309  12.668  22.750  0.00  0.00    +0.000 A 
ATOM     13  C   UNL     1      -1.685  13.880  23.117  0.00  0.00    +0.000 A 
ATOM     14  C   UNL     1      -2.096  14.633  24.229  0.00  0.00    +0.000 A 
ATOM     15  C   UNL     1      -3.233  14.270  24.936  0.00  0.00    +0.000 A 
ATOM     16  C   UNL     1      -3.904  13.112  24.580  0.00  0.00    +0.000 A 
ATOM     17  C   UNL     1      -3.399  12.295  23.559  0.00  0.00    +0.000 A 
ENDBRANCH  10  12
BRANCH  11  18
ATOM     18  C   UNL     1      -3.325  13.219  19.988  0.00  0.00    +0.000 C 
BRANCH  18  19
ATOM     19  C   UNL     1      -4.809  13.020  20.167  0.00  0.00    +0.000 C 
ATOM     20  O   UNL     1      -5.384  12.015  19.751  0.00  0.00    +0.000 OA
ATOM     21  N   UNL     1      -5.507  14.099  20.700  0.00  0.00    +0.000 N 
ATOM     22  C   UNL     1      -6.950  14.155  20.592  0.00  0.00    +0.000 C 
ATOM     23  C   UNL     1      -7.357  15.321  21.478  0.00  0.00    +0.000 C 
ATOM     24  C   UNL     1      -7.178  16.706  20.814  0.00  0.00    +0.000 C 
ATOM     25  C   UNL     1      -5.941  17.284  21.530  0.00  0.00    +0.000 C 
ATOM     26  C   UNL     1      -6.181  16.812  22.961  0.00  0.00    +0.000 C 
ATOM     27  C   UNL     1      -6.267  15.342  22.571  0.00  0.00    +0.000 C 
ATOM     28  C   UNL     1      -5.014  15.049  21.705  0.00  0.00    +0.000 C 
ATOM     29  C   UNL     1      -4.666  16.483  21.199  0.00  0.00    +0.000 C 
BRANCH  29  30
ATOM     30  O   UNL     1      -4.270  16.588  19.850  0.00  0.00    +0.000 OA
ATOM     31  H   UNL     1      -4.518  17.481  19.552  0.00  0.00    +0.000 HD
ENDBRANCH  29  30
ENDBRANCH  18  19
ENDBRANCH  11  18
TORSDOF 4
ENDMDL
MODEL 6
REMARK VINA RESULT:      -7.2      3.640      6.531
REMARK  Name = 
REMARK  5 active torsions:
REMARK  status: ('A' for Active; 'I' for Inactive)
REMARK    1  A    between atoms: C_1  and  C_2
REMARK    2  A    between atoms: C_10  and  C_11
REMARK    3  A    between atoms: C_17  and  C_18
REMARK    4  A    between atoms: C_18  and  C_19
REMARK    5  A    between atoms: C_29  and  O_30
REMARK                            x       y       z     vdW  Elec       q    Type
REMARK                         _______ _______ _______ _____ _____    ______ ____
ROOT
ATOM      1  C   UNL     1      -3.069  13.344  21.138  0.00  0.00    +0.000 C 
ATOM      2  C   UNL     1      -2.589  12.393  20.083  0.00  0.00    +0.000 A 
ATOM      3  N   UNL     1      -3.418  12.355  19.020  0.00  0.00    +0.000 NA
ATOM      4  C   UNL     1      -3.199  11.511  18.010  0.00  0.00    +0.000 A 
ATOM      5  C   UNL     1      -4.092  11.557  16.955  0.00  0.00    +0.000 A 
ATOM      6  C   UNL     1      -4.004  10.713  15.855  0.00  0.00    +0.000 A 
ATOM      7  C   UNL     1      -3.008   9.752  15.841  0.00  0.00    +0.000 A 
ATOM      8  C   UNL     1      -2.105   9.674  16.907  0.00  0.00    +0.000 A 
ATOM      9  C   UNL     1      -2.129  10.598  18.001  0.00  0.00    +0.000 A 
ATOM     10  C   UNL     1      -1.163  10.677  19.079  0.00  0.00    +0.000 A 
ATOM     11  C   UNL     1      -1.423  11.615  20.157  0.00  0.00    +0.000 A 
ENDROOT
BRANCH  10  12
ATOM     12  C   UNL     1       0.109   9.835  19.018  0.00  0.00    +0.000 A 
ATOM     13  C   UNL     1       0.461   8.963  20.070  0.00  0.00    +0.000 A 
ATOM     14  C   UNL     1       1.633   8.190  20.047  0.00  0.00    +0.000 A 
ATOM     15  C   UNL     1       2.428   8.160  18.912  0.00  0.00    +0.000 A 
ATOM     16  C   UNL     1       2.093   8.966  17.836  0.00  0.00    +0.000 A 
ATOM     17  C   UNL     1       1.001   9.839  17.928  0.00  0.00    +0.000 A 
ENDBRANCH  10  12
BRANCH  11  18
ATOM     18  C   UNL     1      -0.459  11.653  21.329  0.00  0.00    +0.000 C 
BRANCH  18  19
ATOM     19  C   UNL     1       0.063  12.897  22.003  0.00  0.00    +0.000 C 
ATOM     20  O   UNL     1      -0.357  13.266  23.099  0.00  0.00    +0.000 OA
ATOM     21  N   UNL     1       0.936  13.675  21.251  0.00  0.00    +0.000 N 
ATOM     22  C   UNL     1       1.218  15.039  21.647  0.00  0.00    +0.000 C 
ATOM     23  C   UNL     1       2.368  15.470  20.750  0.00  0.00    +0.000 C 
ATOM     24  C   UNL     1       1.929  15.894  19.329  0.00  0.00    +0.000 C 
ATOM     25  C   UNL     1       2.387  14.713  18.451  0.00  0.00    +0.000 C 
ATOM     26  C   UNL     1       3.728  14.369  19.093  0.00  0.00    +0.000 C 
ATOM     27  C   UNL     1       3.126  14.154  20.477  0.00  0.00    +0.000 C 
ATOM     28  C   UNL     1       1.927  13.189  20.282  0.00  0.00    +0.000 C 
ATOM     29  C   UNL     1       1.603  13.425  18.774  0.00  0.00    +0.000 C 
BRANCH  29  30
ATOM     30  O   UNL     1       0.237  13.499  18.435  0.00  0.00    +0.000 OA
ATOM     31  H   UNL     1      -0.174  12.666  18.732  0.00  0.00    +0.000 HD
ENDBRANCH  29  30
ENDBRANCH  18  19
ENDBRANCH  11  18
TORSDOF 4
ENDMDL
MODEL 7
REMARK VINA RESULT:      -7.2      6.313      8.378
REMARK  Name = 
REMARK  5 active torsions:
REMARK  status: ('A' for Active; 'I' for Inactive)
REMARK    1  A    between atoms: C_1  and  C_2
REMARK    2  A    between atoms: C_10  and  C_11
REMARK    3  A    between atoms: C_17  and  C_18
REMARK    4  A    between atoms: C_18  and  C_19
REMARK    5  A    between atoms: C_29  and  O_30
REMARK                            x       y       z     vdW  Elec       q    Type
REMARK                         _______ _______ _______ _____ _____    ______ ____
ROOT
ATOM      1  C   UNL     1      -6.905  12.971  18.619  0.00  0.00    +0.000 C 
ATOM      2  C   UNL     1      -5.495  12.487  18.452  0.00  0.00    +0.000 A 
ATOM      3  N   UNL     1      -5.345  11.737  17.340  0.00  0.00    +0.000 NA
ATOM      4  C   UNL     1      -4.180  11.154  17.060  0.00  0.00    +0.000 A 
ATOM      5  C   UNL     1      -4.116  10.421  15.889  0.00  0.00    +0.000 A 
ATOM      6  C   UNL     1      -2.976   9.733  15.491  0.00  0.00    +0.000 A 
ATOM      7  C   UNL     1      -1.874   9.744  16.329  0.00  0.00    +0.000 A 
ATOM      8  C   UNL     1      -1.923  10.463  17.528  0.00  0.00    +0.000 A 
ATOM      9  C   UNL     1      -3.058  11.250  17.904  0.00  0.00    +0.000 A 
ATOM     10  C   UNL     1      -3.152  12.125  19.057  0.00  0.00    +0.000 A 
ATOM     11  C   UNL     1      -4.433  12.756  19.327  0.00  0.00    +0.000 A 
ENDROOT
BRANCH  10  12
ATOM     12  C   UNL     1      -1.910  12.405  19.897  0.00  0.00    +0.000 A 
ATOM     13  C   UNL     1      -1.103  13.538  19.657  0.00  0.00    +0.000 A 
ATOM     14  C   UNL     1       0.054  13.811  20.404  0.00  0.00    +0.000 A 
ATOM     15  C   UNL     1       0.373  13.033  21.507  0.00  0.00    +0.000 A 
ATOM     16  C   UNL     1      -0.419  11.937  21.808  0.00  0.00    +0.000 A 
ATOM     17  C   UNL     1      -1.488  11.594  20.969  0.00  0.00    +0.000 A 
ENDBRANCH  10  12
BRANCH  11  18
ATOM     18  C   UNL     1      -4.564  13.613  20.573  0.00  0.00    +0.000 C 
BRANCH  18  19
ATOM     19  C   UNL     1      -4.601  13.107  21.993  0.00  0.00    +0.000 C 
ATOM     20  O   UNL     1      -5.279  12.132  22.317  0.00  0.00    +0.000 OA
ATOM     21  N   UNL     1      -3.942  13.889  22.935  0.00  0.00    +0.000 N 
ATOM     22  C   UNL     1      -4.201  13.698  24.347  0.00  0.00    +0.000 C 
ATOM     23  C   UNL     1      -3.146  14.539  25.049  0.00  0.00    +0.000 C 
ATOM     24  C   UNL     1      -3.486  16.046  25.113  0.00  0.00    +0.000 C 
ATOM     25  C   UNL     1      -2.530  16.669  24.077  0.00  0.00    +0.000 C 
ATOM     26  C   UNL     1      -1.263  15.851  24.315  0.00  0.00    +0.000 C 
ATOM     27  C   UNL     1      -1.955  14.516  24.068  0.00  0.00    +0.000 C 
ATOM     28  C   UNL     1      -2.713  14.664  22.722  0.00  0.00    +0.000 C 
ATOM     29  C   UNL     1      -2.869  16.214  22.643  0.00  0.00    +0.000 C 
BRANCH  29  30
ATOM     30  O   UNL     1      -4.113  16.691  22.181  0.00  0.00    +0.000 OA
ATOM     31  H   UNL     1      -4.667  16.844  22.968  0.00  0.00    +0.000 HD
ENDBRANCH  29  30
ENDBRANCH  18  19
ENDBRANCH  11  18
TORSDOF 4
ENDMDL
MODEL 8
REMARK VINA RESULT:      -7.1      5.999      8.855
REMARK  Name = 
REMARK  5 active torsions:
REMARK  status: ('A' for Active; 'I' for Inactive)
REMARK    1  A    between atoms: C_1  and  C_2
REMARK    2  A    between atoms: C_10  and  C_11
REMARK    3  A    between atoms: C_17  and  C_18
REMARK    4  A    between atoms: C_18  and  C_19
REMARK    5  A    between atoms: C_29  and  O_30
REMARK                            x       y       z     vdW  Elec       q    Type
REMARK                         _______ _______ _______ _____ _____    ______ ____
ROOT
ATOM      1  C   UNL     1      -2.286  14.466  21.935  0.00  0.00    +0.000 C 
ATOM      2  C   UNL     1      -3.184  13.596  21.106  0.00  0.00    +0.000 A 
ATOM      3  N   UNL     1      -4.439  13.546  21.598  0.00  0.00    +0.000 NA
ATOM      4  C   UNL     1      -5.363  12.764  21.040  0.00  0.00    +0.000 A 
ATOM      5  C   UNL     1      -6.626  12.794  21.602  0.00  0.00    +0.000 A 
ATOM      6  C   UNL     1      -7.674  12.006  21.144  0.00  0.00    +0.000 A 
ATOM      7  C   UNL     1      -7.427  11.116  20.112  0.00  0.00    +0.000 A 
ATOM      8  C   UNL     1      -6.151  11.055  19.542  0.00  0.00    +0.000 A 
ATOM      9  C   UNL     1      -5.089  11.927  19.943  0.00  0.00    +0.000 A 
ATOM     10  C   UNL     1      -3.780  12.025  19.327  0.00  0.00    +0.000 A 
ATOM     11  C   UNL     1      -2.800  12.897  19.952  0.00  0.00    +0.000 A 
ENDROOT
BRANCH  10  12
ATOM     12  C   UNL     1      -3.497  11.276  18.028  0.00  0.00    +0.000 A 
ATOM     13  C   UNL     1      -4.179  11.596  16.835  0.00  0.00    +0.000 A 
ATOM     14  C   UNL     1      -3.950  10.913  15.630  0.00  0.00    +0.000 A 
ATOM     15  C   UNL     1      -2.934   9.974  15.542  0.00  0.00    +0.000 A 
ATOM     16  C   UNL     1      -2.207   9.662  16.679  0.00  0.00    +0.000 A 
ATOM     17  C   UNL     1      -2.542  10.249  17.907  0.00  0.00    +0.000 A 
ENDBRANCH  10  12
BRANCH  11  18
ATOM     18  C   UNL     1      -1.403  12.950  19.361  0.00  0.00    +0.000 C 
BRANCH  18  19
ATOM     19  C   UNL     1      -0.136  12.507  20.050  0.00  0.00    +0.000 C 
ATOM     20  O   UNL     1      -0.124  11.571  20.848  0.00  0.00    +0.000 OA
ATOM     21  N   UNL     1       0.982  13.307  19.840  0.00  0.00    +0.000 N 
ATOM     22  C   UNL     1       2.135  13.187  20.708  0.00  0.00    +0.000 C 
ATOM     23  C   UNL     1       3.213  14.022  20.034  0.00  0.00    +0.000 C 
ATOM     24  C   UNL     1       3.082  15.541  20.292  0.00  0.00    +0.000 C 
ATOM     25  C   UNL     1       2.565  16.085  18.946  0.00  0.00    +0.000 C 
ATOM     26  C   UNL     1       3.363  15.237  17.958  0.00  0.00    +0.000 C 
ATOM     27  C   UNL     1       2.866  13.917  18.534  0.00  0.00    +0.000 C 
ATOM     28  C   UNL     1       1.321  14.031  18.607  0.00  0.00    +0.000 C 
ATOM     29  C   UNL     1       1.142  15.580  18.635  0.00  0.00    +0.000 C 
BRANCH  29  30
ATOM     30  O   UNL     1       0.164  16.078  19.520  0.00  0.00    +0.000 OA
ATOM     31  H   UNL     1      -0.558  15.423  19.541  0.00  0.00    +0.000 HD
ENDBRANCH  29  30
ENDBRANCH  18  19
ENDBRANCH  11  18
TORSDOF 4
ENDMDL
MODEL 9
REMARK VINA RESULT:      -7.0      6.157      9.094
REMARK  Name = 
REMARK  5 active torsions:
REMARK  status: ('A' for Active; 'I' for Inactive)
REMARK    1  A    between atoms: C_1  and  C_2
REMARK    2  A    between atoms: C_10  and  C_11
REMARK    3  A    between atoms: C_17  and  C_18
REMARK    4  A    between atoms: C_18  and  C_19
REMARK    5  A    between atoms: C_29  and  O_30
REMARK                            x       y       z     vdW  Elec       q    Type
REMARK                         _______ _______ _______ _____ _____    ______ ____
ROOT
ATOM      1  C   UNL     1      -0.085  11.791  20.831  0.00  0.00    +0.000 C 
ATOM      2  C   UNL     1      -1.369  11.730  20.060  0.00  0.00    +0.000 A 
ATOM      3  N   UNL     1      -1.233  11.055  18.900  0.00  0.00    +0.000 NA
ATOM      4  C   UNL     1      -2.248  10.959  18.040  0.00  0.00    +0.000 A 
ATOM      5  C   UNL     1      -2.020  10.230  16.888  0.00  0.00    +0.000 A 
ATOM      6  C   UNL     1      -2.976  10.077  15.890  0.00  0.00    +0.000 A 
ATOM      7  C   UNL     1      -4.191  10.725  16.039  0.00  0.00    +0.000 A 
ATOM      8  C   UNL     1      -4.436  11.483  17.189  0.00  0.00    +0.000 A 
ATOM      9  C   UNL     1      -3.495  11.572  18.264  0.00  0.00    +0.000 A 
ATOM     10  C   UNL     1      -3.709  12.224  19.541  0.00  0.00    +0.000 A 
ATOM     11  C   UNL     1      -2.587  12.300  20.461  0.00  0.00    +0.000 A 
ENDROOT
BRANCH  10  12
ATOM     12  C   UNL     1      -5.099  12.742  19.902  0.00  0.00    +0.000 A 
ATOM     13  C   UNL     1      -5.607  13.930  19.335  0.00  0.00    +0.000 A 
ATOM     14  C   UNL     1      -6.875  14.438  19.661  0.00  0.00    +0.000 A 
ATOM     15  C   UNL     1      -7.735  13.705  20.464  0.00  0.00    +0.000 A 
ATOM     16  C   UNL     1      -7.294  12.508  21.005  0.00  0.00    +0.000 A 
ATOM     17  C   UNL     1      -5.976  12.084  20.786  0.00  0.00    +0.000 A 
ENDBRANCH  10  12
BRANCH  11  18
ATOM     18  C   UNL     1      -2.778  13.046  21.769  0.00  0.00    +0.000 C 
BRANCH  18  19
ATOM     19  C   UNL     1      -2.288  14.441  22.069  0.00  0.00    +0.000 C 
ATOM     20  O   UNL     1      -1.104  14.753  21.949  0.00  0.00    +0.000 OA
ATOM     21  N   UNL     1      -3.223  15.308  22.623  0.00  0.00    +0.000 N 
ATOM     22  C   UNL     1      -2.789  16.531  23.265  0.00  0.00    +0.000 C 
ATOM     23  C   UNL     1      -4.071  17.308  23.521  0.00  0.00    +0.000 C 
ATOM     24  C   UNL     1      -4.849  16.839  24.772  0.00  0.00    +0.000 C 
ATOM     25  C   UNL     1      -6.053  16.083  24.177  0.00  0.00    +0.000 C 
ATOM     26  C   UNL     1      -6.394  16.966  22.980  0.00  0.00    +0.000 C 
ATOM     27  C   UNL     1      -5.000  16.859  22.374  0.00  0.00    +0.000 C 
ATOM     28  C   UNL     1      -4.662  15.345  22.331  0.00  0.00    +0.000 C 
ATOM     29  C   UNL     1      -5.614  14.801  23.441  0.00  0.00    +0.000 C 
BRANCH  29  30
ATOM     30  O   UNL     1      -5.076  13.818  24.296  0.00  0.00    +0.000 OA
ATOM     31  H   UNL     1      -5.379  14.031  25.197  0.00  0.00    +0.000 HD
ENDBRANCH  29  30
ENDBRANCH  18  19
ENDBRANCH  11  18
TORSDOF 4
ENDMDL
