MODEL 1
REMARK VINA RESULT:      -7.9      0.000      0.000
REMARK  Name = 
REMARK  8 active torsions:
REMARK  status: ('A' for Active; 'I' for Inactive)
REMARK    1  A    between atoms: C_2  and  C_20
REMARK    2  A    between atoms: N_3  and  C_4
REMARK    3  A    between atoms: C_7  and  O_8
REMARK    4  A    between atoms: O_8  and  C_9
REMARK    5  A    between atoms: C_9  and  C_10
REMARK    6  A    between atoms: C_13  and  C_14
REMARK    7  A    between atoms: N_24  and  C_25
REMARK    8  A    between atoms: C_25  and  C_26
REMARK                            x       y       z     vdW  Elec       q    Type
REMARK                         _______ _______ _______ _____ _____    ______ ____
ROOT
ATOM      1  C   UNL     1       3.014   6.363  18.719  0.00  0.00    +0.000 A 
ATOM      2  C   UNL     1       2.785   7.603  18.123  0.00  0.00    +0.000 A 
ATOM      3  C   UNL     1       2.019   8.583  18.756  0.00  0.00    +0.000 A 
ATOM      4  C   UNL     1       1.451   8.323  20.000  0.00  0.00    +0.000 A 
ATOM      5  C   UNL     1       1.644   7.069  20.588  0.00  0.00    +0.000 A 
ATOM      6  C   UNL     1       2.404   6.082  19.943  0.00  0.00    +0.000 A 
ENDROOT
BRANCH   1   9
ATOM      7  O   UNL     1       5.871   5.973  19.148  0.00  0.00    +0.000 OA
ATOM      8  C   UNL     1       5.221   5.284  18.367  0.00  0.00    +0.000 C 
ATOM      9  N   UNL     1       3.857   5.389  18.135  0.00  0.00    +0.000 N 
ATOM     10  H   UNL     1       3.397   4.623  17.656  0.00  0.00    +0.000 HD
BRANCH   8  11
ATOM     11  C   UNL     1       5.940   4.192  17.599  0.00  0.00    +0.000 C 
ATOM     12  C   UNL     1       7.312   4.621  17.100  0.00  0.00    +0.000 C 
ATOM     13  C   UNL     1       7.074   4.931  15.634  0.00  0.00    +0.000 C 
ATOM     14  O   UNL     1       7.915   5.361  14.867  0.00  0.00    +0.000 OA
ATOM     15  N   UNL     1       5.743   4.615  15.319  0.00  0.00    +0.000 N 
ATOM     16  C   UNL     1       5.189   3.778  16.362  0.00  0.00    +0.000 C 
BRANCH  15  17
ATOM     17  C   UNL     1       5.228   4.513  13.963  0.00  0.00    +0.000 C 
BRANCH  17  18
ATOM     18  C   UNL     1       5.867   3.391  13.188  0.00  0.00    +0.000 C 
ATOM     19  C   UNL     1       6.743   3.629  11.981  0.00  0.00    +0.000 C 
ATOM     20  C   UNL     1       5.373   3.049  11.793  0.00  0.00    +0.000 C 
ENDBRANCH  17  18
ENDBRANCH  15  17
ENDBRANCH   8  11
ENDBRANCH   1   9
BRANCH   4  21
ATOM     21  O   UNL     1       0.750   9.229  20.743  0.00  0.00    +0.000 OA
BRANCH  21  22
ATOM     22  C   UNL     1       0.778  10.589  20.277  0.00  0.00    +0.000 C 
BRANCH  22  23
ATOM     23  C   UNL     1      -0.482  10.937  19.563  0.00  0.00    +0.000 A 
ATOM     24  N   UNL     1      -1.499  11.571  20.164  0.00  0.00    +0.000 NA
ATOM     25  O   UNL     1      -2.430  11.723  19.139  0.00  0.00    +0.000 OA
ATOM     26  C   UNL     1      -1.885  11.158  18.019  0.00  0.00    +0.000 A 
ATOM     27  N   UNL     1      -0.699  10.634  18.237  0.00  0.00    +0.000 NA
BRANCH  26  28
ATOM     28  C   UNL     1      -2.594  11.182  16.672  0.00  0.00    +0.000 C 
ATOM     29  C   UNL     1      -4.101  11.063  16.608  0.00  0.00    +0.000 C 
ATOM     30  C   UNL     1      -3.260   9.908  16.189  0.00  0.00    +0.000 C 
ENDBRANCH  26  28
ENDBRANCH  22  23
ENDBRANCH  21  22
ENDBRANCH   4  21
TORSDOF 8
ENDMDL
MODEL 2
REMARK VINA RESULT:      -7.8      3.117      9.682
REMARK  Name = 
REMARK  8 active torsions:
REMARK  status: ('A' for Active; 'I' for Inactive)
REMARK    1  A    between atoms: C_2  and  C_20
REMARK    2  A    between atoms: N_3  and  C_4
REMARK    3  A    between atoms: C_7  and  O_8
REMARK    4  A    between atoms: O_8  and  C_9
REMARK    5  A    between atoms: C_9  and  C_10
REMARK    6  A    between atoms: C_13  and  C_14
REMARK    7  A    between atoms: N_24  and  C_25
REMARK    8  A    between atoms: C_25  and  C_26
REMARK                            x       y       z     vdW  Elec       q    Type
REMARK                         _______ _______ _______ _____ _____    ______ ____
ROOT
ATOM      1  C   UNL     1       1.860   6.644  20.142  0.00  0.00    +0.000 A 
ATOM      2  C   UNL     1       1.568   5.366  20.618  0.00  0.00    +0.000 A 
ATOM      3  C   UNL     1       1.679   4.242  19.798  0.00  0.00    +0.000 A 
ATOM      4  C   UNL     1       2.070   4.388  18.471  0.00  0.00    +0.000 A 
ATOM      5  C   UNL     1       2.328   5.670  17.974  0.00  0.00    +0.000 A 
ATOM      6  C   UNL     1       2.203   6.799  18.797  0.00  0.00    +0.000 A 
ENDROOT
BRANCH   1   9
ATOM      7  O   UNL     1      -0.465   8.053  21.193  0.00  0.00    +0.000 OA
ATOM      8  C   UNL     1       0.685   8.421  21.414  0.00  0.00    +0.000 C 
ATOM      9  N   UNL     1       1.838   7.785  20.977  0.00  0.00    +0.000 N 
ATOM     10  H   UNL     1       2.716   8.040  21.415  0.00  0.00    +0.000 HD
BRANCH   8  11
ATOM     11  C   UNL     1       0.895   9.658  22.266  0.00  0.00    +0.000 C 
ATOM     12  C   UNL     1      -0.141   9.803  23.370  0.00  0.00    +0.000 C 
ATOM     13  C   UNL     1      -1.100  10.843  22.820  0.00  0.00    +0.000 C 
ATOM     14  O   UNL     1      -2.115  11.218  23.377  0.00  0.00    +0.000 OA
ATOM     15  N   UNL     1      -0.604  11.306  21.592  0.00  0.00    +0.000 N 
ATOM     16  C   UNL     1       0.787  10.927  21.463  0.00  0.00    +0.000 C 
BRANCH  15  17
ATOM     17  C   UNL     1      -1.094  12.492  20.910  0.00  0.00    +0.000 C 
BRANCH  17  18
ATOM     18  C   UNL     1      -0.074  13.076  19.968  0.00  0.00    +0.000 C 
ATOM     19  C   UNL     1      -0.345  14.308  19.136  0.00  0.00    +0.000 C 
ATOM     20  C   UNL     1      -0.272  12.968  18.466  0.00  0.00    +0.000 C 
ENDBRANCH  17  18
ENDBRANCH  15  17
ENDBRANCH   8  11
ENDBRANCH   1   9
BRANCH   4  21
ATOM     21  O   UNL     1       2.284   3.356  17.602  0.00  0.00    +0.000 OA
BRANCH  21  22
ATOM     22  C   UNL     1       3.448   2.549  17.852  0.00  0.00    +0.000 C 
BRANCH  22  23
ATOM     23  C   UNL     1       4.614   3.394  18.234  0.00  0.00    +0.000 A 
ATOM     24  N   UNL     1       5.092   3.437  19.486  0.00  0.00    +0.000 NA
ATOM     25  O   UNL     1       6.180   4.301  19.381  0.00  0.00    +0.000 OA
ATOM     26  C   UNL     1       6.247   4.701  18.075  0.00  0.00    +0.000 A 
ATOM     27  N   UNL     1       5.286   4.193  17.335  0.00  0.00    +0.000 NA
BRANCH  26  28
ATOM     28  C   UNL     1       7.352   5.614  17.561  0.00  0.00    +0.000 C 
ATOM     29  C   UNL     1       7.959   6.654  18.477  0.00  0.00    +0.000 C 
ATOM     30  C   UNL     1       7.042   7.088  17.387  0.00  0.00    +0.000 C 
ENDBRANCH  26  28
ENDBRANCH  22  23
ENDBRANCH  21  22
ENDBRANCH   4  21
TORSDOF 8
ENDMDL
MODEL 3
REMARK VINA RESULT:      -7.8      0.829      1.330
REMARK  Name = 
REMARK  8 active torsions:
REMARK  status: ('A' for Active; 'I' for Inactive)
REMARK    1  A    between atoms: C_2  and  C_20
REMARK    2  A    between atoms: N_3  and  C_4
REMARK    3  A    between atoms: C_7  and  O_8
REMARK    4  A    between atoms: O_8  and  C_9
REMARK    5  A    between atoms: C_9  and  C_10
REMARK    6  A    between atoms: C_13  and  C_14
REMARK    7  A    between atoms: N_24  and  C_25
REMARK    8  A    between atoms: C_25  and  C_26
REMARK                            x       y       z     vdW  Elec       q    Type
REMARK                         _______ _______ _______ _____ _____    ______ ____
ROOT
ATOM      1  C   UNL     1       3.108   6.653  18.533  0.00  0.00    +0.000 A 
ATOM      2  C   UNL     1       2.520   6.512  19.790  0.00  0.00    +0.000 A 
ATOM      3  C   UNL     1       1.660   7.485  20.303  0.00  0.00    +0.000 A 
ATOM      4  C   UNL     1       1.390   8.632  19.563  0.00  0.00    +0.000 A 
ATOM      5  C   UNL     1       2.006   8.799  18.317  0.00  0.00    +0.000 A 
ATOM      6  C   UNL     1       2.879   7.825  17.811  0.00  0.00    +0.000 A 
ENDROOT
BRANCH   1   9
ATOM      7  O   UNL     1       5.743   5.751  19.393  0.00  0.00    +0.000 OA
ATOM      8  C   UNL     1       5.177   5.287  18.408  0.00  0.00    +0.000 C 
ATOM      9  N   UNL     1       3.913   5.641  17.958  0.00  0.00    +0.000 N 
ATOM     10  H   UNL     1       3.459   5.031  17.288  0.00  0.00    +0.000 HD
BRANCH   8  11
ATOM     11  C   UNL     1       5.882   4.206  17.613  0.00  0.00    +0.000 C 
ATOM     12  C   UNL     1       7.247   4.640  17.101  0.00  0.00    +0.000 C 
ATOM     13  C   UNL     1       6.988   4.973  15.643  0.00  0.00    +0.000 C 
ATOM     14  O   UNL     1       7.819   5.413  14.871  0.00  0.00    +0.000 OA
ATOM     15  N   UNL     1       5.653   4.664  15.343  0.00  0.00    +0.000 N 
ATOM     16  C   UNL     1       5.112   3.812  16.380  0.00  0.00    +0.000 C 
BRANCH  15  17
ATOM     17  C   UNL     1       5.118   4.584  13.993  0.00  0.00    +0.000 C 
BRANCH  17  18
ATOM     18  C   UNL     1       5.673   3.415  13.223  0.00  0.00    +0.000 C 
ATOM     19  C   UNL     1       6.614   3.582  12.053  0.00  0.00    +0.000 C 
ATOM     20  C   UNL     1       5.202   3.143  11.805  0.00  0.00    +0.000 C 
ENDBRANCH  17  18
ENDBRANCH  15  17
ENDBRANCH   8  11
ENDBRANCH   1   9
BRANCH   4  21
ATOM     21  O   UNL     1       0.510   9.610  19.929  0.00  0.00    +0.000 OA
BRANCH  21  22
ATOM     22  C   UNL     1       0.388  10.723  19.026  0.00  0.00    +0.000 C 
BRANCH  22  23
ATOM     23  C   UNL     1      -1.011  11.233  18.993  0.00  0.00    +0.000 A 
ATOM     24  N   UNL     1      -1.469  12.139  19.869  0.00  0.00    +0.000 NA
ATOM     25  O   UNL     1      -2.781  12.351  19.452  0.00  0.00    +0.000 OA
ATOM     26  C   UNL     1      -2.990  11.544  18.367  0.00  0.00    +0.000 A 
ATOM     27  N   UNL     1      -1.938  10.815  18.064  0.00  0.00    +0.000 NA
BRANCH  26  28
ATOM     28  C   UNL     1      -4.303  11.544  17.597  0.00  0.00    +0.000 C 
ATOM     29  C   UNL     1      -5.518  12.236  18.176  0.00  0.00    +0.000 C 
ATOM     30  C   UNL     1      -5.464  10.747  18.161  0.00  0.00    +0.000 C 
ENDBRANCH  26  28
ENDBRANCH  22  23
ENDBRANCH  21  22
ENDBRANCH   4  21
TORSDOF 8
ENDMDL
MODEL 4
REMARK VINA RESULT:      -7.7      2.554      4.410
REMARK  Name = 
REMARK  8 active torsions:
REMARK  status: ('A' for Active; 'I' for Inactive)
REMARK    1  A    between atoms: C_2  and  C_20
REMARK    2  A    between atoms: N_3  and  C_4
REMARK    3  A    between atoms: C_7  and  O_8
REMARK    4  A    between atoms: O_8  and  C_9
REMARK    5  A    between atoms: C_9  and  C_10
REMARK    6  A    between atoms: C_13  and  C_14
REMARK    7  A    between atoms: N_24  and  C_25
REMARK    8  A    between atoms: C_25  and  C_26
REMARK                            x       y       z     vdW  Elec       q    Type
REMARK                         _______ _______ _______ _____ _____    ______ ____
ROOT
ATOM      1  C   UNL     1       2.295   7.501  18.873  0.00  0.00    +0.000 A 
ATOM      2  C   UNL     1       1.881   7.765  20.178  0.00  0.00    +0.000 A 
ATOM      3  C   UNL     1       1.107   8.887  20.481  0.00  0.00    +0.000 A 
ATOM      4  C   UNL     1       0.749   9.776  19.472  0.00  0.00    +0.000 A 
ATOM      5  C   UNL     1       1.193   9.539  18.167  0.00  0.00    +0.000 A 
ATOM      6  C   UNL     1       1.981   8.418  17.868  0.00  0.00    +0.000 A 
ENDROOT
BRANCH   1   9
ATOM      7  O   UNL     1       4.924   7.295  17.631  0.00  0.00    +0.000 OA
ATOM      8  C   UNL     1       4.247   6.309  17.910  0.00  0.00    +0.000 C 
ATOM      9  N   UNL     1       3.006   6.327  18.530  0.00  0.00    +0.000 N 
ATOM     10  H   UNL     1       2.657   5.458  18.919  0.00  0.00    +0.000 HD
BRANCH   8  11
ATOM     11  C   UNL     1       4.807   4.936  17.591  0.00  0.00    +0.000 C 
ATOM     12  C   UNL     1       3.951   4.161  16.601  0.00  0.00    +0.000 C 
ATOM     13  C   UNL     1       3.180   3.194  17.480  0.00  0.00    +0.000 C 
ATOM     14  O   UNL     1       2.334   2.414  17.084  0.00  0.00    +0.000 OA
ATOM     15  N   UNL     1       3.627   3.338  18.802  0.00  0.00    +0.000 N 
ATOM     16  C   UNL     1       4.884   4.055  18.809  0.00  0.00    +0.000 C 
BRANCH  15  17
ATOM     17  C   UNL     1       3.328   2.398  19.870  0.00  0.00    +0.000 C 
BRANCH  17  18
ATOM     18  C   UNL     1       1.920   2.542  20.387  0.00  0.00    +0.000 C 
ATOM     19  C   UNL     1       1.278   3.887  20.636  0.00  0.00    +0.000 C 
ATOM     20  C   UNL     1       1.674   3.033  21.803  0.00  0.00    +0.000 C 
ENDBRANCH  17  18
ENDBRANCH  15  17
ENDBRANCH   8  11
ENDBRANCH   1   9
BRANCH   4  21
ATOM     21  O   UNL     1      -0.065  10.860  19.638  0.00  0.00    +0.000 OA
BRANCH  21  22
ATOM     22  C   UNL     1      -0.385  11.600  18.447  0.00  0.00    +0.000 C 
BRANCH  22  23
ATOM     23  C   UNL     1      -1.839  11.511  18.135  0.00  0.00    +0.000 A 
ATOM     24  N   UNL     1      -2.299  10.995  16.986  0.00  0.00    +0.000 NA
ATOM     25  O   UNL     1      -3.683  11.073  17.134  0.00  0.00    +0.000 OA
ATOM     26  C   UNL     1      -3.922  11.636  18.358  0.00  0.00    +0.000 A 
ATOM     27  N   UNL     1      -2.818  11.950  18.999  0.00  0.00    +0.000 NA
BRANCH  26  28
ATOM     28  C   UNL     1      -5.331  11.831  18.899  0.00  0.00    +0.000 C 
ATOM     29  C   UNL     1      -6.522  11.357  18.095  0.00  0.00    +0.000 C 
ATOM     30  C   UNL     1      -6.241  12.816  18.191  0.00  0.00    +0.000 C 
ENDBRANCH  26  28
ENDBRANCH  22  23
ENDBRANCH  21  22
ENDBRANCH   4  21
TORSDOF 8
ENDMDL
MODEL 5
REMARK VINA RESULT:      -7.7      3.076      5.042
REMARK  Name = 
REMARK  8 active torsions:
REMARK  status: ('A' for Active; 'I' for Inactive)
REMARK    1  A    between atoms: C_2  and  C_20
REMARK    2  A    between atoms: N_3  and  C_4
REMARK    3  A    between atoms: C_7  and  O_8
REMARK    4  A    between atoms: O_8  and  C_9
REMARK    5  A    between atoms: C_9  and  C_10
REMARK    6  A    between atoms: C_13  and  C_14
REMARK    7  A    between atoms: N_24  and  C_25
REMARK    8  A    between atoms: C_25  and  C_26
REMARK                            x       y       z     vdW  Elec       q    Type
REMARK                         _______ _______ _______ _____ _____    ______ ____
ROOT
ATOM      1  C   UNL     1       2.450   7.444  18.877  0.00  0.00    +0.000 A 
ATOM      2  C   UNL     1       2.200   8.344  17.842  0.00  0.00    +0.000 A 
ATOM      3  C   UNL     1       1.479   9.520  18.059  0.00  0.00    +0.000 A 
ATOM      4  C   UNL     1       0.979   9.802  19.327  0.00  0.00    +0.000 A 
ATOM      5  C   UNL     1       1.192   8.886  20.362  0.00  0.00    +0.000 A 
ATOM      6  C   UNL     1       1.906   7.700  20.137  0.00  0.00    +0.000 A 
ENDROOT
BRANCH   1   9
ATOM      7  O   UNL     1       4.553   7.007  16.907  0.00  0.00    +0.000 OA
ATOM      8  C   UNL     1       4.216   6.145  17.714  0.00  0.00    +0.000 C 
ATOM      9  N   UNL     1       3.250   6.291  18.699  0.00  0.00    +0.000 N 
ATOM     10  H   UNL     1       3.226   5.606  19.446  0.00  0.00    +0.000 HD
BRANCH   8  11
ATOM     11  C   UNL     1       4.924   4.805  17.676  0.00  0.00    +0.000 C 
ATOM     12  C   UNL     1       4.210   3.780  16.809  0.00  0.00    +0.000 C 
ATOM     13  C   UNL     1       3.484   2.908  17.817  0.00  0.00    +0.000 C 
ATOM     14  O   UNL     1       2.743   1.985  17.534  0.00  0.00    +0.000 OA
ATOM     15  N   UNL     1       3.832   3.331  19.108  0.00  0.00    +0.000 N 
ATOM     16  C   UNL     1       5.010   4.168  19.038  0.00  0.00    +0.000 C 
BRANCH  15  17
ATOM     17  C   UNL     1       3.560   2.570  20.317  0.00  0.00    +0.000 C 
BRANCH  17  18
ATOM     18  C   UNL     1       2.590   3.271  21.232  0.00  0.00    +0.000 C 
ATOM     19  C   UNL     1       1.293   2.641  21.681  0.00  0.00    +0.000 C 
ATOM     20  C   UNL     1       1.260   3.771  20.696  0.00  0.00    +0.000 C 
ENDBRANCH  17  18
ENDBRANCH  15  17
ENDBRANCH   8  11
ENDBRANCH   1   9
BRANCH   4  21
ATOM     21  O   UNL     1       0.329  10.953  19.672  0.00  0.00    +0.000 OA
BRANCH  21  22
ATOM     22  C   UNL     1       0.349  11.296  21.069  0.00  0.00    +0.000 C 
BRANCH  22  23
ATOM     23  C   UNL     1      -0.989  11.770  21.522  0.00  0.00    +0.000 A 
ATOM     24  N   UNL     1      -1.931  12.194  20.667  0.00  0.00    +0.000 NA
ATOM     25  O   UNL     1      -3.006  12.496  21.501  0.00  0.00    +0.000 OA
ATOM     26  C   UNL     1      -2.603  12.231  22.781  0.00  0.00    +0.000 A 
ATOM     27  N   UNL     1      -1.359  11.810  22.848  0.00  0.00    +0.000 NA
BRANCH  26  28
ATOM     28  C   UNL     1      -3.536  12.387  23.974  0.00  0.00    +0.000 C 
ATOM     29  C   UNL     1      -4.854  13.114  23.812  0.00  0.00    +0.000 C 
ATOM     30  C   UNL     1      -3.741  13.777  24.547  0.00  0.00    +0.000 C 
ENDBRANCH  26  28
ENDBRANCH  22  23
ENDBRANCH  21  22
ENDBRANCH   4  21
TORSDOF 8
ENDMDL
MODEL 6
REMARK VINA RESULT:      -7.6      2.488      3.171
REMARK  Name = 
REMARK  8 active torsions:
REMARK  status: ('A' for Active; 'I' for Inactive)
REMARK    1  A    between atoms: C_2  and  C_20
REMARK    2  A    between atoms: N_3  and  C_4
REMARK    3  A    between atoms: C_7  and  O_8
REMARK    4  A    between atoms: O_8  and  C_9
REMARK    5  A    between atoms: C_9  and  C_10
REMARK    6  A    between atoms: C_13  and  C_14
REMARK    7  A    between atoms: N_24  and  C_25
REMARK    8  A    between atoms: C_25  and  C_26
REMARK                            x       y       z     vdW  Elec       q    Type
REMARK                         _______ _______ _______ _____ _____    ______ ____
ROOT
ATOM      1  C   UNL     1       2.951   7.234  18.596  0.00  0.00    +0.000 A 
ATOM      2  C   UNL     1       2.481   8.281  17.803  0.00  0.00    +0.000 A 
ATOM      3  C   UNL     1       1.541   9.193  18.287  0.00  0.00    +0.000 A 
ATOM      4  C   UNL     1       1.040   9.055  19.578  0.00  0.00    +0.000 A 
ATOM      5  C   UNL     1       1.478   7.985  20.367  0.00  0.00    +0.000 A 
ATOM      6  C   UNL     1       2.413   7.063  19.873  0.00  0.00    +0.000 A 
ENDROOT
BRANCH   1   9
ATOM      7  O   UNL     1       2.762   4.357  18.166  0.00  0.00    +0.000 OA
ATOM      8  C   UNL     1       3.807   4.981  18.005  0.00  0.00    +0.000 C 
ATOM      9  N   UNL     1       3.965   6.351  18.158  0.00  0.00    +0.000 N 
ATOM     10  H   UNL     1       4.800   6.779  17.772  0.00  0.00    +0.000 HD
BRANCH   8  11
ATOM     11  C   UNL     1       5.043   4.218  17.568  0.00  0.00    +0.000 C 
ATOM     12  C   UNL     1       6.331   4.997  17.788  0.00  0.00    +0.000 C 
ATOM     13  C   UNL     1       6.666   5.525  16.405  0.00  0.00    +0.000 C 
ATOM     14  O   UNL     1       7.608   6.250  16.146  0.00  0.00    +0.000 OA
ATOM     15  N   UNL     1       5.730   5.016  15.493  0.00  0.00    +0.000 N 
ATOM     16  C   UNL     1       5.027   3.904  16.096  0.00  0.00    +0.000 C 
BRANCH  15  17
ATOM     17  C   UNL     1       5.887   5.071  14.048  0.00  0.00    +0.000 C 
BRANCH  17  18
ATOM     18  C   UNL     1       5.866   3.705  13.415  0.00  0.00    +0.000 C 
ATOM     19  C   UNL     1       6.539   3.409  12.095  0.00  0.00    +0.000 C 
ATOM     20  C   UNL     1       5.042   3.456  12.164  0.00  0.00    +0.000 C 
ENDBRANCH  17  18
ENDBRANCH  15  17
ENDBRANCH   8  11
ENDBRANCH   1   9
BRANCH   4  21
ATOM     21  O   UNL     1       0.179   9.927  20.180  0.00  0.00    +0.000 OA
BRANCH  21  22
ATOM     22  C   UNL     1       0.295  10.047  21.608  0.00  0.00    +0.000 C 
BRANCH  22  23
ATOM     23  C   UNL     1      -0.276  11.338  22.084  0.00  0.00    +0.000 A 
ATOM     24  N   UNL     1       0.206  12.527  21.693  0.00  0.00    +0.000 NA
ATOM     25  O   UNL     1      -0.631  13.437  22.335  0.00  0.00    +0.000 OA
ATOM     26  C   UNL     1      -1.533  12.707  23.059  0.00  0.00    +0.000 A 
ATOM     27  N   UNL     1      -1.336  11.410  22.960  0.00  0.00    +0.000 NA
BRANCH  26  28
ATOM     28  C   UNL     1      -2.653  13.361  23.856  0.00  0.00    +0.000 C 
ATOM     29  C   UNL     1      -3.923  12.591  24.147  0.00  0.00    +0.000 C 
ATOM     30  C   UNL     1      -3.948  13.686  23.138  0.00  0.00    +0.000 C 
ENDBRANCH  26  28
ENDBRANCH  22  23
ENDBRANCH  21  22
ENDBRANCH   4  21
TORSDOF 8
ENDMDL
MODEL 7
REMARK VINA RESULT:      -7.6      2.427      3.235
REMARK  Name = 
REMARK  8 active torsions:
REMARK  status: ('A' for Active; 'I' for Inactive)
REMARK    1  A    between atoms: C_2  and  C_20
REMARK    2  A    between atoms: N_3  and  C_4
REMARK    3  A    between atoms: C_7  and  O_8
REMARK    4  A    between atoms: O_8  and  C_9
REMARK    5  A    between atoms: C_9  and  C_10
REMARK    6  A    between atoms: C_13  and  C_14
REMARK    7  A    between atoms: N_24  and  C_25
REMARK    8  A    between atoms: C_25  and  C_26
REMARK                            x       y       z     vdW  Elec       q    Type
REMARK                         _______ _______ _______ _____ _____    ______ ____
ROOT
ATOM      1  C   UNL     1       2.839   7.460  18.657  0.00  0.00    +0.000 A 
ATOM      2  C   UNL     1       2.231   7.454  19.912  0.00  0.00    +0.000 A 
ATOM      3  C   UNL     1       1.216   8.358  20.231  0.00  0.00    +0.000 A 
ATOM      4  C   UNL     1       0.806   9.300  19.293  0.00  0.00    +0.000 A 
ATOM      5  C   UNL     1       1.438   9.338  18.045  0.00  0.00    +0.000 A 
ATOM      6  C   UNL     1       2.466   8.437  17.732  0.00  0.00    +0.000 A 
ENDROOT
BRANCH   1   9
ATOM      7  O   UNL     1       2.395   4.756  17.663  0.00  0.00    +0.000 OA
ATOM      8  C   UNL     1       3.518   5.215  17.846  0.00  0.00    +0.000 C 
ATOM      9  N   UNL     1       3.808   6.499  18.283  0.00  0.00    +0.000 N 
ATOM     10  H   UNL     1       4.757   6.837  18.169  0.00  0.00    +0.000 HD
BRANCH   8  11
ATOM     11  C   UNL     1       4.716   4.334  17.541  0.00  0.00    +0.000 C 
ATOM     12  C   UNL     1       6.041   4.991  17.895  0.00  0.00    +0.000 C 
ATOM     13  C   UNL     1       6.567   5.470  16.554  0.00  0.00    +0.000 C 
ATOM     14  O   UNL     1       7.595   6.101  16.394  0.00  0.00    +0.000 OA
ATOM     15  N   UNL     1       5.688   5.041  15.549  0.00  0.00    +0.000 N 
ATOM     16  C   UNL     1       4.823   4.007  16.076  0.00  0.00    +0.000 C 
BRANCH  15  17
ATOM     17  C   UNL     1       5.999   5.065  14.129  0.00  0.00    +0.000 C 
BRANCH  17  18
ATOM     18  C   UNL     1       5.935   3.697  13.502  0.00  0.00    +0.000 C 
ATOM     19  C   UNL     1       6.588   3.376  12.179  0.00  0.00    +0.000 C 
ATOM     20  C   UNL     1       5.093   3.466  12.260  0.00  0.00    +0.000 C 
ENDBRANCH  17  18
ENDBRANCH  15  17
ENDBRANCH   8  11
ENDBRANCH   1   9
BRANCH   4  21
ATOM     21  O   UNL     1      -0.224  10.180  19.467  0.00  0.00    +0.000 OA
BRANCH  21  22
ATOM     22  C   UNL     1       0.143  11.560  19.631  0.00  0.00    +0.000 C 
BRANCH  22  23
ATOM     23  C   UNL     1      -0.256  12.063  20.976  0.00  0.00    +0.000 A 
ATOM     24  N   UNL     1       0.590  12.728  21.776  0.00  0.00    +0.000 NA
ATOM     25  O   UNL     1      -0.195  13.035  22.885  0.00  0.00    +0.000 OA
ATOM     26  C   UNL     1      -1.438  12.517  22.649  0.00  0.00    +0.000 A 
ATOM     27  N   UNL     1      -1.517  11.883  21.499  0.00  0.00    +0.000 NA
BRANCH  26  28
ATOM     28  C   UNL     1      -2.594  12.703  23.623  0.00  0.00    +0.000 C 
ATOM     29  C   UNL     1      -4.015  12.759  23.107  0.00  0.00    +0.000 C 
ATOM     30  C   UNL     1      -3.362  14.011  23.582  0.00  0.00    +0.000 C 
ENDBRANCH  26  28
ENDBRANCH  22  23
ENDBRANCH  21  22
ENDBRANCH   4  21
TORSDOF 8
ENDMDL
MODEL 8
REMARK VINA RESULT:      -7.6      2.152      2.762
REMARK  Name = 
REMARK  8 active torsions:
REMARK  status: ('A' for Active; 'I' for Inactive)
REMARK    1  A    between atoms: C_2  and  C_20
REMARK    2  A    between atoms: N_3  and  C_4
REMARK    3  A    between atoms: C_7  and  O_8
REMARK    4  A    between atoms: O_8  and  C_9
REMARK    5  A    between atoms: C_9  and  C_10
REMARK    6  A    between atoms: C_13  and  C_14
REMARK    7  A    between atoms: N_24  and  C_25
REMARK    8  A    between atoms: C_25  and  C_26
REMARK                            x       y       z     vdW  Elec       q    Type
REMARK                         _______ _______ _______ _____ _____    ______ ____
ROOT
ATOM      1  C   UNL     1       2.486   7.415  18.826  0.00  0.00    +0.000 A 
ATOM      2  C   UNL     1       2.303   8.299  17.763  0.00  0.00    +0.000 A 
ATOM      3  C   UNL     1       1.590   9.489  17.922  0.00  0.00    +0.000 A 
ATOM      4  C   UNL     1       1.030   9.802  19.157  0.00  0.00    +0.000 A 
ATOM      5  C   UNL     1       1.177   8.903  20.219  0.00  0.00    +0.000 A 
ATOM      6  C   UNL     1       1.883   7.702  20.052  0.00  0.00    +0.000 A 
ENDROOT
BRANCH   1   9
ATOM      7  O   UNL     1       1.747   4.859  17.635  0.00  0.00    +0.000 OA
ATOM      8  C   UNL     1       2.842   5.053  18.154  0.00  0.00    +0.000 C 
ATOM      9  N   UNL     1       3.276   6.248  18.710  0.00  0.00    +0.000 N 
ATOM     10  H   UNL     1       4.269   6.355  18.889  0.00  0.00    +0.000 HD
BRANCH   8  11
ATOM     11  C   UNL     1       3.843   3.913  18.174  0.00  0.00    +0.000 C 
ATOM     12  C   UNL     1       4.888   4.059  19.269  0.00  0.00    +0.000 C 
ATOM     13  C   UNL     1       6.107   4.575  18.528  0.00  0.00    +0.000 C 
ATOM     14  O   UNL     1       7.164   4.877  19.050  0.00  0.00    +0.000 OA
ATOM     15  N   UNL     1       5.814   4.617  17.157  0.00  0.00    +0.000 N 
ATOM     16  C   UNL     1       4.631   3.825  16.895  0.00  0.00    +0.000 C 
BRANCH  15  17
ATOM     17  C   UNL     1       6.812   4.788  16.115  0.00  0.00    +0.000 C 
BRANCH  17  18
ATOM     18  C   UNL     1       6.197   4.925  14.746  0.00  0.00    +0.000 C 
ATOM     19  C   UNL     1       6.147   3.784  13.758  0.00  0.00    +0.000 C 
ATOM     20  C   UNL     1       7.080   4.931  13.510  0.00  0.00    +0.000 C 
ENDBRANCH  17  18
ENDBRANCH  15  17
ENDBRANCH   8  11
ENDBRANCH   1   9
BRANCH   4  21
ATOM     21  O   UNL     1       0.381  10.968  19.448  0.00  0.00    +0.000 OA
BRANCH  21  22
ATOM     22  C   UNL     1      -0.711  11.318  18.581  0.00  0.00    +0.000 C 
BRANCH  22  23
ATOM     23  C   UNL     1      -1.877  11.815  19.363  0.00  0.00    +0.000 A 
ATOM     24  N   UNL     1      -1.765  12.249  20.627  0.00  0.00    +0.000 NA
ATOM     25  O   UNL     1      -3.062  12.646  20.944  0.00  0.00    +0.000 OA
ATOM     26  C   UNL     1      -3.834  12.405  19.841  0.00  0.00    +0.000 A 
ATOM     27  N   UNL     1      -3.156  11.866  18.852  0.00  0.00    +0.000 NA
BRANCH  26  28
ATOM     28  C   UNL     1      -5.312  12.767  19.790  0.00  0.00    +0.000 C 
ATOM     29  C   UNL     1      -6.167  12.629  21.031  0.00  0.00    +0.000 C 
ATOM     30  C   UNL     1      -6.328  11.649  19.921  0.00  0.00    +0.000 C 
ENDBRANCH  26  28
ENDBRANCH  22  23
ENDBRANCH  21  22
ENDBRANCH   4  21
TORSDOF 8
ENDMDL
MODEL 9
REMARK VINA RESULT:      -7.5      2.269      9.799
REMARK  Name = 
REMARK  8 active torsions:
REMARK  status: ('A' for Active; 'I' for Inactive)
REMARK    1  A    between atoms: C_2  and  C_20
REMARK    2  A    between atoms: N_3  and  C_4
REMARK    3  A    between atoms: C_7  and  O_8
REMARK    4  A    between atoms: O_8  and  C_9
REMARK    5  A    between atoms: C_9  and  C_10
REMARK    6  A    between atoms: C_13  and  C_14
REMARK    7  A    between atoms: N_24  and  C_25
REMARK    8  A    between atoms: C_25  and  C_26
REMARK                            x       y       z     vdW  Elec       q    Type
REMARK                         _______ _______ _______ _____ _____    ______ ____
ROOT
ATOM      1  C   UNL     1       2.589   6.882  18.644  0.00  0.00    +0.000 A 
ATOM      2  C   UNL     1       2.218   5.538  18.675  0.00  0.00    +0.000 A 
ATOM      3  C   UNL     1       3.009   4.553  18.080  0.00  0.00    +0.000 A 
ATOM      4  C   UNL     1       4.184   4.908  17.424  0.00  0.00    +0.000 A 
ATOM      5  C   UNL     1       4.544   6.258  17.356  0.00  0.00    +0.000 A 
ATOM      6  C   UNL     1       3.741   7.247  17.944  0.00  0.00    +0.000 A 
ENDROOT
BRANCH   1   9
ATOM      7  O   UNL     1       1.628   9.417  17.574  0.00  0.00    +0.000 OA
ATOM      8  C   UNL     1       1.451   9.085  18.742  0.00  0.00    +0.000 C 
ATOM      9  N   UNL     1       1.849   7.885  19.313  0.00  0.00    +0.000 N 
ATOM     10  H   UNL     1       1.445   7.627  20.207  0.00  0.00    +0.000 HD
BRANCH   8  11
ATOM     11  C   UNL     1       0.706  10.037  19.658  0.00  0.00    +0.000 C 
ATOM     12  C   UNL     1      -0.724  10.295  19.209  0.00  0.00    +0.000 C 
ATOM     13  C   UNL     1      -0.644  11.653  18.536  0.00  0.00    +0.000 C 
ATOM     14  O   UNL     1      -1.574  12.215  17.986  0.00  0.00    +0.000 OA
ATOM     15  N   UNL     1       0.660  12.149  18.680  0.00  0.00    +0.000 N 
ATOM     16  C   UNL     1       1.348  11.398  19.709  0.00  0.00    +0.000 C 
BRANCH  15  17
ATOM     17  C   UNL     1       1.043  13.526  18.415  0.00  0.00    +0.000 C 
BRANCH  17  18
ATOM     18  C   UNL     1       2.394  13.867  18.988  0.00  0.00    +0.000 C 
ATOM     19  C   UNL     1       2.857  15.291  19.191  0.00  0.00    +0.000 C 
ATOM     20  C   UNL     1       3.470  14.466  18.099  0.00  0.00    +0.000 C 
ENDBRANCH  17  18
ENDBRANCH  15  17
ENDBRANCH   8  11
ENDBRANCH   1   9
BRANCH   4  21
ATOM     21  O   UNL     1       5.070   4.026  16.875  0.00  0.00    +0.000 OA
BRANCH  21  22
ATOM     22  C   UNL     1       6.403   4.520  16.657  0.00  0.00    +0.000 C 
BRANCH  22  23
ATOM     23  C   UNL     1       6.710   4.608  15.202  0.00  0.00    +0.000 A 
ATOM     24  N   UNL     1       7.621   5.458  14.708  0.00  0.00    +0.000 NA
ATOM     25  O   UNL     1       7.610   5.180  13.343  0.00  0.00    +0.000 OA
ATOM     26  C   UNL     1       6.685   4.191  13.146  0.00  0.00    +0.000 A 
ATOM     27  N   UNL     1       6.083   3.827  14.257  0.00  0.00    +0.000 NA
BRANCH  26  28
ATOM     28  C   UNL     1       6.432   3.580  11.775  0.00  0.00    +0.000 C 
ATOM     29  C   UNL     1       5.596   2.324  11.651  0.00  0.00    +0.000 C 
ATOM     30  C   UNL     1       7.070   2.241  11.458  0.00  0.00    +0.000 C 
ENDBRANCH  26  28
ENDBRANCH  22  23
ENDBRANCH  21  22
ENDBRANCH   4  21
TORSDOF 8
ENDMDL
