MODEL 1
REMARK VINA RESULT:      -8.1      0.000      0.000
REMARK  Name = 
REMARK  6 active torsions:
REMARK  status: ('A' for Active; 'I' for Inactive)
REMARK    1  A    between atoms: C_1  and  C_2
REMARK    2  A    between atoms: N_4  and  C_5
REMARK    3  A    between atoms: C_6  and  C_7
REMARK    4  A    between atoms: C_8  and  N_9
REMARK    5  A    between atoms: C_10  and  C_12
REMARK    6  A    between atoms: C_12  and  N_13
REMARK                            x       y       z     vdW  Elec       q    Type
REMARK                         _______ _______ _______ _____ _____    ______ ____
ROOT
ATOM      1  N   UNL     1       1.722   8.809  19.257  0.00  0.00    +0.000 N 
ATOM      2  C   UNL     1       2.090   9.183  18.006  0.00  0.00    +0.000 C 
ATOM      3  O   UNL     1       2.656   8.507  17.166  0.00  0.00    +0.000 OA
ATOM      4  N   UNL     1       1.666  10.476  17.789  0.00  0.00    +0.000 N 
ATOM      5  C   UNL     1       0.755  10.929  18.819  0.00  0.00    +0.000 C 
ATOM      6  C   UNL     1       1.145  12.330  19.300  0.00  0.00    +0.000 C 
ATOM      7  C   UNL     1       0.149  12.888  20.310  0.00  0.00    +0.000 C 
ATOM      8  C   UNL     1      -1.275  12.917  19.764  0.00  0.00    +0.000 C 
ATOM      9  C   UNL     1      -1.666  11.713  18.943  0.00  0.00    +0.000 A 
ATOM     10  C   UNL     1      -3.030  11.524  18.656  0.00  0.00    +0.000 A 
ATOM     11  C   UNL     1      -3.445  10.512  17.793  0.00  0.00    +0.000 A 
ATOM     12  C   UNL     1      -2.504   9.694  17.185  0.00  0.00    +0.000 A 
ATOM     13  C   UNL     1      -1.150   9.852  17.483  0.00  0.00    +0.000 A 
ATOM     14  C   UNL     1      -0.707  10.845  18.383  0.00  0.00    +0.000 A 
ATOM     15  C   UNL     1       1.048   9.819  19.876  0.00  0.00    +0.000 C 
ATOM     16  O   UNL     1       0.683   9.799  21.049  0.00  0.00    +0.000 OA
ATOM     17  H   UNL     1       1.700  10.858  16.852  0.00  0.00    +0.000 HD
ENDROOT
BRANCH   1  18
ATOM     18  C   UNL     1       1.848   7.458  19.760  0.00  0.00    +0.000 C 
BRANCH  18  20
ATOM     19  N   UNL     1       3.650   6.117  18.783  0.00  0.00    +0.000 N 
ATOM     20  C   UNL     1       2.306   6.444  18.721  0.00  0.00    +0.000 C 
ATOM     21  O   UNL     1       1.475   5.839  18.040  0.00  0.00    +0.000 OA
ATOM     22  H   UNL     1       4.093   6.229  19.690  0.00  0.00    +0.000 HD
BRANCH  19  30
ATOM     23  C   UNL     1       3.460   2.854  19.009  0.00  0.00    +0.000 C 
ATOM     24  C   UNL     1       4.166   3.728  18.038  0.00  0.00    +0.000 A 
ATOM     25  N   UNL     1       4.823   3.168  17.014  0.00  0.00    +0.000 NA
ATOM     26  N   UNL     1       5.264   4.210  16.293  0.00  0.00    +0.000 N 
ATOM     27  C   UNL     1       6.068   3.945  15.122  0.00  0.00    +0.000 C 
ATOM     28  C   UNL     1       4.873   5.430  16.784  0.00  0.00    +0.000 A 
ATOM     29  C   UNL     1       5.257   6.730  16.181  0.00  0.00    +0.000 C 
ATOM     30  C   UNL     1       4.186   5.147  17.949  0.00  0.00    +0.000 A 
ENDBRANCH  19  30
ENDBRANCH  18  20
ENDBRANCH   1  18
TORSDOF 3
ENDMDL
MODEL 2
REMARK VINA RESULT:      -8.0      2.061      8.239
REMARK  Name = 
REMARK  6 active torsions:
REMARK  status: ('A' for Active; 'I' for Inactive)
REMARK    1  A    between atoms: C_1  and  C_2
REMARK    2  A    between atoms: N_4  and  C_5
REMARK    3  A    between atoms: C_6  and  C_7
REMARK    4  A    between atoms: C_8  and  N_9
REMARK    5  A    between atoms: C_10  and  C_12
REMARK    6  A    between atoms: C_12  and  N_13
REMARK                            x       y       z     vdW  Elec       q    Type
REMARK                         _______ _______ _______ _____ _____    ______ ____
ROOT
ATOM      1  N   UNL     1       1.999   7.593  19.430  0.00  0.00    +0.000 N 
ATOM      2  C   UNL     1       1.902   7.984  18.135  0.00  0.00    +0.000 C 
ATOM      3  O   UNL     1       1.681   9.104  17.713  0.00  0.00    +0.000 OA
ATOM      4  N   UNL     1       2.153   6.897  17.325  0.00  0.00    +0.000 N 
ATOM      5  C   UNL     1       2.691   5.778  18.071  0.00  0.00    +0.000 C 
ATOM      6  C   UNL     1       1.973   4.482  17.682  0.00  0.00    +0.000 C 
ATOM      7  C   UNL     1       2.580   3.263  18.366  0.00  0.00    +0.000 C 
ATOM      8  C   UNL     1       4.072   3.120  18.080  0.00  0.00    +0.000 C 
ATOM      9  C   UNL     1       4.845   4.416  18.079  0.00  0.00    +0.000 A 
ATOM     10  C   UNL     1       6.249   4.348  18.118  0.00  0.00    +0.000 A 
ATOM     11  C   UNL     1       7.025   5.498  17.983  0.00  0.00    +0.000 A 
ATOM     12  C   UNL     1       6.411   6.725  17.782  0.00  0.00    +0.000 A 
ATOM     13  C   UNL     1       5.018   6.812  17.769  0.00  0.00    +0.000 A 
ATOM     14  C   UNL     1       4.210   5.668  17.942  0.00  0.00    +0.000 A 
ATOM     15  C   UNL     1       2.324   6.271  19.504  0.00  0.00    +0.000 C 
ATOM     16  O   UNL     1       2.381   5.624  20.547  0.00  0.00    +0.000 OA
ATOM     17  H   UNL     1       2.295   7.040  16.334  0.00  0.00    +0.000 HD
ENDROOT
BRANCH   1  18
ATOM     18  C   UNL     1       1.969   8.510  20.549  0.00  0.00    +0.000 C 
BRANCH  18  20
ATOM     19  N   UNL     1       0.483  10.393  20.054  0.00  0.00    +0.000 N 
ATOM     20  C   UNL     1       0.631   9.206  20.752  0.00  0.00    +0.000 C 
ATOM     21  O   UNL     1      -0.288   8.621  21.331  0.00  0.00    +0.000 OA
ATOM     22  H   UNL     1       1.039  10.483  19.210  0.00  0.00    +0.000 HD
BRANCH  19  30
ATOM     23  C   UNL     1      -0.625  12.516  22.290  0.00  0.00    +0.000 C 
ATOM     24  C   UNL     1      -1.251  11.980  21.055  0.00  0.00    +0.000 A 
ATOM     25  N   UNL     1      -2.459  12.427  20.689  0.00  0.00    +0.000 NA
ATOM     26  N   UNL     1      -2.695  11.825  19.514  0.00  0.00    +0.000 N 
ATOM     27  C   UNL     1      -3.962  12.062  18.861  0.00  0.00    +0.000 C 
ATOM     28  C   UNL     1      -1.659  11.039  19.076  0.00  0.00    +0.000 A 
ATOM     29  C   UNL     1      -1.690  10.249  17.821  0.00  0.00    +0.000 C 
ATOM     30  C   UNL     1      -0.715  11.090  20.083  0.00  0.00    +0.000 A 
ENDBRANCH  19  30
ENDBRANCH  18  20
ENDBRANCH   1  18
TORSDOF 3
ENDMDL
MODEL 3
REMARK VINA RESULT:      -7.9      2.355      8.246
REMARK  Name = 
REMARK  6 active torsions:
REMARK  status: ('A' for Active; 'I' for Inactive)
REMARK    1  A    between atoms: C_1  and  C_2
REMARK    2  A    between atoms: N_4  and  C_5
REMARK    3  A    between atoms: C_6  and  C_7
REMARK    4  A    between atoms: C_8  and  N_9
REMARK    5  A    between atoms: C_10  and  C_12
REMARK    6  A    between atoms: C_12  and  N_13
REMARK                            x       y       z     vdW  Elec       q    Type
REMARK                         _______ _______ _______ _____ _____    ______ ____
ROOT
ATOM      1  N   UNL     1       2.245   7.721  18.661  0.00  0.00    +0.000 N 
ATOM      2  C   UNL     1       2.102   7.382  19.966  0.00  0.00    +0.000 C 
ATOM      3  O   UNL     1       1.261   7.785  20.749  0.00  0.00    +0.000 OA
ATOM      4  N   UNL     1       3.051   6.435  20.284  0.00  0.00    +0.000 N 
ATOM      5  C   UNL     1       3.709   5.909  19.105  0.00  0.00    +0.000 C 
ATOM      6  C   UNL     1       5.226   5.871  19.313  0.00  0.00    +0.000 C 
ATOM      7  C   UNL     1       5.949   5.225  18.136  0.00  0.00    +0.000 C 
ATOM      8  C   UNL     1       5.441   3.816  17.845  0.00  0.00    +0.000 C 
ATOM      9  C   UNL     1       3.947   3.641  17.968  0.00  0.00    +0.000 A 
ATOM     10  C   UNL     1       3.373   2.472  17.439  0.00  0.00    +0.000 A 
ATOM     11  C   UNL     1       2.024   2.185  17.638  0.00  0.00    +0.000 A 
ATOM     12  C   UNL     1       1.238   3.047  18.388  0.00  0.00    +0.000 A 
ATOM     13  C   UNL     1       1.787   4.225  18.895  0.00  0.00    +0.000 A 
ATOM     14  C   UNL     1       3.141   4.557  18.675  0.00  0.00    +0.000 A 
ATOM     15  C   UNL     1       3.259   7.009  18.094  0.00  0.00    +0.000 C 
ATOM     16  O   UNL     1       3.679   7.179  16.952  0.00  0.00    +0.000 OA
ATOM     17  H   UNL     1       2.984   5.941  21.164  0.00  0.00    +0.000 HD
ENDROOT
BRANCH   1  18
ATOM     18  C   UNL     1       1.308   8.558  17.942  0.00  0.00    +0.000 C 
BRANCH  18  20
ATOM     19  N   UNL     1      -0.099  10.056  19.273  0.00  0.00    +0.000 N 
ATOM     20  C   UNL     1       1.085   9.927  18.567  0.00  0.00    +0.000 C 
ATOM     21  O   UNL     1       2.003  10.751  18.592  0.00  0.00    +0.000 OA
ATOM     22  H   UNL     1      -0.486   9.198  19.652  0.00  0.00    +0.000 HD
BRANCH  19  30
ATOM     23  C   UNL     1      -0.653  13.067  18.104  0.00  0.00    +0.000 C 
ATOM     24  C   UNL     1      -0.592  12.554  19.496  0.00  0.00    +0.000 A 
ATOM     25  N   UNL     1      -0.845  13.390  20.511  0.00  0.00    +0.000 NA
ATOM     26  N   UNL     1      -0.796  12.611  21.602  0.00  0.00    +0.000 N 
ATOM     27  C   UNL     1      -0.983  13.228  22.896  0.00  0.00    +0.000 C 
ATOM     28  C   UNL     1      -0.569  11.286  21.329  0.00  0.00    +0.000 A 
ATOM     29  C   UNL     1      -0.445  10.234  22.367  0.00  0.00    +0.000 C 
ATOM     30  C   UNL     1      -0.393  11.224  19.960  0.00  0.00    +0.000 A 
ENDBRANCH  19  30
ENDBRANCH  18  20
ENDBRANCH   1  18
TORSDOF 3
ENDMDL
MODEL 4
REMARK VINA RESULT:      -7.9      4.189      8.884
REMARK  Name = 
REMARK  6 active torsions:
REMARK  status: ('A' for Active; 'I' for Inactive)
REMARK    1  A    between atoms: C_1  and  C_2
REMARK    2  A    between atoms: N_4  and  C_5
REMARK    3  A    between atoms: C_6  and  C_7
REMARK    4  A    between atoms: C_8  and  N_9
REMARK    5  A    between atoms: C_10  and  C_12
REMARK    6  A    between atoms: C_12  and  N_13
REMARK                            x       y       z     vdW  Elec       q    Type
REMARK                         _______ _______ _______ _____ _____    ______ ____
ROOT
ATOM      1  N   UNL     1      -1.285  11.628  17.751  0.00  0.00    +0.000 N 
ATOM      2  C   UNL     1      -0.491  12.641  18.180  0.00  0.00    +0.000 C 
ATOM      3  O   UNL     1      -0.763  13.827  18.224  0.00  0.00    +0.000 OA
ATOM      4  N   UNL     1       0.699  12.110  18.629  0.00  0.00    +0.000 N 
ATOM      5  C   UNL     1       0.637  10.669  18.756  0.00  0.00    +0.000 C 
ATOM      6  C   UNL     1       1.879  10.025  18.136  0.00  0.00    +0.000 C 
ATOM      7  C   UNL     1       1.905   8.514  18.341  0.00  0.00    +0.000 C 
ATOM      8  C   UNL     1       1.816   8.128  19.815  0.00  0.00    +0.000 C 
ATOM      9  C   UNL     1       0.858   8.959  20.632  0.00  0.00    +0.000 A 
ATOM     10  C   UNL     1       0.498   8.490  21.908  0.00  0.00    +0.000 A 
ATOM     11  C   UNL     1      -0.272   9.272  22.767  0.00  0.00    +0.000 A 
ATOM     12  C   UNL     1      -0.671  10.541  22.374  0.00  0.00    +0.000 A 
ATOM     13  C   UNL     1      -0.346  11.008  21.100  0.00  0.00    +0.000 A 
ATOM     14  C   UNL     1       0.401  10.221  20.198  0.00  0.00    +0.000 A 
ATOM     15  C   UNL     1      -0.657  10.430  17.918  0.00  0.00    +0.000 C 
ATOM     16  O   UNL     1      -1.096   9.351  17.526  0.00  0.00    +0.000 OA
ATOM     17  H   UNL     1       1.340  12.699  19.144  0.00  0.00    +0.000 HD
ENDROOT
BRANCH   1  18
ATOM     18  C   UNL     1      -2.672  11.799  17.375  0.00  0.00    +0.000 C 
BRANCH  18  20
ATOM     19  N   UNL     1      -4.018  12.725  19.200  0.00  0.00    +0.000 N 
ATOM     20  C   UNL     1      -3.659  11.578  18.513  0.00  0.00    +0.000 C 
ATOM     21  O   UNL     1      -4.221  10.488  18.639  0.00  0.00    +0.000 OA
ATOM     22  H   UNL     1      -3.948  13.594  18.680  0.00  0.00    +0.000 HD
BRANCH  19  30
ATOM     23  C   UNL     1      -7.253  12.257  18.976  0.00  0.00    +0.000 C 
ATOM     24  C   UNL     1      -6.383  12.529  20.148  0.00  0.00    +0.000 A 
ATOM     25  N   UNL     1      -6.926  12.556  21.372  0.00  0.00    +0.000 NA
ATOM     26  N   UNL     1      -5.881  12.734  22.195  0.00  0.00    +0.000 N 
ATOM     27  C   UNL     1      -6.136  12.857  23.612  0.00  0.00    +0.000 C 
ATOM     28  C   UNL     1      -4.670  12.775  21.553  0.00  0.00    +0.000 A 
ATOM     29  C   UNL     1      -3.372  12.991  22.240  0.00  0.00    +0.000 C 
ATOM     30  C   UNL     1      -4.970  12.682  20.207  0.00  0.00    +0.000 A 
ENDBRANCH  19  30
ENDBRANCH  18  20
ENDBRANCH   1  18
TORSDOF 3
ENDMDL
MODEL 5
REMARK VINA RESULT:      -7.9      4.154      8.910
REMARK  Name = 
REMARK  6 active torsions:
REMARK  status: ('A' for Active; 'I' for Inactive)
REMARK    1  A    between atoms: C_1  and  C_2
REMARK    2  A    between atoms: N_4  and  C_5
REMARK    3  A    between atoms: C_6  and  C_7
REMARK    4  A    between atoms: C_8  and  N_9
REMARK    5  A    between atoms: C_10  and  C_12
REMARK    6  A    between atoms: C_12  and  N_13
REMARK                            x       y       z     vdW  Elec       q    Type
REMARK                         _______ _______ _______ _____ _____    ______ ____
ROOT
ATOM      1  N   UNL     1      -1.263  11.664  17.803  0.00  0.00    +0.000 N 
ATOM      2  C   UNL     1      -0.451  12.657  18.245  0.00  0.00    +0.000 C 
ATOM      3  O   UNL     1      -0.719  13.839  18.355  0.00  0.00    +0.000 OA
ATOM      4  N   UNL     1       0.756  12.107  18.620  0.00  0.00    +0.000 N 
ATOM      5  C   UNL     1       0.697  10.661  18.683  0.00  0.00    +0.000 C 
ATOM      6  C   UNL     1       1.913  10.047  17.983  0.00  0.00    +0.000 C 
ATOM      7  C   UNL     1       1.945   8.529  18.117  0.00  0.00    +0.000 C 
ATOM      8  C   UNL     1       1.916   8.075  19.574  0.00  0.00    +0.000 C 
ATOM      9  C   UNL     1       0.994   8.867  20.468  0.00  0.00    +0.000 A 
ATOM     10  C   UNL     1       0.687   8.340  21.735  0.00  0.00    +0.000 A 
ATOM     11  C   UNL     1      -0.046   9.080  22.659  0.00  0.00    +0.000 A 
ATOM     12  C   UNL     1      -0.459  10.366  22.342  0.00  0.00    +0.000 A 
ATOM     13  C   UNL     1      -0.187  10.891  21.079  0.00  0.00    +0.000 A 
ATOM     14  C   UNL     1       0.521  10.147  20.111  0.00  0.00    +0.000 A 
ATOM     15  C   UNL     1      -0.630  10.460  17.889  0.00  0.00    +0.000 C 
ATOM     16  O   UNL     1      -1.086   9.400  17.466  0.00  0.00    +0.000 OA
ATOM     17  H   UNL     1       1.419  12.672  19.135  0.00  0.00    +0.000 HD
ENDROOT
BRANCH   1  18
ATOM     18  C   UNL     1      -2.664  11.851  17.494  0.00  0.00    +0.000 C 
BRANCH  18  20
ATOM     19  N   UNL     1      -3.772  12.797  19.463  0.00  0.00    +0.000 N 
ATOM     20  C   UNL     1      -3.597  11.667  18.682  0.00  0.00    +0.000 C 
ATOM     21  O   UNL     1      -4.276  10.642  18.781  0.00  0.00    +0.000 OA
ATOM     22  H   UNL     1      -3.632  13.686  18.994  0.00  0.00    +0.000 HD
BRANCH  19  30
ATOM     23  C   UNL     1      -3.146  12.590  22.673  0.00  0.00    +0.000 C 
ATOM     24  C   UNL     1      -4.429  12.658  21.928  0.00  0.00    +0.000 A 
ATOM     25  N   UNL     1      -5.579  12.696  22.613  0.00  0.00    +0.000 NA
ATOM     26  N   UNL     1      -6.523  12.840  21.671  0.00  0.00    +0.000 N 
ATOM     27  C   UNL     1      -7.908  12.868  22.082  0.00  0.00    +0.000 C 
ATOM     28  C   UNL     1      -6.023  12.948  20.397  0.00  0.00    +0.000 A 
ATOM     29  C   UNL     1      -6.865  13.087  19.184  0.00  0.00    +0.000 C 
ATOM     30  C   UNL     1      -4.657  12.793  20.531  0.00  0.00    +0.000 A 
ENDBRANCH  19  30
ENDBRANCH  18  20
ENDBRANCH   1  18
TORSDOF 3
ENDMDL
MODEL 6
REMARK VINA RESULT:      -7.8      2.065      8.311
REMARK  Name = 
REMARK  6 active torsions:
REMARK  status: ('A' for Active; 'I' for Inactive)
REMARK    1  A    between atoms: C_1  and  C_2
REMARK    2  A    between atoms: N_4  and  C_5
REMARK    3  A    between atoms: C_6  and  C_7
REMARK    4  A    between atoms: C_8  and  N_9
REMARK    5  A    between atoms: C_10  and  C_12
REMARK    6  A    between atoms: C_12  and  N_13
REMARK                            x       y       z     vdW  Elec       q    Type
REMARK                         _______ _______ _______ _____ _____    ______ ____
ROOT
ATOM      1  N   UNL     1       1.984   7.646  19.396  0.00  0.00    +0.000 N 
ATOM      2  C   UNL     1       1.882   8.006  18.093  0.00  0.00    +0.000 C 
ATOM      3  O   UNL     1       1.637   9.112  17.647  0.00  0.00    +0.000 OA
ATOM      4  N   UNL     1       2.160   6.908  17.307  0.00  0.00    +0.000 N 
ATOM      5  C   UNL     1       2.721   5.818  18.078  0.00  0.00    +0.000 C 
ATOM      6  C   UNL     1       2.033   4.499  17.715  0.00  0.00    +0.000 C 
ATOM      7  C   UNL     1       2.666   3.308  18.426  0.00  0.00    +0.000 C 
ATOM      8  C   UNL     1       4.161   3.193  18.147  0.00  0.00    +0.000 C 
ATOM      9  C   UNL     1       4.905   4.506  18.120  0.00  0.00    +0.000 A 
ATOM     10  C   UNL     1       6.310   4.471  18.163  0.00  0.00    +0.000 A 
ATOM     11  C   UNL     1       7.060   5.635  18.006  0.00  0.00    +0.000 A 
ATOM     12  C   UNL     1       6.419   6.843  17.776  0.00  0.00    +0.000 A 
ATOM     13  C   UNL     1       5.025   6.898  17.759  0.00  0.00    +0.000 A 
ATOM     14  C   UNL     1       4.242   5.740  17.954  0.00  0.00    +0.000 A 
ATOM     15  C   UNL     1       2.339   6.334  19.500  0.00  0.00    +0.000 C 
ATOM     16  O   UNL     1       2.408   5.710  20.556  0.00  0.00    +0.000 OA
ATOM     17  H   UNL     1       2.301   7.033  16.313  0.00  0.00    +0.000 HD
ENDROOT
BRANCH   1  18
ATOM     18  C   UNL     1       1.931   8.585  20.496  0.00  0.00    +0.000 C 
BRANCH  18  20
ATOM     19  N   UNL     1       0.469  10.461  19.909  0.00  0.00    +0.000 N 
ATOM     20  C   UNL     1       0.593   9.295  20.646  0.00  0.00    +0.000 C 
ATOM     21  O   UNL     1      -0.343   8.734  21.222  0.00  0.00    +0.000 OA
ATOM     22  H   UNL     1       1.044  10.522  19.076  0.00  0.00    +0.000 HD
BRANCH  19  30
ATOM     23  C   UNL     1      -2.017  10.272  17.782  0.00  0.00    +0.000 C 
ATOM     24  C   UNL     1      -1.803  11.148  18.963  0.00  0.00    +0.000 A 
ATOM     25  N   UNL     1      -2.767  12.006  19.321  0.00  0.00    +0.000 NA
ATOM     26  N   UNL     1      -2.307  12.569  20.449  0.00  0.00    +0.000 N 
ATOM     27  C   UNL     1      -3.105  13.596  21.079  0.00  0.00    +0.000 C 
ATOM     28  C   UNL     1      -1.099  12.071  20.865  0.00  0.00    +0.000 A 
ATOM     29  C   UNL     1      -0.372  12.551  22.067  0.00  0.00    +0.000 C 
ATOM     30  C   UNL     1      -0.725  11.166  19.891  0.00  0.00    +0.000 A 
ENDBRANCH  19  30
ENDBRANCH  18  20
ENDBRANCH   1  18
TORSDOF 3
ENDMDL
MODEL 7
REMARK VINA RESULT:      -7.7      2.300      8.137
REMARK  Name = 
REMARK  6 active torsions:
REMARK  status: ('A' for Active; 'I' for Inactive)
REMARK    1  A    between atoms: C_1  and  C_2
REMARK    2  A    between atoms: N_4  and  C_5
REMARK    3  A    between atoms: C_6  and  C_7
REMARK    4  A    between atoms: C_8  and  N_9
REMARK    5  A    between atoms: C_10  and  C_12
REMARK    6  A    between atoms: C_12  and  N_13
REMARK                            x       y       z     vdW  Elec       q    Type
REMARK                         _______ _______ _______ _____ _____    ______ ____
ROOT
ATOM      1  N   UNL     1       2.236   7.729  18.698  0.00  0.00    +0.000 N 
ATOM      2  C   UNL     1       2.094   7.381  20.001  0.00  0.00    +0.000 C 
ATOM      3  O   UNL     1       1.256   7.781  20.788  0.00  0.00    +0.000 OA
ATOM      4  N   UNL     1       3.041   6.428  20.310  0.00  0.00    +0.000 N 
ATOM      5  C   UNL     1       3.694   5.909  19.126  0.00  0.00    +0.000 C 
ATOM      6  C   UNL     1       5.211   5.863  19.331  0.00  0.00    +0.000 C 
ATOM      7  C   UNL     1       5.930   5.224  18.148  0.00  0.00    +0.000 C 
ATOM      8  C   UNL     1       5.417   3.819  17.848  0.00  0.00    +0.000 C 
ATOM      9  C   UNL     1       3.922   3.649  17.972  0.00  0.00    +0.000 A 
ATOM     10  C   UNL     1       3.343   2.485  17.435  0.00  0.00    +0.000 A 
ATOM     11  C   UNL     1       1.993   2.201  17.634  0.00  0.00    +0.000 A 
ATOM     12  C   UNL     1       1.211   3.061  18.392  0.00  0.00    +0.000 A 
ATOM     13  C   UNL     1       1.766   4.233  18.906  0.00  0.00    +0.000 A 
ATOM     14  C   UNL     1       3.121   4.562  18.687  0.00  0.00    +0.000 A 
ATOM     15  C   UNL     1       3.247   7.017  18.124  0.00  0.00    +0.000 C 
ATOM     16  O   UNL     1       3.665   7.195  16.982  0.00  0.00    +0.000 OA
ATOM     17  H   UNL     1       2.973   5.928  21.187  0.00  0.00    +0.000 HD
ENDROOT
BRANCH   1  18
ATOM     18  C   UNL     1       1.301   8.574  17.986  0.00  0.00    +0.000 C 
BRANCH  18  20
ATOM     19  N   UNL     1      -0.221   9.932  19.342  0.00  0.00    +0.000 N 
ATOM     20  C   UNL     1       0.996   9.892  18.682  0.00  0.00    +0.000 C 
ATOM     21  O   UNL     1       1.877  10.749  18.797  0.00  0.00    +0.000 OA
ATOM     22  H   UNL     1      -0.586   9.037  19.652  0.00  0.00    +0.000 HD
BRANCH  19  30
ATOM     23  C   UNL     1      -0.312  10.313  22.596  0.00  0.00    +0.000 C 
ATOM     24  C   UNL     1      -0.689  11.232  21.492  0.00  0.00    +0.000 A 
ATOM     25  N   UNL     1      -1.102  12.471  21.787  0.00  0.00    +0.000 NA
ATOM     26  N   UNL     1      -1.276  13.057  20.593  0.00  0.00    +0.000 N 
ATOM     27  C   UNL     1      -1.773  14.414  20.558  0.00  0.00    +0.000 C 
ATOM     28  C   UNL     1      -0.941  12.258  19.529  0.00  0.00    +0.000 A 
ATOM     29  C   UNL     1      -1.072  12.667  18.109  0.00  0.00    +0.000 C 
ATOM     30  C   UNL     1      -0.591  11.043  20.085  0.00  0.00    +0.000 A 
ENDBRANCH  19  30
ENDBRANCH  18  20
ENDBRANCH   1  18
TORSDOF 3
ENDMDL
MODEL 8
REMARK VINA RESULT:      -7.7      1.716      2.818
REMARK  Name = 
REMARK  6 active torsions:
REMARK  status: ('A' for Active; 'I' for Inactive)
REMARK    1  A    between atoms: C_1  and  C_2
REMARK    2  A    between atoms: N_4  and  C_5
REMARK    3  A    between atoms: C_6  and  C_7
REMARK    4  A    between atoms: C_8  and  N_9
REMARK    5  A    between atoms: C_10  and  C_12
REMARK    6  A    between atoms: C_12  and  N_13
REMARK                            x       y       z     vdW  Elec       q    Type
REMARK                         _______ _______ _______ _____ _____    ______ ____
ROOT
ATOM      1  N   UNL     1       0.855  10.648  20.019  0.00  0.00    +0.000 N 
ATOM      2  C   UNL     1       1.306  11.389  18.976  0.00  0.00    +0.000 C 
ATOM      3  O   UNL     1       2.362  11.266  18.383  0.00  0.00    +0.000 OA
ATOM      4  N   UNL     1       0.337  12.307  18.633  0.00  0.00    +0.000 N 
ATOM      5  C   UNL     1      -0.926  12.031  19.285  0.00  0.00    +0.000 C 
ATOM      6  C   UNL     1      -1.512  13.315  19.880  0.00  0.00    +0.000 C 
ATOM      7  C   UNL     1      -2.893  13.089  20.484  0.00  0.00    +0.000 C 
ATOM      8  C   UNL     1      -3.877  12.502  19.476  0.00  0.00    +0.000 C 
ATOM      9  C   UNL     1      -3.300  11.449  18.563  0.00  0.00    +0.000 A 
ATOM     10  C   UNL     1      -4.192  10.658  17.818  0.00  0.00    +0.000 A 
ATOM     11  C   UNL     1      -3.725   9.763  16.858  0.00  0.00    +0.000 A 
ATOM     12  C   UNL     1      -2.363   9.665  16.611  0.00  0.00    +0.000 A 
ATOM     13  C   UNL     1      -1.464  10.422  17.362  0.00  0.00    +0.000 A 
ATOM     14  C   UNL     1      -1.910  11.308  18.366  0.00  0.00    +0.000 A 
ATOM     15  C   UNL     1      -0.403  11.040  20.370  0.00  0.00    +0.000 C 
ATOM     16  O   UNL     1      -1.021  10.614  21.343  0.00  0.00    +0.000 OA
ATOM     17  H   UNL     1       0.430  12.826  17.770  0.00  0.00    +0.000 HD
ENDROOT
BRANCH   1  18
ATOM     18  C   UNL     1       1.537   9.477  20.526  0.00  0.00    +0.000 C 
BRANCH  18  20
ATOM     19  N   UNL     1       2.442   7.274  19.953  0.00  0.00    +0.000 N 
ATOM     20  C   UNL     1       1.737   8.375  19.496  0.00  0.00    +0.000 C 
ATOM     21  O   UNL     1       1.128   8.413  18.424  0.00  0.00    +0.000 OA
ATOM     22  H   UNL     1       2.400   7.105  20.953  0.00  0.00    +0.000 HD
BRANCH  19  30
ATOM     23  C   UNL     1       4.300   6.949  17.274  0.00  0.00    +0.000 C 
ATOM     24  C   UNL     1       3.385   5.996  17.952  0.00  0.00    +0.000 A 
ATOM     25  N   UNL     1       3.280   4.747  17.481  0.00  0.00    +0.000 NA
ATOM     26  N   UNL     1       2.462   4.133  18.350  0.00  0.00    +0.000 N 
ATOM     27  C   UNL     1       2.099   2.757  18.097  0.00  0.00    +0.000 C 
ATOM     28  C   UNL     1       2.071   4.925  19.399  0.00  0.00    +0.000 A 
ATOM     29  C   UNL     1       1.147   4.485  20.473  0.00  0.00    +0.000 C 
ATOM     30  C   UNL     1       2.629   6.163  19.145  0.00  0.00    +0.000 A 
ENDBRANCH  19  30
ENDBRANCH  18  20
ENDBRANCH   1  18
TORSDOF 3
ENDMDL
MODEL 9
REMARK VINA RESULT:      -7.6      1.807      8.404
REMARK  Name = 
REMARK  6 active torsions:
REMARK  status: ('A' for Active; 'I' for Inactive)
REMARK    1  A    between atoms: C_1  and  C_2
REMARK    2  A    between atoms: N_4  and  C_5
REMARK    3  A    between atoms: C_6  and  C_7
REMARK    4  A    between atoms: C_8  and  N_9
REMARK    5  A    between atoms: C_10  and  C_12
REMARK    6  A    between atoms: C_12  and  N_13
REMARK                            x       y       z     vdW  Elec       q    Type
REMARK                         _______ _______ _______ _____ _____    ______ ____
ROOT
ATOM      1  N   UNL     1       2.880   6.548  17.909  0.00  0.00    +0.000 N 
ATOM      2  C   UNL     1       2.453   5.279  18.122  0.00  0.00    +0.000 C 
ATOM      3  O   UNL     1       1.318   4.852  18.016  0.00  0.00    +0.000 OA
ATOM      4  N   UNL     1       3.541   4.493  18.437  0.00  0.00    +0.000 N 
ATOM      5  C   UNL     1       4.793   5.175  18.187  0.00  0.00    +0.000 C 
ATOM      6  C   UNL     1       5.742   5.002  19.377  0.00  0.00    +0.000 C 
ATOM      7  C   UNL     1       7.112   5.616  19.112  0.00  0.00    +0.000 C 
ATOM      8  C   UNL     1       7.767   5.051  17.855  0.00  0.00    +0.000 C 
ATOM      9  C   UNL     1       6.829   4.831  16.693  0.00  0.00    +0.000 A 
ATOM     10  C   UNL     1       7.390   4.598  15.426  0.00  0.00    +0.000 A 
ATOM     11  C   UNL     1       6.587   4.254  14.340  0.00  0.00    +0.000 A 
ATOM     12  C   UNL     1       5.218   4.114  14.512  0.00  0.00    +0.000 A 
ATOM     13  C   UNL     1       4.644   4.370  15.757  0.00  0.00    +0.000 A 
ATOM     14  C   UNL     1       5.431   4.757  16.863  0.00  0.00    +0.000 A 
ATOM     15  C   UNL     1       4.233   6.626  18.060  0.00  0.00    +0.000 C 
ATOM     16  O   UNL     1       4.881   7.669  18.025  0.00  0.00    +0.000 OA
ATOM     17  H   UNL     1       3.436   3.487  18.457  0.00  0.00    +0.000 HD
ENDROOT
BRANCH   1  18
ATOM     18  C   UNL     1       2.037   7.603  17.389  0.00  0.00    +0.000 C 
BRANCH  18  20
ATOM     19  N   UNL     1       1.325   9.912  17.788  0.00  0.00    +0.000 N 
ATOM     20  C   UNL     1       1.785   8.741  18.367  0.00  0.00    +0.000 C 
ATOM     21  O   UNL     1       1.803   8.528  19.582  0.00  0.00    +0.000 OA
ATOM     22  H   UNL     1       0.826   9.807  16.910  0.00  0.00    +0.000 HD
BRANCH  19  30
ATOM     23  C   UNL     1       2.918  12.743  18.218  0.00  0.00    +0.000 C 
ATOM     24  C   UNL     1       1.663  12.225  18.819  0.00  0.00    +0.000 A 
ATOM     25  N   UNL     1       0.970  13.007  19.656  0.00  0.00    +0.000 NA
ATOM     26  N   UNL     1      -0.129  12.294  19.945  0.00  0.00    +0.000 N 
ATOM     27  C   UNL     1      -1.081  12.847  20.881  0.00  0.00    +0.000 C 
ATOM     28  C   UNL     1      -0.200  11.094  19.285  0.00  0.00    +0.000 A 
ATOM     29  C   UNL     1      -1.302  10.115  19.457  0.00  0.00    +0.000 C 
ATOM     30  C   UNL     1       0.979  11.004  18.570  0.00  0.00    +0.000 A 
ENDBRANCH  19  30
ENDBRANCH  18  20
ENDBRANCH   1  18
TORSDOF 3
ENDMDL
