MODEL 1
REMARK VINA RESULT:      -8.8      0.000      0.000
REMARK  Name = 
REMARK  7 active torsions:
REMARK  status: ('A' for Active; 'I' for Inactive)
REMARK    1  A    between atoms: C_1  and  C_2
REMARK    2  A    between atoms: C_2  and  C_3
REMARK    3  A    between atoms: C_3  and  C_4
REMARK    4  A    between atoms: C_3  and  C_25
REMARK    5  A    between atoms: C_4  and  C_5
REMARK    6  A    between atoms: C_9  and  N_10
REMARK    7  A    between atoms: C_17  and  C_18
REMARK                            x       y       z     vdW  Elec       q    Type
REMARK                         _______ _______ _______ _____ _____    ______ ____
ROOT
ATOM      1  C   UNL     1       7.955   8.118  17.899  0.00  0.00    +0.000 A 
ATOM      2  C   UNL     1       8.204   7.332  19.033  0.00  0.00    +0.000 A 
ATOM      3  C   UNL     1       8.034   5.952  18.992  0.00  0.00    +0.000 A 
ATOM      4  C   UNL     1       7.515   5.352  17.848  0.00  0.00    +0.000 A 
ATOM      5  C   UNL     1       7.101   6.147  16.765  0.00  0.00    +0.000 A 
ATOM      6  C   UNL     1       7.430   7.508  16.754  0.00  0.00    +0.000 A 
ENDROOT
BRANCH   5   7
ATOM      7  N   UNL     1       6.055   5.688  15.871  0.00  0.00    +0.000 N 
ATOM      8  C   UNL     1       4.820   6.487  16.047  0.00  0.00    +0.000 C 
ATOM      9  C   UNL     1       4.045   5.655  17.020  0.00  0.00    +0.000 A 
ATOM     10  C   UNL     1       4.474   4.333  16.880  0.00  0.00    +0.000 A 
ATOM     11  C   UNL     1       4.089   3.319  17.735  0.00  0.00    +0.000 A 
ATOM     12  C   UNL     1       3.243   3.664  18.787  0.00  0.00    +0.000 A 
ATOM     13  C   UNL     1       2.806   4.993  18.947  0.00  0.00    +0.000 A 
ATOM     14  C   UNL     1       3.194   6.018  18.057  0.00  0.00    +0.000 A 
ATOM     15  C   UNL     1       5.670   4.335  16.012  0.00  0.00    +0.000 C 
ATOM     16  O   UNL     1       6.288   3.330  15.695  0.00  0.00    +0.000 OA
BRANCH  14  17
ATOM     17  C   UNL     1       2.770   7.438  18.331  0.00  0.00    +0.000 C 
ATOM     18  F   UNL     1       1.672   7.835  17.631  0.00  0.00    +0.000 F 
ATOM     19  F   UNL     1       2.463   7.640  19.641  0.00  0.00    +0.000 F 
ATOM     20  F   UNL     1       3.746   8.338  18.030  0.00  0.00    +0.000 F 
ENDBRANCH  14  17
ENDBRANCH   5   7
BRANCH   1  21
ATOM     21  C   UNL     1       8.144   9.618  17.947  0.00  0.00    +0.000 C 
BRANCH  21  22
ATOM     22  C   UNL     1       9.384  10.137  18.706  0.00  0.00    +0.000 C 
BRANCH  22  23
ATOM     23  C   UNL     1       9.974  11.350  18.050  0.00  0.00    +0.000 A 
ATOM     24  N   UNL     1       9.351  12.463  17.725  0.00  0.00    +0.000 NA
ATOM     25  N   UNL     1      10.261  13.306  17.132  0.00  0.00    +0.000 NA
ATOM     26  C   UNL     1      11.422  12.688  17.109  0.00  0.00    +0.000 A 
ATOM     27  N   UNL     1      11.287  11.459  17.674  0.00  0.00    +0.000 N 
ATOM     28  H   UNL     1      12.018  10.779  17.833  0.00  0.00    +0.000 HD
ENDBRANCH  22  23
BRANCH  22  30
ATOM     29  C   UNL     1       9.994  11.558  20.770  0.00  0.00    +0.000 C 
ATOM     30  C   UNL     1       9.191  10.393  20.214  0.00  0.00    +0.000 C 
ENDBRANCH  22  30
ENDBRANCH  21  22
ENDBRANCH   1  21
TORSDOF 6
ENDMDL
MODEL 2
REMARK VINA RESULT:      -8.5      5.052      7.986
REMARK  Name = 
REMARK  7 active torsions:
REMARK  status: ('A' for Active; 'I' for Inactive)
REMARK    1  A    between atoms: C_1  and  C_2
REMARK    2  A    between atoms: C_2  and  C_3
REMARK    3  A    between atoms: C_3  and  C_4
REMARK    4  A    between atoms: C_3  and  C_25
REMARK    5  A    between atoms: C_4  and  C_5
REMARK    6  A    between atoms: C_9  and  N_10
REMARK    7  A    between atoms: C_17  and  C_18
REMARK                            x       y       z     vdW  Elec       q    Type
REMARK                         _______ _______ _______ _____ _____    ______ ____
ROOT
ATOM      1  C   UNL     1       2.782   6.210  19.094  0.00  0.00    +0.000 A 
ATOM      2  C   UNL     1       2.792   6.859  17.850  0.00  0.00    +0.000 A 
ATOM      3  C   UNL     1       2.369   8.179  17.734  0.00  0.00    +0.000 A 
ATOM      4  C   UNL     1       1.834   8.834  18.839  0.00  0.00    +0.000 A 
ATOM      5  C   UNL     1       1.660   8.141  20.049  0.00  0.00    +0.000 A 
ATOM      6  C   UNL     1       2.239   6.876  20.199  0.00  0.00    +0.000 A 
ENDROOT
BRANCH   5   7
ATOM      7  N   UNL     1       0.617   8.531  20.979  0.00  0.00    +0.000 N 
ATOM      8  C   UNL     1      -0.635   8.863  20.260  0.00  0.00    +0.000 C 
ATOM      9  C   UNL     1      -0.525  10.348  20.108  0.00  0.00    +0.000 A 
ATOM     10  C   UNL     1       0.295  10.817  21.136  0.00  0.00    +0.000 A 
ATOM     11  C   UNL     1       0.747  12.121  21.206  0.00  0.00    +0.000 A 
ATOM     12  C   UNL     1       0.361  12.982  20.182  0.00  0.00    +0.000 A 
ATOM     13  C   UNL     1      -0.460  12.524  19.133  0.00  0.00    +0.000 A 
ATOM     14  C   UNL     1      -0.928  11.193  19.080  0.00  0.00    +0.000 A 
ATOM     15  C   UNL     1       0.904   9.646  21.799  0.00  0.00    +0.000 C 
ATOM     16  O   UNL     1       1.677   9.719  22.742  0.00  0.00    +0.000 OA
BRANCH  14  17
ATOM     17  C   UNL     1      -1.727  10.734  17.887  0.00  0.00    +0.000 C 
ATOM     18  F   UNL     1      -2.939  10.200  18.203  0.00  0.00    +0.000 F 
ATOM     19  F   UNL     1      -1.989  11.750  17.021  0.00  0.00    +0.000 F 
ATOM     20  F   UNL     1      -1.079   9.781  17.164  0.00  0.00    +0.000 F 
ENDBRANCH  14  17
ENDBRANCH   5   7
BRANCH   1  21
ATOM     21  C   UNL     1       3.245   4.775  19.216  0.00  0.00    +0.000 C 
BRANCH  21  22
ATOM     22  C   UNL     1       4.037   4.199  18.023  0.00  0.00    +0.000 C 
BRANCH  22  23
ATOM     23  C   UNL     1       5.512   4.424  18.170  0.00  0.00    +0.000 A 
ATOM     24  N   UNL     1       6.153   4.839  19.242  0.00  0.00    +0.000 NA
ATOM     25  N   UNL     1       7.491   4.923  18.936  0.00  0.00    +0.000 NA
ATOM     26  C   UNL     1       7.637   4.556  17.682  0.00  0.00    +0.000 A 
ATOM     27  N   UNL     1       6.422   4.236  17.163  0.00  0.00    +0.000 N 
ATOM     28  H   UNL     1       6.231   3.879  16.236  0.00  0.00    +0.000 HD
ENDBRANCH  22  23
BRANCH  22  30
ATOM     29  C   UNL     1       2.333   2.263  17.946  0.00  0.00    +0.000 C 
ATOM     30  C   UNL     1       3.760   2.720  17.686  0.00  0.00    +0.000 C 
ENDBRANCH  22  30
ENDBRANCH  21  22
ENDBRANCH   1  21
TORSDOF 6
ENDMDL
MODEL 3
REMARK VINA RESULT:      -8.5      5.555      7.790
REMARK  Name = 
REMARK  7 active torsions:
REMARK  status: ('A' for Active; 'I' for Inactive)
REMARK    1  A    between atoms: C_1  and  C_2
REMARK    2  A    between atoms: C_2  and  C_3
REMARK    3  A    between atoms: C_3  and  C_4
REMARK    4  A    between atoms: C_3  and  C_25
REMARK    5  A    between atoms: C_4  and  C_5
REMARK    6  A    between atoms: C_9  and  N_10
REMARK    7  A    between atoms: C_17  and  C_18
REMARK                            x       y       z     vdW  Elec       q    Type
REMARK                         _______ _______ _______ _____ _____    ______ ____
ROOT
ATOM      1  C   UNL     1       1.439   9.104  19.748  0.00  0.00    +0.000 A 
ATOM      2  C   UNL     1       1.737   9.368  18.403  0.00  0.00    +0.000 A 
ATOM      3  C   UNL     1       2.230   8.365  17.575  0.00  0.00    +0.000 A 
ATOM      4  C   UNL     1       2.529   7.113  18.105  0.00  0.00    +0.000 A 
ATOM      5  C   UNL     1       2.395   6.887  19.486  0.00  0.00    +0.000 A 
ATOM      6  C   UNL     1       1.745   7.844  20.274  0.00  0.00    +0.000 A 
ENDROOT
BRANCH   5   7
ATOM      7  N   UNL     1       3.217   5.894  20.153  0.00  0.00    +0.000 N 
ATOM      8  C   UNL     1       4.386   5.529  19.319  0.00  0.00    +0.000 C 
ATOM      9  C   UNL     1       3.892   4.313  18.602  0.00  0.00    +0.000 A 
ATOM     10  C   UNL     1       2.896   3.733  19.391  0.00  0.00    +0.000 A 
ATOM     11  C   UNL     1       2.106   2.686  18.960  0.00  0.00    +0.000 A 
ATOM     12  C   UNL     1       2.325   2.215  17.668  0.00  0.00    +0.000 A 
ATOM     13  C   UNL     1       3.321   2.792  16.855  0.00  0.00    +0.000 A 
ATOM     14  C   UNL     1       4.133   3.852  17.312  0.00  0.00    +0.000 A 
ATOM     15  C   UNL     1       2.575   4.678  20.480  0.00  0.00    +0.000 C 
ATOM     16  O   UNL     1       1.738   4.467  21.345  0.00  0.00    +0.000 OA
BRANCH  14  17
ATOM     17  C   UNL     1       5.119   4.492  16.368  0.00  0.00    +0.000 C 
ATOM     18  F   UNL     1       5.239   3.851  15.173  0.00  0.00    +0.000 F 
ATOM     19  F   UNL     1       4.782   5.775  16.064  0.00  0.00    +0.000 F 
ATOM     20  F   UNL     1       6.375   4.545  16.888  0.00  0.00    +0.000 F 
ENDBRANCH  14  17
ENDBRANCH   5   7
BRANCH   1  21
ATOM     21  C   UNL     1       0.901  10.197  20.645  0.00  0.00    +0.000 C 
BRANCH  21  22
ATOM     22  C   UNL     1      -0.589  10.562  20.475  0.00  0.00    +0.000 C 
BRANCH  22  23
ATOM     23  C   UNL     1      -1.070  11.472  21.565  0.00  0.00    +0.000 A 
ATOM     24  N   UNL     1      -0.545  11.630  22.762  0.00  0.00    +0.000 NA
ATOM     25  N   UNL     1      -1.306  12.547  23.447  0.00  0.00    +0.000 NA
ATOM     26  C   UNL     1      -2.281  12.930  22.651  0.00  0.00    +0.000 A 
ATOM     27  N   UNL     1      -2.171  12.281  21.462  0.00  0.00    +0.000 N 
ATOM     28  H   UNL     1      -2.753  12.406  20.644  0.00  0.00    +0.000 HD
ENDBRANCH  22  23
BRANCH  22  30
ATOM     29  C   UNL     1      -1.865  10.214  18.260  0.00  0.00    +0.000 C 
ATOM     30  C   UNL     1      -0.988  11.131  19.098  0.00  0.00    +0.000 C 
ENDBRANCH  22  30
ENDBRANCH  21  22
ENDBRANCH   1  21
TORSDOF 6
ENDMDL
MODEL 4
REMARK VINA RESULT:      -8.4      4.845      7.089
REMARK  Name = 
REMARK  7 active torsions:
REMARK  status: ('A' for Active; 'I' for Inactive)
REMARK    1  A    between atoms: C_1  and  C_2
REMARK    2  A    between atoms: C_2  and  C_3
REMARK    3  A    between atoms: C_3  and  C_4
REMARK    4  A    between atoms: C_3  and  C_25
REMARK    5  A    between atoms: C_4  and  C_5
REMARK    6  A    between atoms: C_9  and  N_10
REMARK    7  A    between atoms: C_17  and  C_18
REMARK                            x       y       z     vdW  Elec       q    Type
REMARK                         _______ _______ _______ _____ _____    ______ ____
ROOT
ATOM      1  C   UNL     1       2.408   5.975  20.239  0.00  0.00    +0.000 A 
ATOM      2  C   UNL     1       1.257   5.339  20.727  0.00  0.00    +0.000 A 
ATOM      3  C   UNL     1       1.168   3.951  20.750  0.00  0.00    +0.000 A 
ATOM      4  C   UNL     1       2.185   3.183  20.192  0.00  0.00    +0.000 A 
ATOM      5  C   UNL     1       3.265   3.811  19.548  0.00  0.00    +0.000 A 
ATOM      6  C   UNL     1       3.425   5.196  19.677  0.00  0.00    +0.000 A 
ENDROOT
BRANCH   5   7
ATOM      7  N   UNL     1       3.980   3.136  18.480  0.00  0.00    +0.000 N 
ATOM      8  C   UNL     1       5.441   3.345  18.608  0.00  0.00    +0.000 C 
ATOM      9  C   UNL     1       5.668   4.522  17.712  0.00  0.00    +0.000 A 
ATOM     10  C   UNL     1       4.648   4.530  16.759  0.00  0.00    +0.000 A 
ATOM     11  C   UNL     1       4.451   5.570  15.872  0.00  0.00    +0.000 A 
ATOM     12  C   UNL     1       5.319   6.656  15.966  0.00  0.00    +0.000 A 
ATOM     13  C   UNL     1       6.349   6.668  16.927  0.00  0.00    +0.000 A 
ATOM     14  C   UNL     1       6.550   5.592  17.817  0.00  0.00    +0.000 A 
ATOM     15  C   UNL     1       3.642   3.527  17.165  0.00  0.00    +0.000 C 
ATOM     16  O   UNL     1       2.620   3.291  16.538  0.00  0.00    +0.000 OA
BRANCH  14  17
ATOM     17  C   UNL     1       7.609   5.699  18.884  0.00  0.00    +0.000 C 
ATOM     18  F   UNL     1       8.359   6.833  18.810  0.00  0.00    +0.000 F 
ATOM     19  F   UNL     1       7.080   5.691  20.138  0.00  0.00    +0.000 F 
ATOM     20  F   UNL     1       8.495   4.667  18.843  0.00  0.00    +0.000 F 
ENDBRANCH  14  17
ENDBRANCH   5   7
BRANCH   1  21
ATOM     21  C   UNL     1       2.501   7.485  20.218  0.00  0.00    +0.000 C 
BRANCH  21  22
ATOM     22  C   UNL     1       1.174   8.259  20.063  0.00  0.00    +0.000 C 
BRANCH  22  23
ATOM     23  C   UNL     1       0.711   8.841  21.366  0.00  0.00    +0.000 A 
ATOM     24  N   UNL     1       1.427   9.527  22.232  0.00  0.00    +0.000 NA
ATOM     25  N   UNL     1       0.616   9.855  23.293  0.00  0.00    +0.000 NA
ATOM     26  C   UNL     1      -0.579   9.362  23.050  0.00  0.00    +0.000 A 
ATOM     27  N   UNL     1      -0.564   8.718  21.853  0.00  0.00    +0.000 N 
ATOM     28  H   UNL     1      -1.348   8.280  21.387  0.00  0.00    +0.000 HD
ENDBRANCH  22  23
BRANCH  22  30
ATOM     29  C   UNL     1       1.985   9.017  17.735  0.00  0.00    +0.000 C 
ATOM     30  C   UNL     1       1.152   9.340  18.964  0.00  0.00    +0.000 C 
ENDBRANCH  22  30
ENDBRANCH  21  22
ENDBRANCH   1  21
TORSDOF 6
ENDMDL
MODEL 5
REMARK VINA RESULT:      -8.4      5.491      7.872
REMARK  Name = 
REMARK  7 active torsions:
REMARK  status: ('A' for Active; 'I' for Inactive)
REMARK    1  A    between atoms: C_1  and  C_2
REMARK    2  A    between atoms: C_2  and  C_3
REMARK    3  A    between atoms: C_3  and  C_4
REMARK    4  A    between atoms: C_3  and  C_25
REMARK    5  A    between atoms: C_4  and  C_5
REMARK    6  A    between atoms: C_9  and  N_10
REMARK    7  A    between atoms: C_17  and  C_18
REMARK                            x       y       z     vdW  Elec       q    Type
REMARK                         _______ _______ _______ _____ _____    ______ ____
ROOT
ATOM      1  C   UNL     1       1.091   9.517  19.327  0.00  0.00    +0.000 A 
ATOM      2  C   UNL     1       0.874   8.966  20.599  0.00  0.00    +0.000 A 
ATOM      3  C   UNL     1       1.482   7.771  20.969  0.00  0.00    +0.000 A 
ATOM      4  C   UNL     1       2.232   7.059  20.038  0.00  0.00    +0.000 A 
ATOM      5  C   UNL     1       2.317   7.513  18.711  0.00  0.00    +0.000 A 
ATOM      6  C   UNL     1       1.844   8.792  18.396  0.00  0.00    +0.000 A 
ENDROOT
BRANCH   5   7
ATOM      7  N   UNL     1       2.534   6.576  17.624  0.00  0.00    +0.000 N 
ATOM      8  C   UNL     1       1.706   5.361  17.800  0.00  0.00    +0.000 C 
ATOM      9  C   UNL     1       2.654   4.433  18.491  0.00  0.00    +0.000 A 
ATOM     10  C   UNL     1       3.951   4.825  18.151  0.00  0.00    +0.000 A 
ATOM     11  C   UNL     1       5.081   4.292  18.740  0.00  0.00    +0.000 A 
ATOM     12  C   UNL     1       4.886   3.330  19.728  0.00  0.00    +0.000 A 
ATOM     13  C   UNL     1       3.586   2.927  20.089  0.00  0.00    +0.000 A 
ATOM     14  C   UNL     1       2.439   3.467  19.469  0.00  0.00    +0.000 A 
ATOM     15  C   UNL     1       3.862   6.124  17.452  0.00  0.00    +0.000 C 
ATOM     16  O   UNL     1       4.827   6.738  17.024  0.00  0.00    +0.000 OA
BRANCH  14  17
ATOM     17  C   UNL     1       1.071   3.068  19.959  0.00  0.00    +0.000 C 
ATOM     18  F   UNL     1       0.316   2.419  19.030  0.00  0.00    +0.000 F 
ATOM     19  F   UNL     1       1.133   2.232  21.031  0.00  0.00    +0.000 F 
ATOM     20  F   UNL     1       0.329   4.137  20.357  0.00  0.00    +0.000 F 
ENDBRANCH  14  17
ENDBRANCH   5   7
BRANCH   1  21
ATOM     21  C   UNL     1       0.429  10.818  18.930  0.00  0.00    +0.000 C 
BRANCH  21  22
ATOM     22  C   UNL     1      -1.114  10.840  18.936  0.00  0.00    +0.000 C 
BRANCH  22  23
ATOM     23  C   UNL     1      -1.654  11.872  19.881  0.00  0.00    +0.000 A 
ATOM     24  N   UNL     1      -1.251  12.117  21.110  0.00  0.00    +0.000 NA
ATOM     25  N   UNL     1      -2.026  13.131  21.622  0.00  0.00    +0.000 NA
ATOM     26  C   UNL     1      -2.886  13.484  20.691  0.00  0.00    +0.000 A 
ATOM     27  N   UNL     1      -2.688  12.721  19.584  0.00  0.00    +0.000 N 
ATOM     28  H   UNL     1      -3.171  12.796  18.699  0.00  0.00    +0.000 HD
ENDBRANCH  22  23
BRANCH  22  30
ATOM     29  C   UNL     1      -2.571   9.760  17.101  0.00  0.00    +0.000 C 
ATOM     30  C   UNL     1      -1.790  10.983  17.557  0.00  0.00    +0.000 C 
ENDBRANCH  22  30
ENDBRANCH  21  22
ENDBRANCH   1  21
TORSDOF 6
ENDMDL
MODEL 6
REMARK VINA RESULT:      -8.3      5.599      7.136
REMARK  Name = 
REMARK  7 active torsions:
REMARK  status: ('A' for Active; 'I' for Inactive)
REMARK    1  A    between atoms: C_1  and  C_2
REMARK    2  A    between atoms: C_2  and  C_3
REMARK    3  A    between atoms: C_3  and  C_4
REMARK    4  A    between atoms: C_3  and  C_25
REMARK    5  A    between atoms: C_4  and  C_5
REMARK    6  A    between atoms: C_9  and  N_10
REMARK    7  A    between atoms: C_17  and  C_18
REMARK                            x       y       z     vdW  Elec       q    Type
REMARK                         _______ _______ _______ _____ _____    ______ ____
ROOT
ATOM      1  C   UNL     1       1.401   9.298  18.813  0.00  0.00    +0.000 A 
ATOM      2  C   UNL     1       1.181   8.924  20.147  0.00  0.00    +0.000 A 
ATOM      3  C   UNL     1       1.736   7.755  20.657  0.00  0.00    +0.000 A 
ATOM      4  C   UNL     1       2.432   6.893  19.814  0.00  0.00    +0.000 A 
ATOM      5  C   UNL     1       2.514   7.172  18.439  0.00  0.00    +0.000 A 
ATOM      6  C   UNL     1       2.098   8.424  17.971  0.00  0.00    +0.000 A 
ENDROOT
BRANCH   5   7
ATOM      7  N   UNL     1       2.662   6.096  17.477  0.00  0.00    +0.000 N 
ATOM      8  C   UNL     1       1.751   4.972  17.796  0.00  0.00    +0.000 C 
ATOM      9  C   UNL     1       2.635   4.072  18.602  0.00  0.00    +0.000 A 
ATOM     10  C   UNL     1       3.955   4.329  18.224  0.00  0.00    +0.000 A 
ATOM     11  C   UNL     1       5.046   3.795  18.882  0.00  0.00    +0.000 A 
ATOM     12  C   UNL     1       4.787   2.977  19.979  0.00  0.00    +0.000 A 
ATOM     13  C   UNL     1       3.462   2.713  20.379  0.00  0.00    +0.000 A 
ATOM     14  C   UNL     1       2.355   3.251  19.689  0.00  0.00    +0.000 A 
ATOM     15  C   UNL     1       3.955   5.535  17.371  0.00  0.00    +0.000 C 
ATOM     16  O   UNL     1       4.959   6.023  16.877  0.00  0.00    +0.000 OA
BRANCH  14  17
ATOM     17  C   UNL     1       0.963   3.011  20.216  0.00  0.00    +0.000 C 
ATOM     18  F   UNL     1       0.926   2.327  21.392  0.00  0.00    +0.000 F 
ATOM     19  F   UNL     1       0.292   4.172  20.446  0.00  0.00    +0.000 F 
ATOM     20  F   UNL     1       0.196   2.297  19.348  0.00  0.00    +0.000 F 
ENDBRANCH  14  17
ENDBRANCH   5   7
BRANCH   1  21
ATOM     21  C   UNL     1       0.797  10.571  18.262  0.00  0.00    +0.000 C 
BRANCH  21  22
ATOM     22  C   UNL     1      -0.363  11.193  19.068  0.00  0.00    +0.000 C 
BRANCH  22  23
ATOM     23  C   UNL     1      -0.194  12.673  19.241  0.00  0.00    +0.000 A 
ATOM     24  N   UNL     1       0.379  13.298  20.248  0.00  0.00    +0.000 NA
ATOM     25  N   UNL     1       0.303  14.650  20.011  0.00  0.00    +0.000 NA
ATOM     26  C   UNL     1      -0.314  14.821  18.862  0.00  0.00    +0.000 A 
ATOM     27  N   UNL     1      -0.644  13.608  18.345  0.00  0.00    +0.000 N 
ATOM     28  H   UNL     1      -1.086  13.425  17.454  0.00  0.00    +0.000 HD
ENDBRANCH  22  23
BRANCH  22  30
ATOM     29  C   UNL     1      -1.830  10.156  17.216  0.00  0.00    +0.000 C 
ATOM     30  C   UNL     1      -1.783  10.880  18.552  0.00  0.00    +0.000 C 
ENDBRANCH  22  30
ENDBRANCH  21  22
ENDBRANCH   1  21
TORSDOF 6
ENDMDL
MODEL 7
REMARK VINA RESULT:      -8.3      5.548      7.352
REMARK  Name = 
REMARK  7 active torsions:
REMARK  status: ('A' for Active; 'I' for Inactive)
REMARK    1  A    between atoms: C_1  and  C_2
REMARK    2  A    between atoms: C_2  and  C_3
REMARK    3  A    between atoms: C_3  and  C_4
REMARK    4  A    between atoms: C_3  and  C_25
REMARK    5  A    between atoms: C_4  and  C_5
REMARK    6  A    between atoms: C_9  and  N_10
REMARK    7  A    between atoms: C_17  and  C_18
REMARK                            x       y       z     vdW  Elec       q    Type
REMARK                         _______ _______ _______ _____ _____    ______ ____
ROOT
ATOM      1  C   UNL     1       1.411   8.870  19.566  0.00  0.00    +0.000 A 
ATOM      2  C   UNL     1       1.903   9.220  18.300  0.00  0.00    +0.000 A 
ATOM      3  C   UNL     1       2.603   8.296  17.530  0.00  0.00    +0.000 A 
ATOM      4  C   UNL     1       2.908   7.045  18.057  0.00  0.00    +0.000 A 
ATOM      5  C   UNL     1       2.568   6.743  19.387  0.00  0.00    +0.000 A 
ATOM      6  C   UNL     1       1.725   7.611  20.089  0.00  0.00    +0.000 A 
ENDROOT
BRANCH   5   7
ATOM      7  N   UNL     1       3.345   5.779  20.145  0.00  0.00    +0.000 N 
ATOM      8  C   UNL     1       4.550   5.362  19.392  0.00  0.00    +0.000 C 
ATOM      9  C   UNL     1       4.080   4.114  18.715  0.00  0.00    +0.000 A 
ATOM     10  C   UNL     1       3.039   3.584  19.482  0.00  0.00    +0.000 A 
ATOM     11  C   UNL     1       2.260   2.522  19.067  0.00  0.00    +0.000 A 
ATOM     12  C   UNL     1       2.539   1.982  17.813  0.00  0.00    +0.000 A 
ATOM     13  C   UNL     1       3.580   2.508  17.023  0.00  0.00    +0.000 A 
ATOM     14  C   UNL     1       4.380   3.584  17.464  0.00  0.00    +0.000 A 
ATOM     15  C   UNL     1       2.674   4.588  20.503  0.00  0.00    +0.000 C 
ATOM     16  O   UNL     1       1.794   4.429  21.334  0.00  0.00    +0.000 OA
BRANCH  14  17
ATOM     17  C   UNL     1       5.418   4.165  16.539  0.00  0.00    +0.000 C 
ATOM     18  F   UNL     1       5.698   3.385  15.460  0.00  0.00    +0.000 F 
ATOM     19  F   UNL     1       5.040   5.370  16.033  0.00  0.00    +0.000 F 
ATOM     20  F   UNL     1       6.609   4.376  17.163  0.00  0.00    +0.000 F 
ENDBRANCH  14  17
ENDBRANCH   5   7
BRANCH   1  21
ATOM     21  C   UNL     1       0.649   9.877  20.399  0.00  0.00    +0.000 C 
BRANCH  21  22
ATOM     22  C   UNL     1       0.477  11.287  19.796  0.00  0.00    +0.000 C 
BRANCH  22  23
ATOM     23  C   UNL     1      -0.880  11.473  19.185  0.00  0.00    +0.000 A 
ATOM     24  N   UNL     1      -1.967  11.920  19.777  0.00  0.00    +0.000 NA
ATOM     25  N   UNL     1      -2.989  11.915  18.857  0.00  0.00    +0.000 NA
ATOM     26  C   UNL     1      -2.502  11.464  17.721  0.00  0.00    +0.000 A 
ATOM     27  N   UNL     1      -1.184  11.174  17.882  0.00  0.00    +0.000 N 
ATOM     28  H   UNL     1      -0.540  10.852  17.171  0.00  0.00    +0.000 HD
ENDBRANCH  22  23
BRANCH  22  30
ATOM     29  C   UNL     1       1.964  13.334  20.301  0.00  0.00    +0.000 C 
ATOM     30  C   UNL     1       0.796  12.465  20.739  0.00  0.00    +0.000 C 
ENDBRANCH  22  30
ENDBRANCH  21  22
ENDBRANCH   1  21
TORSDOF 6
ENDMDL
MODEL 8
REMARK VINA RESULT:      -8.3      4.437      6.436
REMARK  Name = 
REMARK  7 active torsions:
REMARK  status: ('A' for Active; 'I' for Inactive)
REMARK    1  A    between atoms: C_1  and  C_2
REMARK    2  A    between atoms: C_2  and  C_3
REMARK    3  A    between atoms: C_3  and  C_4
REMARK    4  A    between atoms: C_3  and  C_25
REMARK    5  A    between atoms: C_4  and  C_5
REMARK    6  A    between atoms: C_9  and  N_10
REMARK    7  A    between atoms: C_17  and  C_18
REMARK                            x       y       z     vdW  Elec       q    Type
REMARK                         _______ _______ _______ _____ _____    ______ ____
ROOT
ATOM      1  C   UNL     1       2.173   7.445  19.137  0.00  0.00    +0.000 A 
ATOM      2  C   UNL     1       1.260   7.289  20.190  0.00  0.00    +0.000 A 
ATOM      3  C   UNL     1       1.342   6.195  21.045  0.00  0.00    +0.000 A 
ATOM      4  C   UNL     1       2.273   5.191  20.797  0.00  0.00    +0.000 A 
ATOM      5  C   UNL     1       3.080   5.251  19.648  0.00  0.00    +0.000 A 
ATOM      6  C   UNL     1       3.104   6.429  18.892  0.00  0.00    +0.000 A 
ENDROOT
BRANCH   5   7
ATOM      7  N   UNL     1       3.584   4.035  19.037  0.00  0.00    +0.000 N 
ATOM      8  C   UNL     1       5.047   3.911  19.234  0.00  0.00    +0.000 C 
ATOM      9  C   UNL     1       5.584   4.503  17.969  0.00  0.00    +0.000 A 
ATOM     10  C   UNL     1       4.603   4.358  16.985  0.00  0.00    +0.000 A 
ATOM     11  C   UNL     1       4.695   4.939  15.736  0.00  0.00    +0.000 A 
ATOM     12  C   UNL     1       5.825   5.712  15.477  0.00  0.00    +0.000 A 
ATOM     13  C   UNL     1       6.821   5.875  16.460  0.00  0.00    +0.000 A 
ATOM     14  C   UNL     1       6.723   5.264  17.728  0.00  0.00    +0.000 A 
ATOM     15  C   UNL     1       3.363   3.904  17.647  0.00  0.00    +0.000 C 
ATOM     16  O   UNL     1       2.315   3.684  17.059  0.00  0.00    +0.000 OA
BRANCH  14  17
ATOM     17  C   UNL     1       7.773   5.547  18.772  0.00  0.00    +0.000 C 
ATOM     18  F   UNL     1       7.292   5.587  20.045  0.00  0.00    +0.000 F 
ATOM     19  F   UNL     1       8.758   4.609  18.780  0.00  0.00    +0.000 F 
ATOM     20  F   UNL     1       8.393   6.743  18.573  0.00  0.00    +0.000 F 
ENDBRANCH  14  17
ENDBRANCH   5   7
BRANCH   1  21
ATOM     21  C   UNL     1       2.080   8.637  18.210  0.00  0.00    +0.000 C 
BRANCH  21  22
ATOM     22  C   UNL     1       1.021   9.705  18.558  0.00  0.00    +0.000 C 
BRANCH  22  23
ATOM     23  C   UNL     1       1.615  11.081  18.620  0.00  0.00    +0.000 A 
ATOM     24  N   UNL     1       1.514  11.949  19.604  0.00  0.00    +0.000 NA
ATOM     25  N   UNL     1       2.194  13.088  19.242  0.00  0.00    +0.000 NA
ATOM     26  C   UNL     1       2.696  12.889  18.043  0.00  0.00    +0.000 A 
ATOM     27  N   UNL     1       2.357  11.644  17.616  0.00  0.00    +0.000 N 
ATOM     28  H   UNL     1       2.639  11.199  16.752  0.00  0.00    +0.000 HD
ENDBRANCH  22  23
BRANCH  22  30
ATOM     29  C   UNL     1      -1.474  10.315  18.324  0.00  0.00    +0.000 C 
ATOM     30  C   UNL     1      -0.240   9.714  17.671  0.00  0.00    +0.000 C 
ENDBRANCH  22  30
ENDBRANCH  21  22
ENDBRANCH   1  21
TORSDOF 6
ENDMDL
MODEL 9
REMARK VINA RESULT:      -8.3      4.250      6.925
REMARK  Name = 
REMARK  7 active torsions:
REMARK  status: ('A' for Active; 'I' for Inactive)
REMARK    1  A    between atoms: C_1  and  C_2
REMARK    2  A    between atoms: C_2  and  C_3
REMARK    3  A    between atoms: C_3  and  C_4
REMARK    4  A    between atoms: C_3  and  C_25
REMARK    5  A    between atoms: C_4  and  C_5
REMARK    6  A    between atoms: C_9  and  N_10
REMARK    7  A    between atoms: C_17  and  C_18
REMARK                            x       y       z     vdW  Elec       q    Type
REMARK                         _______ _______ _______ _____ _____    ______ ____
ROOT
ATOM      1  C   UNL     1       1.677   7.470  19.931  0.00  0.00    +0.000 A 
ATOM      2  C   UNL     1       2.017   8.394  18.933  0.00  0.00    +0.000 A 
ATOM      3  C   UNL     1       2.830   8.021  17.867  0.00  0.00    +0.000 A 
ATOM      4  C   UNL     1       3.395   6.750  17.839  0.00  0.00    +0.000 A 
ATOM      5  C   UNL     1       3.199   5.871  18.919  0.00  0.00    +0.000 A 
ATOM      6  C   UNL     1       2.252   6.194  19.898  0.00  0.00    +0.000 A 
ENDROOT
BRANCH   5   7
ATOM      7  N   UNL     1       4.187   4.855  19.231  0.00  0.00    +0.000 N 
ATOM      8  C   UNL     1       5.544   5.445  19.312  0.00  0.00    +0.000 C 
ATOM      9  C   UNL     1       6.069   5.213  17.931  0.00  0.00    +0.000 A 
ATOM     10  C   UNL     1       5.392   4.112  17.401  0.00  0.00    +0.000 A 
ATOM     11  C   UNL     1       5.507   3.717  16.083  0.00  0.00    +0.000 A 
ATOM     12  C   UNL     1       6.334   4.480  15.262  0.00  0.00    +0.000 A 
ATOM     13  C   UNL     1       7.020   5.598  15.777  0.00  0.00    +0.000 A 
ATOM     14  C   UNL     1       6.907   5.982  17.130  0.00  0.00    +0.000 A 
ATOM     15  C   UNL     1       4.281   3.782  18.317  0.00  0.00    +0.000 C 
ATOM     16  O   UNL     1       3.495   2.864  18.136  0.00  0.00    +0.000 OA
BRANCH  14  17
ATOM     17  C   UNL     1       7.589   7.240  17.604  0.00  0.00    +0.000 C 
ATOM     18  F   UNL     1       8.358   7.069  18.715  0.00  0.00    +0.000 F 
ATOM     19  F   UNL     1       8.419   7.762  16.661  0.00  0.00    +0.000 F 
ATOM     20  F   UNL     1       6.704   8.225  17.915  0.00  0.00    +0.000 F 
ENDBRANCH  14  17
ENDBRANCH   5   7
BRANCH   1  21
ATOM     21  C   UNL     1       0.791   7.879  21.088  0.00  0.00    +0.000 C 
BRANCH  21  22
ATOM     22  C   UNL     1       1.019   9.291  21.668  0.00  0.00    +0.000 C 
BRANCH  22  23
ATOM     23  C   UNL     1       0.485  10.360  20.763  0.00  0.00    +0.000 A 
ATOM     24  N   UNL     1       0.987  11.561  20.563  0.00  0.00    +0.000 NA
ATOM     25  N   UNL     1       0.177  12.221  19.669  0.00  0.00    +0.000 NA
ATOM     26  C   UNL     1      -0.803  11.407  19.342  0.00  0.00    +0.000 A 
ATOM     27  N   UNL     1      -0.649  10.230  20.004  0.00  0.00    +0.000 N 
ATOM     28  H   UNL     1      -1.225   9.403  19.918  0.00  0.00    +0.000 HD
ENDBRANCH  22  23
BRANCH  22  30
ATOM     29  C   UNL     1      -0.844  10.199  23.205  0.00  0.00    +0.000 C 
ATOM     30  C   UNL     1       0.510   9.515  23.107  0.00  0.00    +0.000 C 
ENDBRANCH  22  30
ENDBRANCH  21  22
ENDBRANCH   1  21
TORSDOF 6
ENDMDL
