MODEL 1
REMARK VINA RESULT:      -8.6      0.000      0.000
REMARK  Name = 
REMARK  4 active torsions:
REMARK  status: ('A' for Active; 'I' for Inactive)
REMARK    1  A    between atoms: C_2  and  C_16
REMARK    2  A    between atoms: N_3  and  C_4
REMARK    3  A    between atoms: C_8  and  C_9
REMARK    4  A    between atoms: C_20  and  C_21
REMARK                            x       y       z     vdW  Elec       q    Type
REMARK                         _______ _______ _______ _____ _____    ______ ____
ROOT
ATOM      1  O   UNL     1       1.152   8.363  20.530  0.00  0.00    +0.000 OA
ATOM      2  C   UNL     1       1.704   8.328  19.437  0.00  0.00    +0.000 C 
ATOM      3  N   UNL     1       1.616   9.287  18.436  0.00  0.00    +0.000 N 
ATOM      4  H   UNL     1       1.992   9.042  17.529  0.00  0.00    +0.000 HD
ENDROOT
BRANCH   3   5
ATOM      5  C   UNL     1       0.890  10.496  18.518  0.00  0.00    +0.000 A 
ATOM      6  C   UNL     1       1.488  11.719  18.816  0.00  0.00    +0.000 A 
ATOM      7  C   UNL     1       0.721  12.868  18.951  0.00  0.00    +0.000 A 
ATOM      8  C   UNL     1      -0.657  12.813  18.762  0.00  0.00    +0.000 A 
ATOM      9  C   UNL     1      -1.298  11.617  18.394  0.00  0.00    +0.000 A 
ATOM     10  C   UNL     1      -0.496  10.458  18.287  0.00  0.00    +0.000 A 
BRANCH   9  11
ATOM     11  C   UNL     1      -2.752  11.601  18.107  0.00  0.00    +0.000 A 
ATOM     12  C   UNL     1      -3.685  11.949  19.099  0.00  0.00    +0.000 A 
ATOM     13  C   UNL     1      -5.040  11.934  18.808  0.00  0.00    +0.000 A 
ATOM     14  N   UNL     1      -5.541  11.612  17.600  0.00  0.00    +0.000 NA
ATOM     15  C   UNL     1      -4.643  11.282  16.650  0.00  0.00    +0.000 A 
ATOM     16  C   UNL     1      -3.271  11.256  16.851  0.00  0.00    +0.000 A 
ENDBRANCH   9  11
ENDBRANCH   3   5
BRANCH   2  17
ATOM     17  C   UNL     1       2.494   7.111  19.121  0.00  0.00    +0.000 A 
ATOM     18  C   UNL     1       2.355   6.013  19.979  0.00  0.00    +0.000 A 
ATOM     19  C   UNL     1       3.097   4.858  19.765  0.00  0.00    +0.000 A 
ATOM     20  C   UNL     1       3.975   4.792  18.685  0.00  0.00    +0.000 A 
ATOM     21  C   UNL     1       4.111   5.874  17.796  0.00  0.00    +0.000 A 
ATOM     22  C   UNL     1       3.375   7.047  18.035  0.00  0.00    +0.000 A 
BRANCH  21  23
ATOM     23  C   UNL     1       4.980   5.756  16.558  0.00  0.00    +0.000 C 
ATOM     24  C   UNL     1       4.866   4.337  15.972  0.00  0.00    +0.000 C 
ATOM     25  C   UNL     1       5.825   4.137  14.808  0.00  0.00    +0.000 C 
ATOM     26  C   UNL     1       7.231   4.566  15.199  0.00  0.00    +0.000 C 
ATOM     27  O   UNL     1       7.234   5.930  15.620  0.00  0.00    +0.000 OA
ATOM     28  C   UNL     1       6.450   6.131  16.802  0.00  0.00    +0.000 C 
ENDBRANCH  21  23
ENDBRANCH   2  17
TORSDOF 4
ENDMDL
MODEL 2
REMARK VINA RESULT:      -8.6      2.081      3.534
REMARK  Name = 
REMARK  4 active torsions:
REMARK  status: ('A' for Active; 'I' for Inactive)
REMARK    1  A    between atoms: C_2  and  C_16
REMARK    2  A    between atoms: N_3  and  C_4
REMARK    3  A    between atoms: C_8  and  C_9
REMARK    4  A    between atoms: C_20  and  C_21
REMARK                            x       y       z     vdW  Elec       q    Type
REMARK                         _______ _______ _______ _____ _____    ______ ____
ROOT
ATOM      1  O   UNL     1       2.071   9.675  17.265  0.00  0.00    +0.000 OA
ATOM      2  C   UNL     1       1.947   8.850  18.161  0.00  0.00    +0.000 C 
ATOM      3  N   UNL     1       1.195   8.996  19.320  0.00  0.00    +0.000 N 
ATOM      4  H   UNL     1       1.322   8.299  20.043  0.00  0.00    +0.000 HD
ENDROOT
BRANCH   3   5
ATOM      5  C   UNL     1       0.411  10.123  19.654  0.00  0.00    +0.000 A 
ATOM      6  C   UNL     1       0.810  11.069  20.597  0.00  0.00    +0.000 A 
ATOM      7  C   UNL     1      -0.026  12.123  20.940  0.00  0.00    +0.000 A 
ATOM      8  C   UNL     1      -1.265  12.260  20.320  0.00  0.00    +0.000 A 
ATOM      9  C   UNL     1      -1.683  11.370  19.315  0.00  0.00    +0.000 A 
ATOM     10  C   UNL     1      -0.823  10.294  19.004  0.00  0.00    +0.000 A 
BRANCH   9  11
ATOM     11  C   UNL     1      -2.965  11.590  18.604  0.00  0.00    +0.000 A 
ATOM     12  C   UNL     1      -3.105  11.243  17.249  0.00  0.00    +0.000 A 
ATOM     13  C   UNL     1      -4.315  11.450  16.605  0.00  0.00    +0.000 A 
ATOM     14  N   UNL     1      -5.403  11.966  17.207  0.00  0.00    +0.000 NA
ATOM     15  C   UNL     1      -5.266  12.295  18.507  0.00  0.00    +0.000 A 
ATOM     16  C   UNL     1      -4.094  12.136  19.231  0.00  0.00    +0.000 A 
ENDBRANCH   9  11
ENDBRANCH   3   5
BRANCH   2  17
ATOM     17  C   UNL     1       2.728   7.593  18.033  0.00  0.00    +0.000 A 
ATOM     18  C   UNL     1       3.889   7.636  17.251  0.00  0.00    +0.000 A 
ATOM     19  C   UNL     1       4.643   6.485  17.055  0.00  0.00    +0.000 A 
ATOM     20  C   UNL     1       4.244   5.289  17.649  0.00  0.00    +0.000 A 
ATOM     21  C   UNL     1       3.096   5.231  18.459  0.00  0.00    +0.000 A 
ATOM     22  C   UNL     1       2.325   6.393  18.630  0.00  0.00    +0.000 A 
BRANCH  21  23
ATOM     23  C   UNL     1       2.729   3.956  19.195  0.00  0.00    +0.000 C 
ATOM     24  C   UNL     1       1.527   4.215  20.122  0.00  0.00    +0.000 C 
ATOM     25  C   UNL     1       1.213   2.997  20.978  0.00  0.00    +0.000 C 
ATOM     26  C   UNL     1       2.471   2.497  21.672  0.00  0.00    +0.000 C 
ATOM     27  O   UNL     1       3.478   2.185  20.710  0.00  0.00    +0.000 OA
ATOM     28  C   UNL     1       3.901   3.341  19.977  0.00  0.00    +0.000 C 
ENDBRANCH  21  23
ENDBRANCH   2  17
TORSDOF 4
ENDMDL
MODEL 3
REMARK VINA RESULT:      -8.6      0.568      1.054
REMARK  Name = 
REMARK  4 active torsions:
REMARK  status: ('A' for Active; 'I' for Inactive)
REMARK    1  A    between atoms: C_2  and  C_16
REMARK    2  A    between atoms: N_3  and  C_4
REMARK    3  A    between atoms: C_8  and  C_9
REMARK    4  A    between atoms: C_20  and  C_21
REMARK                            x       y       z     vdW  Elec       q    Type
REMARK                         _______ _______ _______ _____ _____    ______ ____
ROOT
ATOM      1  O   UNL     1       1.276   7.859  20.947  0.00  0.00    +0.000 OA
ATOM      2  C   UNL     1       1.756   7.926  19.823  0.00  0.00    +0.000 C 
ATOM      3  N   UNL     1       1.570   8.953  18.905  0.00  0.00    +0.000 N 
ATOM      4  H   UNL     1       1.892   8.790  17.960  0.00  0.00    +0.000 HD
ENDROOT
BRANCH   3   5
ATOM      5  C   UNL     1       0.811  10.124  19.125  0.00  0.00    +0.000 A 
ATOM      6  C   UNL     1       1.283  11.202  19.871  0.00  0.00    +0.000 A 
ATOM      7  C   UNL     1       0.473  12.303  20.115  0.00  0.00    +0.000 A 
ATOM      8  C   UNL     1      -0.815  12.351  19.590  0.00  0.00    +0.000 A 
ATOM      9  C   UNL     1      -1.313  11.318  18.776  0.00  0.00    +0.000 A 
ATOM     10  C   UNL     1      -0.476  10.200  18.564  0.00  0.00    +0.000 A 
BRANCH   9  11
ATOM     11  C   UNL     1      -2.653  11.433  18.152  0.00  0.00    +0.000 A 
ATOM     12  C   UNL     1      -2.854  11.070  16.809  0.00  0.00    +0.000 A 
ATOM     13  C   UNL     1      -4.117  11.179  16.247  0.00  0.00    +0.000 A 
ATOM     14  N   UNL     1      -5.200  11.611  16.921  0.00  0.00    +0.000 NA
ATOM     15  C   UNL     1      -5.003  11.957  18.209  0.00  0.00    +0.000 A 
ATOM     16  C   UNL     1      -3.776  11.893  18.854  0.00  0.00    +0.000 A 
ENDBRANCH   9  11
ENDBRANCH   3   5
BRANCH   2  17
ATOM     17  C   UNL     1       2.563   6.767  19.365  0.00  0.00    +0.000 A 
ATOM     18  C   UNL     1       2.478   5.588  20.116  0.00  0.00    +0.000 A 
ATOM     19  C   UNL     1       3.240   4.479  19.767  0.00  0.00    +0.000 A 
ATOM     20  C   UNL     1       4.081   4.542  18.659  0.00  0.00    +0.000 A 
ATOM     21  C   UNL     1       4.162   5.707  17.875  0.00  0.00    +0.000 A 
ATOM     22  C   UNL     1       3.408   6.832  18.251  0.00  0.00    +0.000 A 
BRANCH  21  23
ATOM     23  C   UNL     1       4.991   5.733  16.605  0.00  0.00    +0.000 C 
ATOM     24  C   UNL     1       4.826   4.404  15.847  0.00  0.00    +0.000 C 
ATOM     25  C   UNL     1       5.746   4.337  14.636  0.00  0.00    +0.000 C 
ATOM     26  C   UNL     1       7.173   4.683  15.034  0.00  0.00    +0.000 C 
ATOM     27  O   UNL     1       7.221   5.981  15.626  0.00  0.00    +0.000 OA
ATOM     28  C   UNL     1       6.477   6.044  16.849  0.00  0.00    +0.000 C 
ENDBRANCH  21  23
ENDBRANCH   2  17
TORSDOF 4
ENDMDL
MODEL 4
REMARK VINA RESULT:      -8.4      1.122      1.685
REMARK  Name = 
REMARK  4 active torsions:
REMARK  status: ('A' for Active; 'I' for Inactive)
REMARK    1  A    between atoms: C_2  and  C_16
REMARK    2  A    between atoms: N_3  and  C_4
REMARK    3  A    between atoms: C_8  and  C_9
REMARK    4  A    between atoms: C_20  and  C_21
REMARK                            x       y       z     vdW  Elec       q    Type
REMARK                         _______ _______ _______ _____ _____    ______ ____
ROOT
ATOM      1  O   UNL     1       2.289   8.782  17.432  0.00  0.00    +0.000 OA
ATOM      2  C   UNL     1       1.948   8.354  18.527  0.00  0.00    +0.000 C 
ATOM      3  N   UNL     1       1.149   9.006  19.456  0.00  0.00    +0.000 N 
ATOM      4  H   UNL     1       1.091   8.600  20.381  0.00  0.00    +0.000 HD
ENDROOT
BRANCH   3   5
ATOM      5  C   UNL     1       0.560  10.279  19.284  0.00  0.00    +0.000 A 
ATOM      6  C   UNL     1       1.262  11.469  19.468  0.00  0.00    +0.000 A 
ATOM      7  C   UNL     1       0.620  12.694  19.353  0.00  0.00    +0.000 A 
ATOM      8  C   UNL     1      -0.732  12.746  19.022  0.00  0.00    +0.000 A 
ATOM      9  C   UNL     1      -1.466  11.576  18.761  0.00  0.00    +0.000 A 
ATOM     10  C   UNL     1      -0.794  10.342  18.910  0.00  0.00    +0.000 A 
BRANCH   9  11
ATOM     11  C   UNL     1      -2.879  11.659  18.321  0.00  0.00    +0.000 A 
ATOM     12  C   UNL     1      -3.258  11.234  17.036  0.00  0.00    +0.000 A 
ATOM     13  C   UNL     1      -4.586  11.314  16.646  0.00  0.00    +0.000 A 
ATOM     14  N   UNL     1      -5.572  11.774  17.441  0.00  0.00    +0.000 NA
ATOM     15  C   UNL     1      -5.205  12.178  18.673  0.00  0.00    +0.000 A 
ATOM     16  C   UNL     1      -3.901  12.147  19.147  0.00  0.00    +0.000 A 
ENDBRANCH   9  11
ENDBRANCH   3   5
BRANCH   2  17
ATOM     17  C   UNL     1       2.495   7.035  18.934  0.00  0.00    +0.000 A 
ATOM     18  C   UNL     1       1.913   6.414  20.046  0.00  0.00    +0.000 A 
ATOM     19  C   UNL     1       2.405   5.198  20.506  0.00  0.00    +0.000 A 
ATOM     20  C   UNL     1       3.474   4.593  19.849  0.00  0.00    +0.000 A 
ATOM     21  C   UNL     1       4.057   5.188  18.715  0.00  0.00    +0.000 A 
ATOM     22  C   UNL     1       3.570   6.429  18.273  0.00  0.00    +0.000 A 
BRANCH  21  23
ATOM     23  C   UNL     1       5.144   4.472  17.936  0.00  0.00    +0.000 C 
ATOM     24  C   UNL     1       6.485   5.207  18.115  0.00  0.00    +0.000 C 
ATOM     25  C   UNL     1       7.573   4.598  17.242  0.00  0.00    +0.000 C 
ATOM     26  C   UNL     1       7.091   4.470  15.805  0.00  0.00    +0.000 C 
ATOM     27  O   UNL     1       5.904   3.678  15.749  0.00  0.00    +0.000 OA
ATOM     28  C   UNL     1       4.814   4.291  16.446  0.00  0.00    +0.000 C 
ENDBRANCH  21  23
ENDBRANCH   2  17
TORSDOF 4
ENDMDL
MODEL 5
REMARK VINA RESULT:      -8.3      3.196      9.376
REMARK  Name = 
REMARK  4 active torsions:
REMARK  status: ('A' for Active; 'I' for Inactive)
REMARK    1  A    between atoms: C_2  and  C_16
REMARK    2  A    between atoms: N_3  and  C_4
REMARK    3  A    between atoms: C_8  and  C_9
REMARK    4  A    between atoms: C_20  and  C_21
REMARK                            x       y       z     vdW  Elec       q    Type
REMARK                         _______ _______ _______ _____ _____    ______ ____
ROOT
ATOM      1  O   UNL     1       2.064   8.138  19.152  0.00  0.00    +0.000 OA
ATOM      2  C   UNL     1       1.616   7.881  20.263  0.00  0.00    +0.000 C 
ATOM      3  N   UNL     1       1.622   6.641  20.889  0.00  0.00    +0.000 N 
ATOM      4  H   UNL     1       1.070   6.547  21.731  0.00  0.00    +0.000 HD
ENDROOT
BRANCH   3   5
ATOM      5  C   UNL     1       2.179   5.455  20.359  0.00  0.00    +0.000 A 
ATOM      6  C   UNL     1       1.616   4.197  20.565  0.00  0.00    +0.000 A 
ATOM      7  C   UNL     1       2.238   3.055  20.080  0.00  0.00    +0.000 A 
ATOM      8  C   UNL     1       3.422   3.160  19.356  0.00  0.00    +0.000 A 
ATOM      9  C   UNL     1       3.994   4.411  19.064  0.00  0.00    +0.000 A 
ATOM     10  C   UNL     1       3.352   5.555  19.591  0.00  0.00    +0.000 A 
BRANCH   9  11
ATOM     11  C   UNL     1       5.203   4.504  18.213  0.00  0.00    +0.000 A 
ATOM     12  C   UNL     1       6.424   4.954  18.745  0.00  0.00    +0.000 A 
ATOM     13  C   UNL     1       7.546   5.027  17.933  0.00  0.00    +0.000 A 
ATOM     14  N   UNL     1       7.551   4.676  16.632  0.00  0.00    +0.000 NA
ATOM     15  C   UNL     1       6.378   4.243  16.127  0.00  0.00    +0.000 A 
ATOM     16  C   UNL     1       5.203   4.147  16.857  0.00  0.00    +0.000 A 
ENDBRANCH   9  11
ENDBRANCH   3   5
BRANCH   2  17
ATOM     17  C   UNL     1       0.940   8.986  20.989  0.00  0.00    +0.000 A 
ATOM     18  C   UNL     1       0.387   8.688  22.240  0.00  0.00    +0.000 A 
ATOM     19  C   UNL     1      -0.296   9.666  22.954  0.00  0.00    +0.000 A 
ATOM     20  C   UNL     1      -0.421  10.948  22.423  0.00  0.00    +0.000 A 
ATOM     21  C   UNL     1       0.149  11.274  21.179  0.00  0.00    +0.000 A 
ATOM     22  C   UNL     1       0.816  10.273  20.453  0.00  0.00    +0.000 A 
BRANCH  21  23
ATOM     23  C   UNL     1       0.110  12.698  20.657  0.00  0.00    +0.000 C 
ATOM     24  C   UNL     1      -0.306  12.701  19.175  0.00  0.00    +0.000 C 
ATOM     25  C   UNL     1      -0.227  14.098  18.578  0.00  0.00    +0.000 C 
ATOM     26  C   UNL     1       1.128  14.726  18.872  0.00  0.00    +0.000 C 
ATOM     27  O   UNL     1       1.358  14.770  20.280  0.00  0.00    +0.000 OA
ATOM     28  C   UNL     1       1.429  13.461  20.857  0.00  0.00    +0.000 C 
ENDBRANCH  21  23
ENDBRANCH   2  17
TORSDOF 4
ENDMDL
MODEL 6
REMARK VINA RESULT:      -8.3      1.202      1.508
REMARK  Name = 
REMARK  4 active torsions:
REMARK  status: ('A' for Active; 'I' for Inactive)
REMARK    1  A    between atoms: C_2  and  C_16
REMARK    2  A    between atoms: N_3  and  C_4
REMARK    3  A    between atoms: C_8  and  C_9
REMARK    4  A    between atoms: C_20  and  C_21
REMARK                            x       y       z     vdW  Elec       q    Type
REMARK                         _______ _______ _______ _____ _____    ______ ____
ROOT
ATOM      1  O   UNL     1       2.034   9.704  17.434  0.00  0.00    +0.000 OA
ATOM      2  C   UNL     1       1.876   9.021  18.439  0.00  0.00    +0.000 C 
ATOM      3  N   UNL     1       1.089   9.340  19.538  0.00  0.00    +0.000 N 
ATOM      4  H   UNL     1       1.189   8.758  20.360  0.00  0.00    +0.000 HD
ENDROOT
BRANCH   3   5
ATOM      5  C   UNL     1       0.303  10.505  19.677  0.00  0.00    +0.000 A 
ATOM      6  C   UNL     1       0.736  11.632  20.375  0.00  0.00    +0.000 A 
ATOM      7  C   UNL     1      -0.100  12.727  20.540  0.00  0.00    +0.000 A 
ATOM      8  C   UNL     1      -1.376  12.721  19.982  0.00  0.00    +0.000 A 
ATOM      9  C   UNL     1      -1.834  11.636  19.213  0.00  0.00    +0.000 A 
ATOM     10  C   UNL     1      -0.970  10.525  19.082  0.00  0.00    +0.000 A 
BRANCH   9  11
ATOM     11  C   UNL     1      -3.159  11.690  18.552  0.00  0.00    +0.000 A 
ATOM     12  C   UNL     1      -3.309  11.306  17.209  0.00  0.00    +0.000 A 
ATOM     13  C   UNL     1      -4.559  11.358  16.612  0.00  0.00    +0.000 A 
ATOM     14  N   UNL     1      -5.677  11.753  17.251  0.00  0.00    +0.000 NA
ATOM     15  C   UNL     1      -5.529  12.118  18.540  0.00  0.00    +0.000 A 
ATOM     16  C   UNL     1      -4.319  12.111  19.218  0.00  0.00    +0.000 A 
ENDBRANCH   9  11
ENDBRANCH   3   5
BRANCH   2  17
ATOM     17  C   UNL     1       2.652   7.758  18.523  0.00  0.00    +0.000 A 
ATOM     18  C   UNL     1       2.249   6.820  19.481  0.00  0.00    +0.000 A 
ATOM     19  C   UNL     1       2.958   5.635  19.641  0.00  0.00    +0.000 A 
ATOM     20  C   UNL     1       4.065   5.379  18.836  0.00  0.00    +0.000 A 
ATOM     21  C   UNL     1       4.471   6.297  17.850  0.00  0.00    +0.000 A 
ATOM     22  C   UNL     1       3.765   7.504  17.713  0.00  0.00    +0.000 A 
BRANCH  21  23
ATOM     23  C   UNL     1       5.606   5.964  16.901  0.00  0.00    +0.000 C 
ATOM     24  C   UNL     1       5.038   5.573  15.524  0.00  0.00    +0.000 C 
ATOM     25  C   UNL     1       6.137   5.103  14.582  0.00  0.00    +0.000 C 
ATOM     26  C   UNL     1       6.994   4.041  15.255  0.00  0.00    +0.000 C 
ATOM     27  O   UNL     1       7.557   4.551  16.464  0.00  0.00    +0.000 OA
ATOM     28  C   UNL     1       6.552   4.875  17.432  0.00  0.00    +0.000 C 
ENDBRANCH  21  23
ENDBRANCH   2  17
TORSDOF 4
ENDMDL
MODEL 7
REMARK VINA RESULT:      -8.3      3.171      9.630
REMARK  Name = 
REMARK  4 active torsions:
REMARK  status: ('A' for Active; 'I' for Inactive)
REMARK    1  A    between atoms: C_2  and  C_16
REMARK    2  A    between atoms: N_3  and  C_4
REMARK    3  A    between atoms: C_8  and  C_9
REMARK    4  A    between atoms: C_20  and  C_21
REMARK                            x       y       z     vdW  Elec       q    Type
REMARK                         _______ _______ _______ _____ _____    ______ ____
ROOT
ATOM      1  O   UNL     1       2.152   8.037  19.196  0.00  0.00    +0.000 OA
ATOM      2  C   UNL     1       1.638   7.788  20.280  0.00  0.00    +0.000 C 
ATOM      3  N   UNL     1       1.627   6.558  20.925  0.00  0.00    +0.000 N 
ATOM      4  H   UNL     1       1.023   6.466  21.731  0.00  0.00    +0.000 HD
ENDROOT
BRANCH   3   5
ATOM      5  C   UNL     1       2.239   5.376  20.452  0.00  0.00    +0.000 A 
ATOM      6  C   UNL     1       1.752   4.103  20.743  0.00  0.00    +0.000 A 
ATOM      7  C   UNL     1       2.428   2.970  20.310  0.00  0.00    +0.000 A 
ATOM      8  C   UNL     1       3.589   3.097  19.553  0.00  0.00    +0.000 A 
ATOM      9  C   UNL     1       4.083   4.359  19.177  0.00  0.00    +0.000 A 
ATOM     10  C   UNL     1       3.389   5.494  19.651  0.00  0.00    +0.000 A 
BRANCH   9  11
ATOM     11  C   UNL     1       5.268   4.468  18.293  0.00  0.00    +0.000 A 
ATOM     12  C   UNL     1       5.187   4.120  16.934  0.00  0.00    +0.000 A 
ATOM     13  C   UNL     1       6.306   4.236  16.124  0.00  0.00    +0.000 A 
ATOM     14  N   UNL     1       7.499   4.684  16.558  0.00  0.00    +0.000 NA
ATOM     15  C   UNL     1       7.573   5.020  17.861  0.00  0.00    +0.000 A 
ATOM     16  C   UNL     1       6.512   4.926  18.751  0.00  0.00    +0.000 A 
ENDBRANCH   9  11
ENDBRANCH   3   5
BRANCH   2  17
ATOM     17  C   UNL     1       0.896   8.890  20.942  0.00  0.00    +0.000 A 
ATOM     18  C   UNL     1       0.711   8.798  22.327  0.00  0.00    +0.000 A 
ATOM     19  C   UNL     1      -0.012   9.774  23.003  0.00  0.00    +0.000 A 
ATOM     20  C   UNL     1      -0.543  10.852  22.298  0.00  0.00    +0.000 A 
ATOM     21  C   UNL     1      -0.347  10.977  20.910  0.00  0.00    +0.000 A 
ATOM     22  C   UNL     1       0.363   9.971  20.231  0.00  0.00    +0.000 A 
BRANCH  21  23
ATOM     23  C   UNL     1      -0.828  12.208  20.166  0.00  0.00    +0.000 C 
ATOM     24  C   UNL     1       0.274  12.706  19.214  0.00  0.00    +0.000 C 
ATOM     25  C   UNL     1      -0.118  14.017  18.548  0.00  0.00    +0.000 C 
ATOM     26  C   UNL     1      -0.579  15.025  19.590  0.00  0.00    +0.000 C 
ATOM     27  O   UNL     1      -1.674  14.498  20.338  0.00  0.00    +0.000 OA
ATOM     28  C   UNL     1      -1.303  13.338  21.092  0.00  0.00    +0.000 C 
ENDBRANCH  21  23
ENDBRANCH   2  17
TORSDOF 4
ENDMDL
MODEL 8
REMARK VINA RESULT:      -8.2      3.370      9.556
REMARK  Name = 
REMARK  4 active torsions:
REMARK  status: ('A' for Active; 'I' for Inactive)
REMARK    1  A    between atoms: C_2  and  C_16
REMARK    2  A    between atoms: N_3  and  C_4
REMARK    3  A    between atoms: C_8  and  C_9
REMARK    4  A    between atoms: C_20  and  C_21
REMARK                            x       y       z     vdW  Elec       q    Type
REMARK                         _______ _______ _______ _____ _____    ______ ____
ROOT
ATOM      1  O   UNL     1       1.729   8.391  19.178  0.00  0.00    +0.000 OA
ATOM      2  C   UNL     1       1.386   8.164  20.332  0.00  0.00    +0.000 C 
ATOM      3  N   UNL     1       1.484   6.949  20.998  0.00  0.00    +0.000 N 
ATOM      4  H   UNL     1       1.008   6.872  21.888  0.00  0.00    +0.000 HD
ENDROOT
BRANCH   3   5
ATOM      5  C   UNL     1       2.029   5.760  20.464  0.00  0.00    +0.000 A 
ATOM      6  C   UNL     1       1.393   4.524  20.566  0.00  0.00    +0.000 A 
ATOM      7  C   UNL     1       2.002   3.373  20.084  0.00  0.00    +0.000 A 
ATOM      8  C   UNL     1       3.247   3.449  19.466  0.00  0.00    +0.000 A 
ATOM      9  C   UNL     1       3.898   4.682  19.279  0.00  0.00    +0.000 A 
ATOM     10  C   UNL     1       3.266   5.833  19.801  0.00  0.00    +0.000 A 
BRANCH   9  11
ATOM     11  C   UNL     1       5.179   4.750  18.537  0.00  0.00    +0.000 A 
ATOM     12  C   UNL     1       5.267   4.289  17.212  0.00  0.00    +0.000 A 
ATOM     13  C   UNL     1       6.473   4.368  16.533  0.00  0.00    +0.000 A 
ATOM     14  N   UNL     1       7.599   4.881  17.066  0.00  0.00    +0.000 NA
ATOM     15  C   UNL     1       7.509   5.324  18.336  0.00  0.00    +0.000 A 
ATOM     16  C   UNL     1       6.351   5.276  19.098  0.00  0.00    +0.000 A 
ENDBRANCH   9  11
ENDBRANCH   3   5
BRANCH   2  17
ATOM     17  C   UNL     1       0.741   9.277  21.074  0.00  0.00    +0.000 A 
ATOM     18  C   UNL     1       0.062   8.952  22.254  0.00  0.00    +0.000 A 
ATOM     19  C   UNL     1      -0.600   9.939  22.975  0.00  0.00    +0.000 A 
ATOM     20  C   UNL     1      -0.576  11.257  22.524  0.00  0.00    +0.000 A 
ATOM     21  C   UNL     1       0.123  11.608  21.354  0.00  0.00    +0.000 A 
ATOM     22  C   UNL     1       0.767  10.600  20.618  0.00  0.00    +0.000 A 
BRANCH  21  23
ATOM     23  C   UNL     1       0.243  13.060  20.929  0.00  0.00    +0.000 C 
ATOM     24  C   UNL     1      -1.157  13.645  20.667  0.00  0.00    +0.000 C 
ATOM     25  C   UNL     1      -1.073  15.058  20.109  0.00  0.00    +0.000 C 
ATOM     26  C   UNL     1      -0.119  15.106  18.925  0.00  0.00    +0.000 C 
ATOM     27  O   UNL     1       1.175  14.644  19.313  0.00  0.00    +0.000 OA
ATOM     28  C   UNL     1       1.160  13.269  19.713  0.00  0.00    +0.000 C 
ENDBRANCH  21  23
ENDBRANCH   2  17
TORSDOF 4
ENDMDL
MODEL 9
REMARK VINA RESULT:      -8.2      1.030      1.707
REMARK  Name = 
REMARK  4 active torsions:
REMARK  status: ('A' for Active; 'I' for Inactive)
REMARK    1  A    between atoms: C_2  and  C_16
REMARK    2  A    between atoms: N_3  and  C_4
REMARK    3  A    between atoms: C_8  and  C_9
REMARK    4  A    between atoms: C_20  and  C_21
REMARK                            x       y       z     vdW  Elec       q    Type
REMARK                         _______ _______ _______ _____ _____    ______ ____
ROOT
ATOM      1  O   UNL     1       1.296   8.205  21.151  0.00  0.00    +0.000 OA
ATOM      2  C   UNL     1       1.697   7.832  20.055  0.00  0.00    +0.000 C 
ATOM      3  N   UNL     1       1.611   8.536  18.861  0.00  0.00    +0.000 N 
ATOM      4  H   UNL     1       1.833   8.033  18.012  0.00  0.00    +0.000 HD
ENDROOT
BRANCH   3   5
ATOM      5  C   UNL     1       1.070   9.832  18.708  0.00  0.00    +0.000 A 
ATOM      6  C   UNL     1       1.829  10.992  18.860  0.00  0.00    +0.000 A 
ATOM      7  C   UNL     1       1.235  12.243  18.766  0.00  0.00    +0.000 A 
ATOM      8  C   UNL     1      -0.125  12.351  18.489  0.00  0.00    +0.000 A 
ATOM      9  C   UNL     1      -0.919  11.213  18.262  0.00  0.00    +0.000 A 
ATOM     10  C   UNL     1      -0.293   9.952  18.388  0.00  0.00    +0.000 A 
BRANCH   9  11
ATOM     11  C   UNL     1      -2.343  11.355  17.878  0.00  0.00    +0.000 A 
ATOM     12  C   UNL     1      -2.771  11.046  16.575  0.00  0.00    +0.000 A 
ATOM     13  C   UNL     1      -4.109  11.180  16.239  0.00  0.00    +0.000 A 
ATOM     14  N   UNL     1      -5.060  11.586  17.102  0.00  0.00    +0.000 NA
ATOM     15  C   UNL     1      -4.646  11.878  18.351  0.00  0.00    +0.000 A 
ATOM     16  C   UNL     1      -3.329  11.786  18.777  0.00  0.00    +0.000 A 
ENDBRANCH   9  11
ENDBRANCH   3   5
BRANCH   2  17
ATOM     17  C   UNL     1       2.270   6.464  19.978  0.00  0.00    +0.000 A 
ATOM     18  C   UNL     1       1.668   5.470  20.760  0.00  0.00    +0.000 A 
ATOM     19  C   UNL     1       2.181   4.179  20.767  0.00  0.00    +0.000 A 
ATOM     20  C   UNL     1       3.292   3.873  19.983  0.00  0.00    +0.000 A 
ATOM     21  C   UNL     1       3.896   4.851  19.171  0.00  0.00    +0.000 A 
ATOM     22  C   UNL     1       3.386   6.160  19.190  0.00  0.00    +0.000 A 
BRANCH  21  23
ATOM     23  C   UNL     1       5.032   4.487  18.234  0.00  0.00    +0.000 C 
ATOM     24  C   UNL     1       6.317   5.220  18.661  0.00  0.00    +0.000 C 
ATOM     25  C   UNL     1       7.446   4.987  17.668  0.00  0.00    +0.000 C 
ATOM     26  C   UNL     1       6.975   5.277  16.251  0.00  0.00    +0.000 C 
ATOM     27  O   UNL     1       5.849   4.463  15.926  0.00  0.00    +0.000 OA
ATOM     28  C   UNL     1       4.716   4.754  16.753  0.00  0.00    +0.000 C 
ENDBRANCH  21  23
ENDBRANCH   2  17
TORSDOF 4
ENDMDL
