MODEL 1
REMARK VINA RESULT:      -9.0      0.000      0.000
REMARK  Name = 
REMARK  4 active torsions:
REMARK  status: ('A' for Active; 'I' for Inactive)
REMARK    1  A    between atoms: N_3  and  C_4
REMARK    2  A    between atoms: C_4  and  C_5
REMARK    3  A    between atoms: C_5  and  C_6
REMARK    4  A    between atoms: C_13  and  O_14
REMARK                            x       y       z     vdW  Elec       q    Type
REMARK                         _______ _______ _______ _____ _____    ______ ____
ROOT
ATOM      1  O   UNL     1       4.053   2.294  18.794  0.00  0.00    +0.000 OA
ATOM      2  C   UNL     1       3.758   3.477  18.664  0.00  0.00    +0.000 C 
ATOM      3  N   UNL     1       4.078   4.215  17.567  0.00  0.00    +0.000 N 
ATOM      4  N   UNL     1       3.038   4.102  19.640  0.00  0.00    +0.000 N 
ATOM      5  C   UNL     1       2.580   5.422  19.678  0.00  0.00    +0.000 A 
ATOM      6  C   UNL     1       1.839   5.828  20.791  0.00  0.00    +0.000 A 
ATOM      7  C   UNL     1       1.345   7.135  20.845  0.00  0.00    +0.000 A 
ATOM      8  C   UNL     1       1.612   7.972  19.779  0.00  0.00    +0.000 A 
ATOM      9  C   UNL     1       2.361   7.490  18.723  0.00  0.00    +0.000 A 
ATOM     10  N   UNL     1       2.857   6.247  18.642  0.00  0.00    +0.000 NA
ATOM     11  C   UNL     1       2.545   8.511  17.646  0.00  0.00    +0.000 C 
ATOM     12  C   UNL     1       1.780   9.726  18.185  0.00  0.00    +0.000 C 
ATOM     13  C   UNL     1       1.192   9.383  19.566  0.00  0.00    +0.000 C 
ATOM     14  H   UNL     1       3.891   5.213  17.653  0.00  0.00    +0.000 HD
ATOM     15  H   UNL     1       2.810   3.492  20.411  0.00  0.00    +0.000 HD
ENDROOT
BRANCH   3  16
ATOM     16  C   UNL     1       4.864   3.733  16.453  0.00  0.00    +0.000 C 
BRANCH  16  17
ATOM     17  C   UNL     1       6.015   4.705  16.125  0.00  0.00    +0.000 C 
ATOM     18  C   UNL     1       7.263   4.686  17.090  0.00  0.00    +0.000 C 
ATOM     19  C   UNL     1       7.294   6.228  17.032  0.00  0.00    +0.000 C 
ATOM     20  C   UNL     1       5.824   6.204  16.582  0.00  0.00    +0.000 C 
BRANCH  17  21
ATOM     21  C   UNL     1       6.365   4.503  14.542  0.00  0.00    +0.000 A 
ATOM     22  C   UNL     1       7.442   5.181  13.935  0.00  0.00    +0.000 A 
ATOM     23  C   UNL     1       7.782   4.989  12.595  0.00  0.00    +0.000 A 
ATOM     24  C   UNL     1       7.038   4.118  11.807  0.00  0.00    +0.000 A 
ATOM     25  C   UNL     1       5.943   3.463  12.355  0.00  0.00    +0.000 A 
ATOM     26  C   UNL     1       5.609   3.661  13.698  0.00  0.00    +0.000 A 
ENDBRANCH  17  21
BRANCH  19  27
ATOM     27  O   UNL     1       7.570   6.900  18.276  0.00  0.00    +0.000 OA
ATOM     28  H   UNL     1       8.432   7.332  18.145  0.00  0.00    +0.000 HD
ENDBRANCH  19  27
ENDBRANCH  16  17
ENDBRANCH   3  16
TORSDOF 4
ENDMDL
MODEL 2
REMARK VINA RESULT:      -8.0      1.677      3.512
REMARK  Name = 
REMARK  4 active torsions:
REMARK  status: ('A' for Active; 'I' for Inactive)
REMARK    1  A    between atoms: N_3  and  C_4
REMARK    2  A    between atoms: C_4  and  C_5
REMARK    3  A    between atoms: C_5  and  C_6
REMARK    4  A    between atoms: C_13  and  O_14
REMARK                            x       y       z     vdW  Elec       q    Type
REMARK                         _______ _______ _______ _____ _____    ______ ____
ROOT
ATOM      1  O   UNL     1       3.183   8.541  16.951  0.00  0.00    +0.000 OA
ATOM      2  C   UNL     1       3.277   7.452  17.505  0.00  0.00    +0.000 C 
ATOM      3  N   UNL     1       4.157   6.487  17.121  0.00  0.00    +0.000 N 
ATOM      4  N   UNL     1       2.498   7.179  18.590  0.00  0.00    +0.000 N 
ATOM      5  C   UNL     1       2.466   6.023  19.376  0.00  0.00    +0.000 A 
ATOM      6  C   UNL     1       1.583   5.988  20.458  0.00  0.00    +0.000 A 
ATOM      7  C   UNL     1       1.548   4.856  21.277  0.00  0.00    +0.000 A 
ATOM      8  C   UNL     1       2.404   3.813  20.977  0.00  0.00    +0.000 A 
ATOM      9  C   UNL     1       3.238   3.929  19.882  0.00  0.00    +0.000 A 
ATOM     10  N   UNL     1       3.292   4.995  19.071  0.00  0.00    +0.000 NA
ATOM     11  C   UNL     1       4.110   2.728  19.704  0.00  0.00    +0.000 C 
ATOM     12  C   UNL     1       3.702   1.826  20.875  0.00  0.00    +0.000 C 
ATOM     13  C   UNL     1       2.592   2.520  21.686  0.00  0.00    +0.000 C 
ATOM     14  H   UNL     1       4.033   5.587  17.581  0.00  0.00    +0.000 HD
ATOM     15  H   UNL     1       1.889   7.945  18.839  0.00  0.00    +0.000 HD
ENDROOT
BRANCH   3  16
ATOM     16  C   UNL     1       5.036   6.585  15.976  0.00  0.00    +0.000 C 
BRANCH  16  17
ATOM     17  C   UNL     1       6.193   5.572  16.078  0.00  0.00    +0.000 C 
ATOM     18  C   UNL     1       6.091   4.480  17.212  0.00  0.00    +0.000 C 
ATOM     19  C   UNL     1       7.590   4.691  17.509  0.00  0.00    +0.000 C 
ATOM     20  C   UNL     1       7.496   6.063  16.822  0.00  0.00    +0.000 C 
BRANCH  17  21
ATOM     21  C   UNL     1       6.436   4.983  14.573  0.00  0.00    +0.000 A 
ATOM     22  C   UNL     1       7.513   5.423  13.777  0.00  0.00    +0.000 A 
ATOM     23  C   UNL     1       7.762   4.900  12.507  0.00  0.00    +0.000 A 
ATOM     24  C   UNL     1       6.923   3.926  11.980  0.00  0.00    +0.000 A 
ATOM     25  C   UNL     1       5.826   3.495  12.714  0.00  0.00    +0.000 A 
ATOM     26  C   UNL     1       5.583   4.025  13.985  0.00  0.00    +0.000 A 
ENDBRANCH  17  21
BRANCH  19  27
ATOM     27  O   UNL     1       7.961   4.699  18.901  0.00  0.00    +0.000 OA
ATOM     28  H   UNL     1       7.492   3.941  19.293  0.00  0.00    +0.000 HD
ENDBRANCH  19  27
ENDBRANCH  16  17
ENDBRANCH   3  16
TORSDOF 4
ENDMDL
MODEL 3
REMARK VINA RESULT:      -7.9      2.190      3.681
REMARK  Name = 
REMARK  4 active torsions:
REMARK  status: ('A' for Active; 'I' for Inactive)
REMARK    1  A    between atoms: N_3  and  C_4
REMARK    2  A    between atoms: C_4  and  C_5
REMARK    3  A    between atoms: C_5  and  C_6
REMARK    4  A    between atoms: C_13  and  O_14
REMARK                            x       y       z     vdW  Elec       q    Type
REMARK                         _______ _______ _______ _____ _____    ______ ____
ROOT
ATOM      1  O   UNL     1       2.432   4.364  21.441  0.00  0.00    +0.000 OA
ATOM      2  C   UNL     1       2.346   5.461  20.902  0.00  0.00    +0.000 C 
ATOM      3  N   UNL     1       3.134   5.852  19.862  0.00  0.00    +0.000 N 
ATOM      4  N   UNL     1       1.394   6.344  21.319  0.00  0.00    +0.000 N 
ATOM      5  C   UNL     1       1.110   7.622  20.828  0.00  0.00    +0.000 A 
ATOM      6  C   UNL     1       0.062   8.334  21.417  0.00  0.00    +0.000 A 
ATOM      7  C   UNL     1      -0.262   9.604  20.930  0.00  0.00    +0.000 A 
ATOM      8  C   UNL     1       0.476  10.099  19.872  0.00  0.00    +0.000 A 
ATOM      9  C   UNL     1       1.502   9.330  19.357  0.00  0.00    +0.000 A 
ATOM     10  N   UNL     1       1.845   8.113  19.804  0.00  0.00    +0.000 NA
ATOM     11  C   UNL     1       2.190   9.997  18.209  0.00  0.00    +0.000 C 
ATOM     12  C   UNL     1       1.426  11.320  18.069  0.00  0.00    +0.000 C 
ATOM     13  C   UNL     1       0.332  11.390  19.150  0.00  0.00    +0.000 C 
ATOM     14  H   UNL     1       3.045   6.833  19.604  0.00  0.00    +0.000 HD
ATOM     15  H   UNL     1       0.826   5.982  22.072  0.00  0.00    +0.000 HD
ENDROOT
BRANCH   3  16
ATOM     16  C   UNL     1       4.215   5.067  19.311  0.00  0.00    +0.000 C 
BRANCH  16  17
ATOM     17  C   UNL     1       3.720   4.180  18.151  0.00  0.00    +0.000 C 
ATOM     18  C   UNL     1       2.169   4.176  17.865  0.00  0.00    +0.000 C 
ATOM     19  C   UNL     1       2.239   2.648  17.665  0.00  0.00    +0.000 C 
ATOM     20  C   UNL     1       3.554   2.641  18.462  0.00  0.00    +0.000 C 
BRANCH  17  21
ATOM     21  C   UNL     1       4.659   4.527  16.859  0.00  0.00    +0.000 A 
ATOM     22  C   UNL     1       5.359   3.518  16.168  0.00  0.00    +0.000 A 
ATOM     23  C   UNL     1       6.131   3.790  15.037  0.00  0.00    +0.000 A 
ATOM     24  C   UNL     1       6.243   5.094  14.568  0.00  0.00    +0.000 A 
ATOM     25  C   UNL     1       5.603   6.123  15.246  0.00  0.00    +0.000 A 
ATOM     26  C   UNL     1       4.832   5.843  16.379  0.00  0.00    +0.000 A 
ENDBRANCH  17  21
BRANCH  19  27
ATOM     27  O   UNL     1       1.150   1.889  18.225  0.00  0.00    +0.000 OA
ATOM     28  H   UNL     1       0.345   2.273  17.834  0.00  0.00    +0.000 HD
ENDBRANCH  19  27
ENDBRANCH  16  17
ENDBRANCH   3  16
TORSDOF 4
ENDMDL
MODEL 4
REMARK VINA RESULT:      -7.8      1.711      3.307
REMARK  Name = 
REMARK  4 active torsions:
REMARK  status: ('A' for Active; 'I' for Inactive)
REMARK    1  A    between atoms: N_3  and  C_4
REMARK    2  A    between atoms: C_4  and  C_5
REMARK    3  A    between atoms: C_5  and  C_6
REMARK    4  A    between atoms: C_13  and  O_14
REMARK                            x       y       z     vdW  Elec       q    Type
REMARK                         _______ _______ _______ _____ _____    ______ ____
ROOT
ATOM      1  O   UNL     1       3.956   2.244  19.969  0.00  0.00    +0.000 OA
ATOM      2  C   UNL     1       3.729   3.391  19.605  0.00  0.00    +0.000 C 
ATOM      3  N   UNL     1       4.212   3.922  18.448  0.00  0.00    +0.000 N 
ATOM      4  N   UNL     1       2.922   4.190  20.361  0.00  0.00    +0.000 N 
ATOM      5  C   UNL     1       2.518   5.507  20.116  0.00  0.00    +0.000 A 
ATOM      6  C   UNL     1       1.665   6.114  21.040  0.00  0.00    +0.000 A 
ATOM      7  C   UNL     1       1.223   7.420  20.809  0.00  0.00    +0.000 A 
ATOM      8  C   UNL     1       1.653   8.055  19.660  0.00  0.00    +0.000 A 
ATOM      9  C   UNL     1       2.505   7.382  18.806  0.00  0.00    +0.000 A 
ATOM     10  N   UNL     1       2.954   6.134  19.000  0.00  0.00    +0.000 NA
ATOM     11  C   UNL     1       2.862   8.197  17.604  0.00  0.00    +0.000 C 
ATOM     12  C   UNL     1       2.089   9.503  17.827  0.00  0.00    +0.000 C 
ATOM     13  C   UNL     1       1.322   9.415  19.160  0.00  0.00    +0.000 C 
ATOM     14  H   UNL     1       4.058   4.923  18.340  0.00  0.00    +0.000 HD
ATOM     15  H   UNL     1       2.575   3.728  21.188  0.00  0.00    +0.000 HD
ENDROOT
BRANCH   3  16
ATOM     16  C   UNL     1       5.107   3.239  17.542  0.00  0.00    +0.000 C 
BRANCH  16  17
ATOM     17  C   UNL     1       5.643   4.200  16.462  0.00  0.00    +0.000 C 
ATOM     18  C   UNL     1       4.602   4.747  15.411  0.00  0.00    +0.000 C 
ATOM     19  C   UNL     1       5.652   4.531  14.302  0.00  0.00    +0.000 C 
ATOM     20  C   UNL     1       6.373   3.538  15.229  0.00  0.00    +0.000 C 
BRANCH  17  21
ATOM     21  C   UNL     1       6.505   5.349  17.241  0.00  0.00    +0.000 A 
ATOM     22  C   UNL     1       7.325   5.031  18.343  0.00  0.00    +0.000 A 
ATOM     23  C   UNL     1       8.102   5.991  18.994  0.00  0.00    +0.000 A 
ATOM     24  C   UNL     1       8.069   7.315  18.572  0.00  0.00    +0.000 A 
ATOM     25  C   UNL     1       7.242   7.678  17.517  0.00  0.00    +0.000 A 
ATOM     26  C   UNL     1       6.466   6.710  16.871  0.00  0.00    +0.000 A 
ENDBRANCH  17  21
BRANCH  19  27
ATOM     27  O   UNL     1       5.155   3.997  13.059  0.00  0.00    +0.000 OA
ATOM     28  H   UNL     1       4.604   4.705  12.682  0.00  0.00    +0.000 HD
ENDBRANCH  19  27
ENDBRANCH  16  17
ENDBRANCH   3  16
TORSDOF 4
ENDMDL
MODEL 5
REMARK VINA RESULT:      -7.6      2.219      4.752
REMARK  Name = 
REMARK  4 active torsions:
REMARK  status: ('A' for Active; 'I' for Inactive)
REMARK    1  A    between atoms: N_3  and  C_4
REMARK    2  A    between atoms: C_4  and  C_5
REMARK    3  A    between atoms: C_5  and  C_6
REMARK    4  A    between atoms: C_13  and  O_14
REMARK                            x       y       z     vdW  Elec       q    Type
REMARK                         _______ _______ _______ _____ _____    ______ ____
ROOT
ATOM      1  O   UNL     1       2.967   8.716  16.965  0.00  0.00    +0.000 OA
ATOM      2  C   UNL     1       3.110   7.615  17.484  0.00  0.00    +0.000 C 
ATOM      3  N   UNL     1       3.974   6.671  17.019  0.00  0.00    +0.000 N 
ATOM      4  N   UNL     1       2.408   7.306  18.611  0.00  0.00    +0.000 N 
ATOM      5  C   UNL     1       2.442   6.131  19.369  0.00  0.00    +0.000 A 
ATOM      6  C   UNL     1       1.633   6.059  20.505  0.00  0.00    +0.000 A 
ATOM      7  C   UNL     1       1.666   4.907  21.297  0.00  0.00    +0.000 A 
ATOM      8  C   UNL     1       2.512   3.884  20.916  0.00  0.00    +0.000 A 
ATOM      9  C   UNL     1       3.270   4.036  19.771  0.00  0.00    +0.000 A 
ATOM     10  N   UNL     1       3.257   5.122  18.984  0.00  0.00    +0.000 NA
ATOM     11  C   UNL     1       4.142   2.851  19.506  0.00  0.00    +0.000 C 
ATOM     12  C   UNL     1       3.823   1.916  20.679  0.00  0.00    +0.000 C 
ATOM     13  C   UNL     1       2.762   2.576  21.578  0.00  0.00    +0.000 C 
ATOM     14  H   UNL     1       3.891   5.759  17.464  0.00  0.00    +0.000 HD
ATOM     15  H   UNL     1       1.808   8.058  18.919  0.00  0.00    +0.000 HD
ENDROOT
BRANCH   3  16
ATOM     16  C   UNL     1       4.773   6.808  15.822  0.00  0.00    +0.000 C 
BRANCH  16  17
ATOM     17  C   UNL     1       5.866   5.723  15.758  0.00  0.00    +0.000 C 
ATOM     18  C   UNL     1       6.661   5.587  14.402  0.00  0.00    +0.000 C 
ATOM     19  C   UNL     1       6.566   4.052  14.534  0.00  0.00    +0.000 C 
ATOM     20  C   UNL     1       5.378   4.245  15.491  0.00  0.00    +0.000 C 
BRANCH  17  21
ATOM     21  C   UNL     1       6.797   5.914  17.087  0.00  0.00    +0.000 A 
ATOM     22  C   UNL     1       7.444   7.136  17.361  0.00  0.00    +0.000 A 
ATOM     23  C   UNL     1       8.208   7.333  18.512  0.00  0.00    +0.000 A 
ATOM     24  C   UNL     1       8.366   6.297  19.427  0.00  0.00    +0.000 A 
ATOM     25  C   UNL     1       7.780   5.064  19.173  0.00  0.00    +0.000 A 
ATOM     26  C   UNL     1       7.017   4.875  18.017  0.00  0.00    +0.000 A 
ENDBRANCH  17  21
BRANCH  19  27
ATOM     27  O   UNL     1       6.294   3.331  13.317  0.00  0.00    +0.000 OA
ATOM     28  H   UNL     1       6.193   2.402  13.589  0.00  0.00    +0.000 HD
ENDBRANCH  19  27
ENDBRANCH  16  17
ENDBRANCH   3  16
TORSDOF 4
ENDMDL
MODEL 6
REMARK VINA RESULT:      -7.6      7.554     10.499
REMARK  Name = 
REMARK  4 active torsions:
REMARK  status: ('A' for Active; 'I' for Inactive)
REMARK    1  A    between atoms: N_3  and  C_4
REMARK    2  A    between atoms: C_4  and  C_5
REMARK    3  A    between atoms: C_5  and  C_6
REMARK    4  A    between atoms: C_13  and  O_14
REMARK                            x       y       z     vdW  Elec       q    Type
REMARK                         _______ _______ _______ _____ _____    ______ ____
ROOT
ATOM      1  O   UNL     1      -2.398  10.322  15.528  0.00  0.00    +0.000 OA
ATOM      2  C   UNL     1      -2.909  10.758  16.552  0.00  0.00    +0.000 C 
ATOM      3  N   UNL     1      -2.329  10.664  17.780  0.00  0.00    +0.000 N 
ATOM      4  N   UNL     1      -4.104  11.411  16.483  0.00  0.00    +0.000 N 
ATOM      5  C   UNL     1      -4.839  12.002  17.515  0.00  0.00    +0.000 A 
ATOM      6  C   UNL     1      -6.041  12.635  17.188  0.00  0.00    +0.000 A 
ATOM      7  C   UNL     1      -6.784  13.258  18.195  0.00  0.00    +0.000 A 
ATOM      8  C   UNL     1      -6.286  13.223  19.482  0.00  0.00    +0.000 A 
ATOM      9  C   UNL     1      -5.093  12.567  19.718  0.00  0.00    +0.000 A 
ATOM     10  N   UNL     1      -4.359  11.952  18.779  0.00  0.00    +0.000 NA
ATOM     11  C   UNL     1      -4.683  12.634  21.155  0.00  0.00    +0.000 C 
ATOM     12  C   UNL     1      -5.809  13.452  21.799  0.00  0.00    +0.000 C 
ATOM     13  C   UNL     1      -6.848  13.818  20.723  0.00  0.00    +0.000 C 
ATOM     14  H   UNL     1      -2.925  10.946  18.557  0.00  0.00    +0.000 HD
ATOM     15  H   UNL     1      -4.465  11.471  15.542  0.00  0.00    +0.000 HD
ENDROOT
BRANCH   3  16
ATOM     16  C   UNL     1      -1.085   9.979  18.051  0.00  0.00    +0.000 C 
BRANCH  16  17
ATOM     17  C   UNL     1      -0.115  10.883  18.838  0.00  0.00    +0.000 C 
ATOM     18  C   UNL     1      -0.030  12.395  18.398  0.00  0.00    +0.000 C 
ATOM     19  C   UNL     1       1.503  12.326  18.561  0.00  0.00    +0.000 C 
ATOM     20  C   UNL     1       1.410  10.796  18.438  0.00  0.00    +0.000 C 
BRANCH  17  21
ATOM     21  C   UNL     1      -0.429  10.642  20.423  0.00  0.00    +0.000 A 
ATOM     22  C   UNL     1      -0.123   9.420  21.055  0.00  0.00    +0.000 A 
ATOM     23  C   UNL     1      -0.344   9.210  22.418  0.00  0.00    +0.000 A 
ATOM     24  C   UNL     1      -0.901  10.219  23.195  0.00  0.00    +0.000 A 
ATOM     25  C   UNL     1      -1.256  11.424  22.601  0.00  0.00    +0.000 A 
ATOM     26  C   UNL     1      -1.032  11.625  21.236  0.00  0.00    +0.000 A 
ENDBRANCH  17  21
BRANCH  19  27
ATOM     27  O   UNL     1       2.275  13.001  17.549  0.00  0.00    +0.000 OA
ATOM     28  H   UNL     1       3.178  12.650  17.642  0.00  0.00    +0.000 HD
ENDBRANCH  19  27
ENDBRANCH  16  17
ENDBRANCH   3  16
TORSDOF 4
ENDMDL
MODEL 7
REMARK VINA RESULT:      -7.6      3.866      7.963
REMARK  Name = 
REMARK  4 active torsions:
REMARK  status: ('A' for Active; 'I' for Inactive)
REMARK    1  A    between atoms: N_3  and  C_4
REMARK    2  A    between atoms: C_4  and  C_5
REMARK    3  A    between atoms: C_5  and  C_6
REMARK    4  A    between atoms: C_13  and  O_14
REMARK                            x       y       z     vdW  Elec       q    Type
REMARK                         _______ _______ _______ _____ _____    ______ ____
ROOT
ATOM      1  O   UNL     1      -0.248   9.025  22.594  0.00  0.00    +0.000 OA
ATOM      2  C   UNL     1       0.458   8.682  21.653  0.00  0.00    +0.000 C 
ATOM      3  N   UNL     1       1.006   9.556  20.766  0.00  0.00    +0.000 N 
ATOM      4  N   UNL     1       0.757   7.362  21.483  0.00  0.00    +0.000 N 
ATOM      5  C   UNL     1       1.556   6.765  20.502  0.00  0.00    +0.000 A 
ATOM      6  C   UNL     1       1.728   5.380  20.548  0.00  0.00    +0.000 A 
ATOM      7  C   UNL     1       2.542   4.759  19.597  0.00  0.00    +0.000 A 
ATOM      8  C   UNL     1       3.151   5.556  18.647  0.00  0.00    +0.000 A 
ATOM      9  C   UNL     1       2.918   6.917  18.670  0.00  0.00    +0.000 A 
ATOM     10  N   UNL     1       2.137   7.545  19.562  0.00  0.00    +0.000 NA
ATOM     11  C   UNL     1       3.661   7.638  17.591  0.00  0.00    +0.000 C 
ATOM     12  C   UNL     1       4.417   6.510  16.877  0.00  0.00    +0.000 C 
ATOM     13  C   UNL     1       4.076   5.168  17.550  0.00  0.00    +0.000 C 
ATOM     14  H   UNL     1       1.454   9.124  19.960  0.00  0.00    +0.000 HD
ATOM     15  H   UNL     1       0.343   6.771  22.189  0.00  0.00    +0.000 HD
ENDROOT
BRANCH   3  16
ATOM     16  C   UNL     1       0.773  10.983  20.769  0.00  0.00    +0.000 C 
BRANCH  16  17
ATOM     17  C   UNL     1       0.783  11.549  19.335  0.00  0.00    +0.000 C 
ATOM     18  C   UNL     1       2.037  11.210  18.440  0.00  0.00    +0.000 C 
ATOM     19  C   UNL     1       2.033  12.667  17.933  0.00  0.00    +0.000 C 
ATOM     20  C   UNL     1       1.217  13.059  19.176  0.00  0.00    +0.000 C 
BRANCH  17  21
ATOM     21  C   UNL     1      -0.661  11.171  18.670  0.00  0.00    +0.000 A 
ATOM     22  C   UNL     1      -1.835  11.868  19.018  0.00  0.00    +0.000 A 
ATOM     23  C   UNL     1      -3.070  11.588  18.430  0.00  0.00    +0.000 A 
ATOM     24  C   UNL     1      -3.173  10.581  17.478  0.00  0.00    +0.000 A 
ATOM     25  C   UNL     1      -2.048   9.841  17.137  0.00  0.00    +0.000 A 
ATOM     26  C   UNL     1      -0.816  10.127  17.732  0.00  0.00    +0.000 A 
ENDBRANCH  17  21
BRANCH  19  27
ATOM     27  O   UNL     1       3.325  13.289  17.795  0.00  0.00    +0.000 OA
ATOM     28  H   UNL     1       3.170  14.075  17.241  0.00  0.00    +0.000 HD
ENDBRANCH  19  27
ENDBRANCH  16  17
ENDBRANCH   3  16
TORSDOF 4
ENDMDL
MODEL 8
REMARK VINA RESULT:      -7.5      7.594     10.554
REMARK  Name = 
REMARK  4 active torsions:
REMARK  status: ('A' for Active; 'I' for Inactive)
REMARK    1  A    between atoms: N_3  and  C_4
REMARK    2  A    between atoms: C_4  and  C_5
REMARK    3  A    between atoms: C_5  and  C_6
REMARK    4  A    between atoms: C_13  and  O_14
REMARK                            x       y       z     vdW  Elec       q    Type
REMARK                         _______ _______ _______ _____ _____    ______ ____
ROOT
ATOM      1  O   UNL     1      -2.550  10.654  15.676  0.00  0.00    +0.000 OA
ATOM      2  C   UNL     1      -3.012  11.025  16.748  0.00  0.00    +0.000 C 
ATOM      3  N   UNL     1      -2.387  10.835  17.942  0.00  0.00    +0.000 N 
ATOM      4  N   UNL     1      -4.197  11.701  16.772  0.00  0.00    +0.000 N 
ATOM      5  C   UNL     1      -4.879  12.230  17.872  0.00  0.00    +0.000 A 
ATOM      6  C   UNL     1      -6.080  12.904  17.638  0.00  0.00    +0.000 A 
ATOM      7  C   UNL     1      -6.772  13.466  18.715  0.00  0.00    +0.000 A 
ATOM      8  C   UNL     1      -6.224  13.332  19.976  0.00  0.00    +0.000 A 
ATOM      9  C   UNL     1      -5.036  12.641  20.118  0.00  0.00    +0.000 A 
ATOM     10  N   UNL     1      -4.351  12.083  19.109  0.00  0.00    +0.000 NA
ATOM     11  C   UNL     1      -4.570  12.600  21.538  0.00  0.00    +0.000 C 
ATOM     12  C   UNL     1      -5.654  13.389  22.282  0.00  0.00    +0.000 C 
ATOM     13  C   UNL     1      -6.727  13.847  21.277  0.00  0.00    +0.000 C 
ATOM     14  H   UNL     1      -2.946  11.071  18.760  0.00  0.00    +0.000 HD
ATOM     15  H   UNL     1      -4.592  11.833  15.853  0.00  0.00    +0.000 HD
ENDROOT
BRANCH   3  16
ATOM     16  C   UNL     1      -1.147  10.112  18.114  0.00  0.00    +0.000 C 
BRANCH  16  17
ATOM     17  C   UNL     1      -0.114  10.959  18.883  0.00  0.00    +0.000 C 
ATOM     18  C   UNL     1       0.020  12.475  18.468  0.00  0.00    +0.000 C 
ATOM     19  C   UNL     1       1.553  12.339  18.576  0.00  0.00    +0.000 C 
ATOM     20  C   UNL     1       1.392  10.817  18.429  0.00  0.00    +0.000 C 
BRANCH  17  21
ATOM     21  C   UNL     1      -0.384  10.701  20.474  0.00  0.00    +0.000 A 
ATOM     22  C   UNL     1      -0.936  11.703  21.297  0.00  0.00    +0.000 A 
ATOM     23  C   UNL     1      -1.215  11.488  22.648  0.00  0.00    +0.000 A 
ATOM     24  C   UNL     1      -0.930  10.257  23.228  0.00  0.00    +0.000 A 
ATOM     25  C   UNL     1      -0.345   9.257  22.462  0.00  0.00    +0.000 A 
ATOM     26  C   UNL     1      -0.069   9.481  21.110  0.00  0.00    +0.000 A 
ENDBRANCH  17  21
BRANCH  19  27
ATOM     27  O   UNL     1       2.318  13.001  17.550  0.00  0.00    +0.000 OA
ATOM     28  H   UNL     1       2.314  12.387  16.795  0.00  0.00    +0.000 HD
ENDBRANCH  19  27
ENDBRANCH  16  17
ENDBRANCH   3  16
TORSDOF 4
ENDMDL
MODEL 9
REMARK VINA RESULT:      -7.5      2.179      4.589
REMARK  Name = 
REMARK  4 active torsions:
REMARK  status: ('A' for Active; 'I' for Inactive)
REMARK    1  A    between atoms: N_3  and  C_4
REMARK    2  A    between atoms: C_4  and  C_5
REMARK    3  A    between atoms: C_5  and  C_6
REMARK    4  A    between atoms: C_13  and  O_14
REMARK                            x       y       z     vdW  Elec       q    Type
REMARK                         _______ _______ _______ _____ _____    ______ ____
ROOT
ATOM      1  O   UNL     1       3.833   7.205  17.141  0.00  0.00    +0.000 OA
ATOM      2  C   UNL     1       3.118   7.547  18.074  0.00  0.00    +0.000 C 
ATOM      3  N   UNL     1       3.098   6.914  19.279  0.00  0.00    +0.000 N 
ATOM      4  N   UNL     1       2.314   8.642  17.940  0.00  0.00    +0.000 N 
ATOM      5  C   UNL     1       1.450   9.213  18.879  0.00  0.00    +0.000 A 
ATOM      6  C   UNL     1       0.738  10.356  18.507  0.00  0.00    +0.000 A 
ATOM      7  C   UNL     1      -0.113  10.964  19.434  0.00  0.00    +0.000 A 
ATOM      8  C   UNL     1      -0.208  10.402  20.692  0.00  0.00    +0.000 A 
ATOM      9  C   UNL     1       0.525   9.265  20.972  0.00  0.00    +0.000 A 
ATOM     10  N   UNL     1       1.345   8.651  20.105  0.00  0.00    +0.000 NA
ATOM     11  C   UNL     1       0.326   8.792  22.376  0.00  0.00    +0.000 C 
ATOM     12  C   UNL     1      -0.651   9.824  22.954  0.00  0.00    +0.000 C 
ATOM     13  C   UNL     1      -1.006  10.851  21.863  0.00  0.00    +0.000 C 
ATOM     14  H   UNL     1       2.361   7.220  19.911  0.00  0.00    +0.000 HD
ATOM     15  H   UNL     1       2.397   9.081  17.035  0.00  0.00    +0.000 HD
ENDROOT
BRANCH   3  16
ATOM     16  C   UNL     1       3.853   5.721  19.591  0.00  0.00    +0.000 C 
BRANCH  16  17
ATOM     17  C   UNL     1       3.483   4.566  18.640  0.00  0.00    +0.000 C 
ATOM     18  C   UNL     1       2.041   4.598  18.003  0.00  0.00    +0.000 C 
ATOM     19  C   UNL     1       1.925   3.081  18.259  0.00  0.00    +0.000 C 
ATOM     20  C   UNL     1       3.032   3.213  19.317  0.00  0.00    +0.000 C 
BRANCH  17  21
ATOM     21  C   UNL     1       4.708   4.428  17.568  0.00  0.00    +0.000 A 
ATOM     22  C   UNL     1       4.467   4.132  16.211  0.00  0.00    +0.000 A 
ATOM     23  C   UNL     1       5.496   4.053  15.272  0.00  0.00    +0.000 A 
ATOM     24  C   UNL     1       6.814   4.252  15.666  0.00  0.00    +0.000 A 
ATOM     25  C   UNL     1       7.099   4.504  17.002  0.00  0.00    +0.000 A 
ATOM     26  C   UNL     1       6.062   4.581  17.937  0.00  0.00    +0.000 A 
ENDBRANCH  17  21
BRANCH  19  27
ATOM     27  O   UNL     1       0.645   2.618  18.729  0.00  0.00    +0.000 OA
ATOM     28  H   UNL     1       0.595   2.908  19.657  0.00  0.00    +0.000 HD
ENDBRANCH  19  27
ENDBRANCH  16  17
ENDBRANCH   3  16
TORSDOF 4
ENDMDL
