MODEL 1
REMARK VINA RESULT:      -9.3      0.000      0.000
REMARK  Name = 
REMARK  5 active torsions:
REMARK  status: ('A' for Active; 'I' for Inactive)
REMARK    1  A    between atoms: C_2  and  C_17
REMARK    2  A    between atoms: N_7  and  C_8
REMARK    3  A    between atoms: C_8  and  C_9
REMARK    4  A    between atoms: C_9  and  C_10
REMARK    5  A    between atoms: C_17  and  C_18
REMARK                            x       y       z     vdW  Elec       q    Type
REMARK                         _______ _______ _______ _____ _____    ______ ____
ROOT
ATOM      1  O   UNL     1       2.433   6.906  17.914  0.00  0.00    +0.000 OA
ATOM      2  C   UNL     1       2.422   6.242  18.946  0.00  0.00    +0.000 C 
ATOM      3  N   UNL     1       2.099   6.711  20.213  0.00  0.00    +0.000 N 
ATOM      4  C   UNL     1       1.618   7.987  20.460  0.00  0.00    +0.000 A 
ATOM      5  C   UNL     1       1.229   8.479  21.733  0.00  0.00    +0.000 A 
ATOM      6  C   UNL     1       0.816   9.774  21.517  0.00  0.00    +0.000 A 
ATOM      7  N   UNL     1       0.947   9.985  20.177  0.00  0.00    +0.000 N 
ATOM      8  N   UNL     1       1.435   8.921  19.530  0.00  0.00    +0.000 NA
ATOM      9  H   UNL     1       2.180   6.104  21.014  0.00  0.00    +0.000 HD
ENDROOT
BRANCH   2  10
ATOM     10  C   UNL     1       2.871   4.753  18.898  0.00  0.00    +0.000 C 
ATOM     11  C   UNL     1       1.733   3.909  18.250  0.00  0.00    +0.000 C 
ATOM     12  C   UNL     1       1.874   2.494  18.810  0.00  0.00    +0.000 C 
ATOM     13  C   UNL     1       2.688   2.628  20.090  0.00  0.00    +0.000 C 
ATOM     14  C   UNL     1       2.848   4.129  20.311  0.00  0.00    +0.000 C 
BRANCH  10  15
ATOM     15  C   UNL     1       4.172   4.625  18.082  0.00  0.00    +0.000 A 
ATOM     16  C   UNL     1       4.124   4.085  16.777  0.00  0.00    +0.000 A 
ATOM     17  C   UNL     1       5.271   4.003  15.976  0.00  0.00    +0.000 A 
ATOM     18  C   UNL     1       6.489   4.440  16.477  0.00  0.00    +0.000 A 
ATOM     19  F   UNL     1       7.582   4.388  15.707  0.00  0.00    +0.000 F 
ATOM     20  C   UNL     1       6.582   4.943  17.762  0.00  0.00    +0.000 A 
ATOM     21  C   UNL     1       5.432   5.042  18.542  0.00  0.00    +0.000 A 
ATOM     22  F   UNL     1       5.586   5.571  19.762  0.00  0.00    +0.000 F 
ENDBRANCH  10  15
ENDBRANCH   2  10
BRANCH   7  23
ATOM     23  C   UNL     1       0.534  11.136  19.389  0.00  0.00    +0.000 C 
BRANCH  23  24
ATOM     24  C   UNL     1      -0.895  11.605  19.647  0.00  0.00    +0.000 C 
BRANCH  24  25
ATOM     25  C   UNL     1      -1.840  11.175  18.552  0.00  0.00    +0.000 A 
ATOM     26  C   UNL     1      -3.133  11.693  18.483  0.00  0.00    +0.000 A 
ATOM     27  C   UNL     1      -3.969  11.265  17.463  0.00  0.00    +0.000 A 
ATOM     28  N   UNL     1      -3.608  10.363  16.526  0.00  0.00    +0.000 NA
ATOM     29  C   UNL     1      -2.354   9.869  16.616  0.00  0.00    +0.000 A 
ATOM     30  C   UNL     1      -1.446  10.235  17.596  0.00  0.00    +0.000 A 
ENDBRANCH  24  25
ENDBRANCH  23  24
ENDBRANCH   7  23
TORSDOF 5
ENDMDL
MODEL 2
REMARK VINA RESULT:      -9.0      0.979      1.588
REMARK  Name = 
REMARK  5 active torsions:
REMARK  status: ('A' for Active; 'I' for Inactive)
REMARK    1  A    between atoms: C_2  and  C_17
REMARK    2  A    between atoms: N_7  and  C_8
REMARK    3  A    between atoms: C_8  and  C_9
REMARK    4  A    between atoms: C_9  and  C_10
REMARK    5  A    between atoms: C_17  and  C_18
REMARK                            x       y       z     vdW  Elec       q    Type
REMARK                         _______ _______ _______ _____ _____    ______ ____
ROOT
ATOM      1  O   UNL     1       2.069   6.865  18.212  0.00  0.00    +0.000 OA
ATOM      2  C   UNL     1       2.217   6.342  19.312  0.00  0.00    +0.000 C 
ATOM      3  N   UNL     1       2.008   6.958  20.541  0.00  0.00    +0.000 N 
ATOM      4  C   UNL     1       1.477   8.229  20.682  0.00  0.00    +0.000 A 
ATOM      5  C   UNL     1       1.202   8.865  21.921  0.00  0.00    +0.000 A 
ATOM      6  C   UNL     1       0.684  10.099  21.596  0.00  0.00    +0.000 A 
ATOM      7  N   UNL     1       0.650  10.137  20.234  0.00  0.00    +0.000 N 
ATOM      8  N   UNL     1       1.131   9.023  19.671  0.00  0.00    +0.000 NA
ATOM      9  H   UNL     1       2.217   6.466  21.395  0.00  0.00    +0.000 HD
ENDROOT
BRANCH   2  10
ATOM     10  C   UNL     1       2.752   4.884  19.398  0.00  0.00    +0.000 C 
ATOM     11  C   UNL     1       1.689   3.925  18.784  0.00  0.00    +0.000 C 
ATOM     12  C   UNL     1       1.892   2.569  19.459  0.00  0.00    +0.000 C 
ATOM     13  C   UNL     1       2.651   2.851  20.749  0.00  0.00    +0.000 C 
ATOM     14  C   UNL     1       2.715   4.372  20.855  0.00  0.00    +0.000 C 
BRANCH  10  15
ATOM     15  C   UNL     1       4.088   4.773  18.636  0.00  0.00    +0.000 A 
ATOM     16  C   UNL     1       5.285   5.182  19.267  0.00  0.00    +0.000 A 
ATOM     17  C   UNL     1       6.527   5.045  18.635  0.00  0.00    +0.000 A 
ATOM     18  C   UNL     1       6.591   4.518  17.353  0.00  0.00    +0.000 A 
ATOM     19  F   UNL     1       7.778   4.362  16.756  0.00  0.00    +0.000 F 
ATOM     20  C   UNL     1       5.438   4.139  16.690  0.00  0.00    +0.000 A 
ATOM     21  C   UNL     1       4.209   4.258  17.335  0.00  0.00    +0.000 A 
ATOM     22  F   UNL     1       3.136   3.839  16.651  0.00  0.00    +0.000 F 
ENDBRANCH  10  15
ENDBRANCH   2  10
BRANCH   7  23
ATOM     23  C   UNL     1       0.078  11.153  19.363  0.00  0.00    +0.000 C 
BRANCH  23  24
ATOM     24  C   UNL     1      -1.417  11.386  19.554  0.00  0.00    +0.000 C 
BRANCH  24  25
ATOM     25  C   UNL     1      -2.208  11.054  18.313  0.00  0.00    +0.000 A 
ATOM     26  C   UNL     1      -1.714  10.146  17.376  0.00  0.00    +0.000 A 
ATOM     27  C   UNL     1      -2.473   9.875  16.247  0.00  0.00    +0.000 A 
ATOM     28  N   UNL     1      -3.669  10.445  15.993  0.00  0.00    +0.000 NA
ATOM     29  C   UNL     1      -4.124  11.325  16.910  0.00  0.00    +0.000 A 
ATOM     30  C   UNL     1      -3.442  11.661  18.068  0.00  0.00    +0.000 A 
ENDBRANCH  24  25
ENDBRANCH  23  24
ENDBRANCH   7  23
TORSDOF 5
ENDMDL
MODEL 3
REMARK VINA RESULT:      -8.9      0.955      1.322
REMARK  Name = 
REMARK  5 active torsions:
REMARK  status: ('A' for Active; 'I' for Inactive)
REMARK    1  A    between atoms: C_2  and  C_17
REMARK    2  A    between atoms: N_7  and  C_8
REMARK    3  A    between atoms: C_8  and  C_9
REMARK    4  A    between atoms: C_9  and  C_10
REMARK    5  A    between atoms: C_17  and  C_18
REMARK                            x       y       z     vdW  Elec       q    Type
REMARK                         _______ _______ _______ _____ _____    ______ ____
ROOT
ATOM      1  O   UNL     1       2.387   6.899  17.887  0.00  0.00    +0.000 OA
ATOM      2  C   UNL     1       2.401   6.267  18.939  0.00  0.00    +0.000 C 
ATOM      3  N   UNL     1       2.095   6.773  20.197  0.00  0.00    +0.000 N 
ATOM      4  C   UNL     1       1.607   8.051  20.412  0.00  0.00    +0.000 A 
ATOM      5  C   UNL     1       1.235   8.580  21.676  0.00  0.00    +0.000 A 
ATOM      6  C   UNL     1       0.806   9.864  21.427  0.00  0.00    +0.000 A 
ATOM      7  N   UNL     1       0.911  10.033  20.079  0.00  0.00    +0.000 N 
ATOM      8  N   UNL     1       1.398   8.954  19.457  0.00  0.00    +0.000 NA
ATOM      9  H   UNL     1       2.197   6.193  21.014  0.00  0.00    +0.000 HD
ENDROOT
BRANCH   2  10
ATOM     10  C   UNL     1       2.863   4.782  18.930  0.00  0.00    +0.000 C 
ATOM     11  C   UNL     1       1.728   3.909  18.317  0.00  0.00    +0.000 C 
ATOM     12  C   UNL     1       1.887   2.513  18.916  0.00  0.00    +0.000 C 
ATOM     13  C   UNL     1       2.712   2.690  20.183  0.00  0.00    +0.000 C 
ATOM     14  C   UNL     1       2.859   4.199  20.360  0.00  0.00    +0.000 C 
BRANCH  10  15
ATOM     15  C   UNL     1       4.159   4.643  18.106  0.00  0.00    +0.000 A 
ATOM     16  C   UNL     1       4.098   4.104  16.800  0.00  0.00    +0.000 A 
ATOM     17  C   UNL     1       5.239   4.013  15.993  0.00  0.00    +0.000 A 
ATOM     18  C   UNL     1       6.464   4.438  16.486  0.00  0.00    +0.000 A 
ATOM     19  F   UNL     1       7.552   4.376  15.710  0.00  0.00    +0.000 F 
ATOM     20  C   UNL     1       6.570   4.939  17.771  0.00  0.00    +0.000 A 
ATOM     21  C   UNL     1       5.425   5.048  18.559  0.00  0.00    +0.000 A 
ATOM     22  F   UNL     1       5.591   5.574  19.778  0.00  0.00    +0.000 F 
ENDBRANCH  10  15
ENDBRANCH   2  10
BRANCH   7  23
ATOM     23  C   UNL     1       0.473  11.156  19.263  0.00  0.00    +0.000 C 
BRANCH  23  24
ATOM     24  C   UNL     1      -0.704  10.852  18.341  0.00  0.00    +0.000 C 
BRANCH  24  25
ATOM     25  C   UNL     1      -1.992  11.452  18.845  0.00  0.00    +0.000 A 
ATOM     26  C   UNL     1      -2.015  12.205  20.020  0.00  0.00    +0.000 A 
ATOM     27  C   UNL     1      -3.223  12.733  20.449  0.00  0.00    +0.000 A 
ATOM     28  N   UNL     1      -4.392  12.558  19.798  0.00  0.00    +0.000 NA
ATOM     29  C   UNL     1      -4.347  11.821  18.667  0.00  0.00    +0.000 A 
ATOM     30  C   UNL     1      -3.192  11.253  18.157  0.00  0.00    +0.000 A 
ENDBRANCH  24  25
ENDBRANCH  23  24
ENDBRANCH   7  23
TORSDOF 5
ENDMDL
MODEL 4
REMARK VINA RESULT:      -8.9      1.095      1.488
REMARK  Name = 
REMARK  5 active torsions:
REMARK  status: ('A' for Active; 'I' for Inactive)
REMARK    1  A    between atoms: C_2  and  C_17
REMARK    2  A    between atoms: N_7  and  C_8
REMARK    3  A    between atoms: C_8  and  C_9
REMARK    4  A    between atoms: C_9  and  C_10
REMARK    5  A    between atoms: C_17  and  C_18
REMARK                            x       y       z     vdW  Elec       q    Type
REMARK                         _______ _______ _______ _____ _____    ______ ____
ROOT
ATOM      1  O   UNL     1       2.314   7.065  18.897  0.00  0.00    +0.000 OA
ATOM      2  C   UNL     1       2.009   6.441  19.909  0.00  0.00    +0.000 C 
ATOM      3  N   UNL     1       1.465   6.984  21.067  0.00  0.00    +0.000 N 
ATOM      4  C   UNL     1       1.075   8.308  21.185  0.00  0.00    +0.000 A 
ATOM      5  C   UNL     1       0.468   8.879  22.334  0.00  0.00    +0.000 A 
ATOM      6  C   UNL     1       0.248  10.201  22.015  0.00  0.00    +0.000 A 
ATOM      7  N   UNL     1       0.690  10.350  20.735  0.00  0.00    +0.000 N 
ATOM      8  N   UNL     1       1.197   9.222  20.226  0.00  0.00    +0.000 NA
ATOM      9  H   UNL     1       1.305   6.400  21.873  0.00  0.00    +0.000 HD
ENDROOT
BRANCH   2  10
ATOM     10  C   UNL     1       2.302   4.915  19.981  0.00  0.00    +0.000 C 
ATOM     11  C   UNL     1       0.957   4.141  19.844  0.00  0.00    +0.000 C 
ATOM     12  C   UNL     1       1.150   2.808  20.565  0.00  0.00    +0.000 C 
ATOM     13  C   UNL     1       2.328   3.010  21.510  0.00  0.00    +0.000 C 
ATOM     14  C   UNL     1       2.666   4.495  21.422  0.00  0.00    +0.000 C 
BRANCH  10  15
ATOM     15  C   UNL     1       3.274   4.516  18.853  0.00  0.00    +0.000 A 
ATOM     16  C   UNL     1       2.785   3.807  17.732  0.00  0.00    +0.000 A 
ATOM     17  C   UNL     1       3.619   3.475  16.657  0.00  0.00    +0.000 A 
ATOM     18  C   UNL     1       4.961   3.825  16.696  0.00  0.00    +0.000 A 
ATOM     19  F   UNL     1       5.756   3.532  15.660  0.00  0.00    +0.000 F 
ATOM     20  C   UNL     1       5.484   4.489  17.791  0.00  0.00    +0.000 A 
ATOM     21  C   UNL     1       4.642   4.836  18.846  0.00  0.00    +0.000 A 
ATOM     22  F   UNL     1       5.204   5.508  19.858  0.00  0.00    +0.000 F 
ENDBRANCH  10  15
ENDBRANCH   2  10
BRANCH   7  23
ATOM     23  C   UNL     1       0.581  11.508  19.861  0.00  0.00    +0.000 C 
BRANCH  23  24
ATOM     24  C   UNL     1       0.213  11.184  18.416  0.00  0.00    +0.000 C 
BRANCH  24  25
ATOM     25  C   UNL     1      -1.273  10.999  18.236  0.00  0.00    +0.000 A 
ATOM     26  C   UNL     1      -1.772   9.947  17.467  0.00  0.00    +0.000 A 
ATOM     27  C   UNL     1      -3.146   9.820  17.325  0.00  0.00    +0.000 A 
ATOM     28  N   UNL     1      -4.040  10.663  17.884  0.00  0.00    +0.000 NA
ATOM     29  C   UNL     1      -3.534  11.677  18.619  0.00  0.00    +0.000 A 
ATOM     30  C   UNL     1      -2.180  11.887  18.820  0.00  0.00    +0.000 A 
ENDBRANCH  24  25
ENDBRANCH  23  24
ENDBRANCH   7  23
TORSDOF 5
ENDMDL
MODEL 5
REMARK VINA RESULT:      -8.6      1.324      1.875
REMARK  Name = 
REMARK  5 active torsions:
REMARK  status: ('A' for Active; 'I' for Inactive)
REMARK    1  A    between atoms: C_2  and  C_17
REMARK    2  A    between atoms: N_7  and  C_8
REMARK    3  A    between atoms: C_8  and  C_9
REMARK    4  A    between atoms: C_9  and  C_10
REMARK    5  A    between atoms: C_17  and  C_18
REMARK                            x       y       z     vdW  Elec       q    Type
REMARK                         _______ _______ _______ _____ _____    ______ ____
ROOT
ATOM      1  O   UNL     1       2.435   7.273  19.022  0.00  0.00    +0.000 OA
ATOM      2  C   UNL     1       2.053   6.606  19.979  0.00  0.00    +0.000 C 
ATOM      3  N   UNL     1       1.401   7.096  21.104  0.00  0.00    +0.000 N 
ATOM      4  C   UNL     1       0.981   8.409  21.237  0.00  0.00    +0.000 A 
ATOM      5  C   UNL     1       0.267   8.927  22.349  0.00  0.00    +0.000 A 
ATOM      6  C   UNL     1       0.053  10.257  22.062  0.00  0.00    +0.000 A 
ATOM      7  N   UNL     1       0.604  10.463  20.832  0.00  0.00    +0.000 N 
ATOM      8  N   UNL     1       1.172   9.362  20.328  0.00  0.00    +0.000 NA
ATOM      9  H   UNL     1       1.181   6.479  21.871  0.00  0.00    +0.000 HD
ENDROOT
BRANCH   2  10
ATOM     10  C   UNL     1       2.363   5.082  20.019  0.00  0.00    +0.000 C 
ATOM     11  C   UNL     1       1.043   4.297  19.761  0.00  0.00    +0.000 C 
ATOM     12  C   UNL     1       1.206   2.942  20.448  0.00  0.00    +0.000 C 
ATOM     13  C   UNL     1       2.312   3.124  21.480  0.00  0.00    +0.000 C 
ATOM     14  C   UNL     1       2.633   4.616  21.467  0.00  0.00    +0.000 C 
BRANCH  10  15
ATOM     15  C   UNL     1       3.417   4.736  18.949  0.00  0.00    +0.000 A 
ATOM     16  C   UNL     1       4.790   4.790  19.282  0.00  0.00    +0.000 A 
ATOM     17  C   UNL     1       5.781   4.428  18.360  0.00  0.00    +0.000 A 
ATOM     18  C   UNL     1       5.416   4.028  17.082  0.00  0.00    +0.000 A 
ATOM     19  F   UNL     1       6.357   3.657  16.207  0.00  0.00    +0.000 F 
ATOM     20  C   UNL     1       4.085   3.996  16.708  0.00  0.00    +0.000 A 
ATOM     21  C   UNL     1       3.105   4.335  17.639  0.00  0.00    +0.000 A 
ATOM     22  F   UNL     1       1.835   4.248  17.224  0.00  0.00    +0.000 F 
ENDBRANCH  10  15
ENDBRANCH   2  10
BRANCH   7  23
ATOM     23  C   UNL     1       0.553  11.652  19.997  0.00  0.00    +0.000 C 
BRANCH  23  24
ATOM     24  C   UNL     1      -0.834  12.273  19.857  0.00  0.00    +0.000 C 
BRANCH  24  25
ATOM     25  C   UNL     1      -1.698  11.521  18.876  0.00  0.00    +0.000 A 
ATOM     26  C   UNL     1      -1.138  10.583  18.007  0.00  0.00    +0.000 A 
ATOM     27  C   UNL     1      -1.970   9.919  17.118  0.00  0.00    +0.000 A 
ATOM     28  N   UNL     1      -3.300  10.131  17.035  0.00  0.00    +0.000 NA
ATOM     29  C   UNL     1      -3.819  11.047  17.880  0.00  0.00    +0.000 A 
ATOM     30  C   UNL     1      -3.072  11.760  18.803  0.00  0.00    +0.000 A 
ENDBRANCH  24  25
ENDBRANCH  23  24
ENDBRANCH   7  23
TORSDOF 5
ENDMDL
MODEL 6
REMARK VINA RESULT:      -8.6      2.023      2.952
REMARK  Name = 
REMARK  5 active torsions:
REMARK  status: ('A' for Active; 'I' for Inactive)
REMARK    1  A    between atoms: C_2  and  C_17
REMARK    2  A    between atoms: N_7  and  C_8
REMARK    3  A    between atoms: C_8  and  C_9
REMARK    4  A    between atoms: C_9  and  C_10
REMARK    5  A    between atoms: C_17  and  C_18
REMARK                            x       y       z     vdW  Elec       q    Type
REMARK                         _______ _______ _______ _____ _____    ______ ____
ROOT
ATOM      1  O   UNL     1       2.528   6.997  17.931  0.00  0.00    +0.000 OA
ATOM      2  C   UNL     1       2.445   6.314  18.948  0.00  0.00    +0.000 C 
ATOM      3  N   UNL     1       2.064   6.768  20.205  0.00  0.00    +0.000 N 
ATOM      4  C   UNL     1       1.600   8.050  20.451  0.00  0.00    +0.000 A 
ATOM      5  C   UNL     1       1.154   8.528  21.710  0.00  0.00    +0.000 A 
ATOM      6  C   UNL     1       0.783   9.837  21.498  0.00  0.00    +0.000 A 
ATOM      7  N   UNL     1       0.991  10.069  20.171  0.00  0.00    +0.000 N 
ATOM      8  N   UNL     1       1.490   9.005  19.531  0.00  0.00    +0.000 NA
ATOM      9  H   UNL     1       2.087   6.145  20.997  0.00  0.00    +0.000 HD
ENDROOT
BRANCH   2  10
ATOM     10  C   UNL     1       2.861   4.816  18.896  0.00  0.00    +0.000 C 
ATOM     11  C   UNL     1       1.707   4.001  18.239  0.00  0.00    +0.000 C 
ATOM     12  C   UNL     1       1.814   2.581  18.793  0.00  0.00    +0.000 C 
ATOM     13  C   UNL     1       2.626   2.690  20.077  0.00  0.00    +0.000 C 
ATOM     14  C   UNL     1       2.819   4.187  20.306  0.00  0.00    +0.000 C 
BRANCH  10  15
ATOM     15  C   UNL     1       4.163   4.664  18.084  0.00  0.00    +0.000 A 
ATOM     16  C   UNL     1       4.108   4.127  16.777  0.00  0.00    +0.000 A 
ATOM     17  C   UNL     1       5.256   4.024  15.981  0.00  0.00    +0.000 A 
ATOM     18  C   UNL     1       6.481   4.434  16.487  0.00  0.00    +0.000 A 
ATOM     19  F   UNL     1       7.576   4.361  15.722  0.00  0.00    +0.000 F 
ATOM     20  C   UNL     1       6.580   4.932  17.774  0.00  0.00    +0.000 A 
ATOM     21  C   UNL     1       5.429   5.052  18.550  0.00  0.00    +0.000 A 
ATOM     22  F   UNL     1       5.589   5.575  19.773  0.00  0.00    +0.000 F 
ENDBRANCH  10  15
ENDBRANCH   2  10
BRANCH   7  23
ATOM     23  C   UNL     1       0.649  11.244  19.385  0.00  0.00    +0.000 C 
BRANCH  23  24
ATOM     24  C   UNL     1       1.790  11.795  18.534  0.00  0.00    +0.000 C 
BRANCH  24  25
ATOM     25  C   UNL     1       1.836  13.303  18.553  0.00  0.00    +0.000 A 
ATOM     26  C   UNL     1       0.701  14.046  18.877  0.00  0.00    +0.000 A 
ATOM     27  C   UNL     1       0.789  15.430  18.876  0.00  0.00    +0.000 A 
ATOM     28  N   UNL     1       1.914  16.110  18.571  0.00  0.00    +0.000 NA
ATOM     29  C   UNL     1       2.998  15.370  18.254  0.00  0.00    +0.000 A 
ATOM     30  C   UNL     1       3.011  13.986  18.228  0.00  0.00    +0.000 A 
ENDBRANCH  24  25
ENDBRANCH  23  24
ENDBRANCH   7  23
TORSDOF 5
ENDMDL
MODEL 7
REMARK VINA RESULT:      -8.6      1.335      1.794
REMARK  Name = 
REMARK  5 active torsions:
REMARK  status: ('A' for Active; 'I' for Inactive)
REMARK    1  A    between atoms: C_2  and  C_17
REMARK    2  A    between atoms: N_7  and  C_8
REMARK    3  A    between atoms: C_8  and  C_9
REMARK    4  A    between atoms: C_9  and  C_10
REMARK    5  A    between atoms: C_17  and  C_18
REMARK                            x       y       z     vdW  Elec       q    Type
REMARK                         _______ _______ _______ _____ _____    ______ ____
ROOT
ATOM      1  O   UNL     1       2.328   7.117  18.399  0.00  0.00    +0.000 OA
ATOM      2  C   UNL     1       2.244   6.503  19.459  0.00  0.00    +0.000 C 
ATOM      3  N   UNL     1       1.829   7.032  20.675  0.00  0.00    +0.000 N 
ATOM      4  C   UNL     1       1.328   8.315  20.824  0.00  0.00    +0.000 A 
ATOM      5  C   UNL     1       0.847   8.867  22.040  0.00  0.00    +0.000 A 
ATOM      6  C   UNL     1       0.447  10.148  21.731  0.00  0.00    +0.000 A 
ATOM      7  N   UNL     1       0.674  10.293  20.395  0.00  0.00    +0.000 N 
ATOM      8  N   UNL     1       1.211   9.202  19.838  0.00  0.00    +0.000 NA
ATOM      9  H   UNL     1       1.853   6.466  21.509  0.00  0.00    +0.000 HD
ENDROOT
BRANCH   2  10
ATOM     10  C   UNL     1       2.699   5.017  19.518  0.00  0.00    +0.000 C 
ATOM     11  C   UNL     1       1.571   4.126  18.916  0.00  0.00    +0.000 C 
ATOM     12  C   UNL     1       1.711   2.753  19.571  0.00  0.00    +0.000 C 
ATOM     13  C   UNL     1       2.510   2.976  20.848  0.00  0.00    +0.000 C 
ATOM     14  C   UNL     1       2.662   4.490  20.969  0.00  0.00    +0.000 C 
BRANCH  10  15
ATOM     15  C   UNL     1       4.010   4.840  18.726  0.00  0.00    +0.000 A 
ATOM     16  C   UNL     1       5.236   5.221  19.318  0.00  0.00    +0.000 A 
ATOM     17  C   UNL     1       6.457   5.025  18.660  0.00  0.00    +0.000 A 
ATOM     18  C   UNL     1       6.470   4.467  17.390  0.00  0.00    +0.000 A 
ATOM     19  F   UNL     1       7.636   4.255  16.768  0.00  0.00    +0.000 F 
ATOM     20  C   UNL     1       5.288   4.114  16.764  0.00  0.00    +0.000 A 
ATOM     21  C   UNL     1       4.080   4.291  17.436  0.00  0.00    +0.000 A 
ATOM     22  F   UNL     1       2.977   3.895  16.788  0.00  0.00    +0.000 F 
ENDBRANCH  10  15
ENDBRANCH   2  10
BRANCH   7  23
ATOM     23  C   UNL     1       0.317  11.402  19.524  0.00  0.00    +0.000 C 
BRANCH  23  24
ATOM     24  C   UNL     1      -0.675  11.051  18.420  0.00  0.00    +0.000 C 
BRANCH  24  25
ATOM     25  C   UNL     1      -2.079  11.490  18.756  0.00  0.00    +0.000 A 
ATOM     26  C   UNL     1      -2.326  12.298  19.866  0.00  0.00    +0.000 A 
ATOM     27  C   UNL     1      -3.633  12.673  20.139  0.00  0.00    +0.000 A 
ATOM     28  N   UNL     1      -4.693  12.296  19.394  0.00  0.00    +0.000 NA
ATOM     29  C   UNL     1      -4.431  11.509  18.328  0.00  0.00    +0.000 A 
ATOM     30  C   UNL     1      -3.162  11.083  17.972  0.00  0.00    +0.000 A 
ENDBRANCH  24  25
ENDBRANCH  23  24
ENDBRANCH   7  23
TORSDOF 5
ENDMDL
MODEL 8
REMARK VINA RESULT:      -8.5      1.946      3.345
REMARK  Name = 
REMARK  5 active torsions:
REMARK  status: ('A' for Active; 'I' for Inactive)
REMARK    1  A    between atoms: C_2  and  C_17
REMARK    2  A    between atoms: N_7  and  C_8
REMARK    3  A    between atoms: C_8  and  C_9
REMARK    4  A    between atoms: C_9  and  C_10
REMARK    5  A    between atoms: C_17  and  C_18
REMARK                            x       y       z     vdW  Elec       q    Type
REMARK                         _______ _______ _______ _____ _____    ______ ____
ROOT
ATOM      1  O   UNL     1       2.461   6.945  17.890  0.00  0.00    +0.000 OA
ATOM      2  C   UNL     1       2.429   6.291  18.928  0.00  0.00    +0.000 C 
ATOM      3  N   UNL     1       2.092   6.776  20.186  0.00  0.00    +0.000 N 
ATOM      4  C   UNL     1       1.620   8.058  20.414  0.00  0.00    +0.000 A 
ATOM      5  C   UNL     1       1.217   8.566  21.676  0.00  0.00    +0.000 A 
ATOM      6  C   UNL     1       0.819   9.864  21.441  0.00  0.00    +0.000 A 
ATOM      7  N   UNL     1       0.971  10.059  20.101  0.00  0.00    +0.000 N 
ATOM      8  N   UNL     1       1.459   8.985  19.472  0.00  0.00    +0.000 NA
ATOM      9  H   UNL     1       2.156   6.176  20.994  0.00  0.00    +0.000 HD
ENDROOT
BRANCH   2  10
ATOM     10  C   UNL     1       2.865   4.798  18.902  0.00  0.00    +0.000 C 
ATOM     11  C   UNL     1       1.720   3.955  18.263  0.00  0.00    +0.000 C 
ATOM     12  C   UNL     1       1.847   2.547  18.842  0.00  0.00    +0.000 C 
ATOM     13  C   UNL     1       2.660   2.691  20.121  0.00  0.00    +0.000 C 
ATOM     14  C   UNL     1       2.833   4.193  20.323  0.00  0.00    +0.000 C 
BRANCH  10  15
ATOM     15  C   UNL     1       4.167   4.648  18.090  0.00  0.00    +0.000 A 
ATOM     16  C   UNL     1       4.112   4.117  16.781  0.00  0.00    +0.000 A 
ATOM     17  C   UNL     1       5.261   4.016  15.985  0.00  0.00    +0.000 A 
ATOM     18  C   UNL     1       6.486   4.423  16.494  0.00  0.00    +0.000 A 
ATOM     19  F   UNL     1       7.581   4.352  15.728  0.00  0.00    +0.000 F 
ATOM     20  C   UNL     1       6.584   4.915  17.782  0.00  0.00    +0.000 A 
ATOM     21  C   UNL     1       5.433   5.033  18.559  0.00  0.00    +0.000 A 
ATOM     22  F   UNL     1       5.593   5.551  19.783  0.00  0.00    +0.000 F 
ENDBRANCH  10  15
ENDBRANCH   2  10
BRANCH   7  23
ATOM     23  C   UNL     1       0.581  11.207  19.296  0.00  0.00    +0.000 C 
BRANCH  23  24
ATOM     24  C   UNL     1       0.600  12.540  20.037  0.00  0.00    +0.000 C 
BRANCH  24  25
ATOM     25  C   UNL     1       1.870  13.314  19.781  0.00  0.00    +0.000 A 
ATOM     26  C   UNL     1       2.302  13.562  18.478  0.00  0.00    +0.000 A 
ATOM     27  C   UNL     1       3.478  14.273  18.291  0.00  0.00    +0.000 A 
ATOM     28  N   UNL     1       4.242  14.740  19.301  0.00  0.00    +0.000 NA
ATOM     29  C   UNL     1       3.807  14.483  20.553  0.00  0.00    +0.000 A 
ATOM     30  C   UNL     1       2.648  13.783  20.843  0.00  0.00    +0.000 A 
ENDBRANCH  24  25
ENDBRANCH  23  24
ENDBRANCH   7  23
TORSDOF 5
ENDMDL
MODEL 9
REMARK VINA RESULT:      -8.5      1.878      3.570
REMARK  Name = 
REMARK  5 active torsions:
REMARK  status: ('A' for Active; 'I' for Inactive)
REMARK    1  A    between atoms: C_2  and  C_17
REMARK    2  A    between atoms: N_7  and  C_8
REMARK    3  A    between atoms: C_8  and  C_9
REMARK    4  A    between atoms: C_9  and  C_10
REMARK    5  A    between atoms: C_17  and  C_18
REMARK                            x       y       z     vdW  Elec       q    Type
REMARK                         _______ _______ _______ _____ _____    ______ ____
ROOT
ATOM      1  O   UNL     1       2.793   7.616  17.653  0.00  0.00    +0.000 OA
ATOM      2  C   UNL     1       2.774   6.925  18.667  0.00  0.00    +0.000 C 
ATOM      3  N   UNL     1       2.226   7.290  19.891  0.00  0.00    +0.000 N 
ATOM      4  C   UNL     1       1.507   8.457  20.093  0.00  0.00    +0.000 A 
ATOM      5  C   UNL     1       0.891   8.834  21.315  0.00  0.00    +0.000 A 
ATOM      6  C   UNL     1       0.289  10.047  21.065  0.00  0.00    +0.000 A 
ATOM      7  N   UNL     1       0.540  10.321  19.754  0.00  0.00    +0.000 N 
ATOM      8  N   UNL     1       1.278   9.377  19.159  0.00  0.00    +0.000 NA
ATOM      9  H   UNL     1       2.315   6.680  20.688  0.00  0.00    +0.000 HD
ENDROOT
BRANCH   2  10
ATOM     10  C   UNL     1       3.475   5.536  18.657  0.00  0.00    +0.000 C 
ATOM     11  C   UNL     1       4.939   5.712  19.161  0.00  0.00    +0.000 C 
ATOM     12  C   UNL     1       5.751   4.583  18.528  0.00  0.00    +0.000 C 
ATOM     13  C   UNL     1       4.944   4.109  17.326  0.00  0.00    +0.000 C 
ATOM     14  C   UNL     1       3.779   5.086  17.211  0.00  0.00    +0.000 C 
BRANCH  10  15
ATOM     15  C   UNL     1       2.704   4.556  19.563  0.00  0.00    +0.000 A 
ATOM     16  C   UNL     1       3.163   4.318  20.879  0.00  0.00    +0.000 A 
ATOM     17  C   UNL     1       2.462   3.481  21.757  0.00  0.00    +0.000 A 
ATOM     18  C   UNL     1       1.304   2.850  21.326  0.00  0.00    +0.000 A 
ATOM     19  F   UNL     1       0.618   2.069  22.169  0.00  0.00    +0.000 F 
ATOM     20  C   UNL     1       0.843   3.031  20.035  0.00  0.00    +0.000 A 
ATOM     21  C   UNL     1       1.533   3.883  19.176  0.00  0.00    +0.000 A 
ATOM     22  F   UNL     1       1.013   4.043  17.952  0.00  0.00    +0.000 F 
ENDBRANCH  10  15
ENDBRANCH   2  10
BRANCH   7  23
ATOM     23  C   UNL     1       0.032  11.411  18.935  0.00  0.00    +0.000 C 
BRANCH  23  24
ATOM     24  C   UNL     1      -1.354  11.912  19.331  0.00  0.00    +0.000 C 
BRANCH  24  25
ATOM     25  C   UNL     1      -2.389  11.615  18.274  0.00  0.00    +0.000 A 
ATOM     26  C   UNL     1      -3.750  11.713  18.563  0.00  0.00    +0.000 A 
ATOM     27  C   UNL     1      -4.666  11.426  17.561  0.00  0.00    +0.000 A 
ATOM     28  N   UNL     1      -4.318  11.047  16.313  0.00  0.00    +0.000 NA
ATOM     29  C   UNL     1      -2.996  10.952  16.059  0.00  0.00    +0.000 A 
ATOM     30  C   UNL     1      -2.006  11.219  16.990  0.00  0.00    +0.000 A 
ENDBRANCH  24  25
ENDBRANCH  23  24
ENDBRANCH   7  23
TORSDOF 5
ENDMDL
