MODEL 1
REMARK VINA RESULT:      -9.3      0.000      0.000
REMARK  Name = 
REMARK  3 active torsions:
REMARK  status: ('A' for Active; 'I' for Inactive)
REMARK    1  A    between atoms: C_8  and  N_9
REMARK    2  A    between atoms: C_10  and  C_12
REMARK    3  A    between atoms: C_12  and  C_13
REMARK                            x       y       z     vdW  Elec       q    Type
REMARK                         _______ _______ _______ _____ _____    ______ ____
ROOT
ATOM      1  N   UNL     1       3.149   6.219  18.852  0.00  0.00    +0.000 N 
ATOM      2  C   UNL     1       2.683   5.042  18.270  0.00  0.00    +0.000 C 
ATOM      3  O   UNL     1       1.616   4.936  17.659  0.00  0.00    +0.000 OA
ATOM      4  H   UNL     1       4.106   6.234  19.184  0.00  0.00    +0.000 HD
ENDROOT
BRANCH   1  12
ATOM      5  O   UNL     1       0.239   9.088  22.402  0.00  0.00    +0.000 OA
ATOM      6  C   UNL     1       0.395   9.581  21.302  0.00  0.00    +0.000 C 
ATOM      7  N   UNL     1      -0.077  10.794  20.855  0.00  0.00    +0.000 N 
ATOM      8  C   UNL     1       0.289  11.079  19.491  0.00  0.00    +0.000 C 
ATOM      9  C   UNL     1       1.060   9.862  19.110  0.00  0.00    +0.000 A 
ATOM     10  C   UNL     1       1.657   9.536  17.914  0.00  0.00    +0.000 A 
ATOM     11  C   UNL     1       2.339   8.315  17.834  0.00  0.00    +0.000 A 
ATOM     12  C   UNL     1       2.436   7.434  18.931  0.00  0.00    +0.000 A 
ATOM     13  C   UNL     1       1.795   7.761  20.130  0.00  0.00    +0.000 A 
ATOM     14  C   UNL     1       1.130   8.977  20.186  0.00  0.00    +0.000 A 
ATOM     15  H   UNL     1      -0.625  11.400  21.460  0.00  0.00    +0.000 HD
ENDBRANCH   1  12
BRANCH   2  16
ATOM     16  C   UNL     1       3.652   3.839  18.335  0.00  0.00    +0.000 C 
ATOM     17  C   UNL     1       2.911   2.564  17.838  0.00  0.00    +0.000 C 
ATOM     18  C   UNL     1       3.592   1.387  18.530  0.00  0.00    +0.000 C 
ATOM     19  C   UNL     1       4.290   1.959  19.758  0.00  0.00    +0.000 C 
ATOM     20  C   UNL     1       3.904   3.432  19.800  0.00  0.00    +0.000 C 
BRANCH  16  21
ATOM     21  C   UNL     1       4.883   4.116  17.456  0.00  0.00    +0.000 A 
ATOM     22  C   UNL     1       6.074   4.582  18.056  0.00  0.00    +0.000 A 
ATOM     23  C   UNL     1       7.219   4.859  17.301  0.00  0.00    +0.000 A 
ATOM     24  C   UNL     1       7.203   4.669  15.926  0.00  0.00    +0.000 A 
ATOM     25  C   UNL     1       6.042   4.199  15.316  0.00  0.00    +0.000 A 
ATOM     26 CL   UNL     1       6.017   3.961  13.611  0.00  0.00    +0.000 Cl
ATOM     27  C   UNL     1       4.899   3.921  16.066  0.00  0.00    +0.000 A 
ENDBRANCH  16  21
ENDBRANCH   2  16
TORSDOF 3
ENDMDL
MODEL 2
REMARK VINA RESULT:      -8.8      1.318      1.619
REMARK  Name = 
REMARK  3 active torsions:
REMARK  status: ('A' for Active; 'I' for Inactive)
REMARK    1  A    between atoms: C_8  and  N_9
REMARK    2  A    between atoms: C_10  and  C_12
REMARK    3  A    between atoms: C_12  and  C_13
REMARK                            x       y       z     vdW  Elec       q    Type
REMARK                         _______ _______ _______ _____ _____    ______ ____
ROOT
ATOM      1  N   UNL     1       2.925   6.405  19.046  0.00  0.00    +0.000 N 
ATOM      2  C   UNL     1       2.510   5.245  18.394  0.00  0.00    +0.000 C 
ATOM      3  O   UNL     1       1.467   5.142  17.742  0.00  0.00    +0.000 OA
ATOM      4  H   UNL     1       3.870   6.427  19.411  0.00  0.00    +0.000 HD
ENDROOT
BRANCH   1  12
ATOM      5  O   UNL     1       0.158   9.233  22.740  0.00  0.00    +0.000 OA
ATOM      6  C   UNL     1       0.226   9.713  21.626  0.00  0.00    +0.000 C 
ATOM      7  N   UNL     1      -0.314  10.903  21.195  0.00  0.00    +0.000 N 
ATOM      8  C   UNL     1      -0.047  11.180  19.806  0.00  0.00    +0.000 C 
ATOM      9  C   UNL     1       0.738   9.982  19.391  0.00  0.00    +0.000 A 
ATOM     10  C   UNL     1       1.267   9.657  18.164  0.00  0.00    +0.000 A 
ATOM     11  C   UNL     1       1.982   8.458  18.055  0.00  0.00    +0.000 A 
ATOM     12  C   UNL     1       2.179   7.597  19.155  0.00  0.00    +0.000 A 
ATOM     13  C   UNL     1       1.607   7.922  20.389  0.00  0.00    +0.000 A 
ATOM     14  C   UNL     1       0.906   9.117  20.472  0.00  0.00    +0.000 A 
ATOM     15  H   UNL     1      -0.841  11.501  21.826  0.00  0.00    +0.000 HD
ENDBRANCH   1  12
BRANCH   2  16
ATOM     16  C   UNL     1       3.506   4.064  18.438  0.00  0.00    +0.000 C 
ATOM     17  C   UNL     1       2.903   2.863  17.655  0.00  0.00    +0.000 C 
ATOM     18  C   UNL     1       3.519   1.609  18.270  0.00  0.00    +0.000 C 
ATOM     19  C   UNL     1       3.997   2.007  19.661  0.00  0.00    +0.000 C 
ATOM     20  C   UNL     1       3.549   3.451  19.851  0.00  0.00    +0.000 C 
BRANCH  16  21
ATOM     21  C   UNL     1       4.844   4.491  17.810  0.00  0.00    +0.000 A 
ATOM     22  C   UNL     1       5.142   4.105  16.483  0.00  0.00    +0.000 A 
ATOM     23  C   UNL     1       6.348   4.459  15.869  0.00  0.00    +0.000 A 
ATOM     24  C   UNL     1       7.284   5.213  16.565  0.00  0.00    +0.000 A 
ATOM     25  C   UNL     1       7.004   5.612  17.869  0.00  0.00    +0.000 A 
ATOM     26 CL   UNL     1       8.160   6.549  18.735  0.00  0.00    +0.000 Cl
ATOM     27  C   UNL     1       5.802   5.263  18.484  0.00  0.00    +0.000 A 
ENDBRANCH  16  21
ENDBRANCH   2  16
TORSDOF 3
ENDMDL
MODEL 3
REMARK VINA RESULT:      -8.6      1.045      1.187
REMARK  Name = 
REMARK  3 active torsions:
REMARK  status: ('A' for Active; 'I' for Inactive)
REMARK    1  A    between atoms: C_8  and  N_9
REMARK    2  A    between atoms: C_10  and  C_12
REMARK    3  A    between atoms: C_12  and  C_13
REMARK                            x       y       z     vdW  Elec       q    Type
REMARK                         _______ _______ _______ _____ _____    ______ ____
ROOT
ATOM      1  N   UNL     1       2.281   6.669  19.386  0.00  0.00    +0.000 N 
ATOM      2  C   UNL     1       3.137   6.306  18.348  0.00  0.00    +0.000 C 
ATOM      3  O   UNL     1       3.624   7.095  17.533  0.00  0.00    +0.000 OA
ATOM      4  H   UNL     1       2.074   5.971  20.091  0.00  0.00    +0.000 HD
ENDROOT
BRANCH   1  12
ATOM      5  O   UNL     1       0.301   9.710  23.402  0.00  0.00    +0.000 OA
ATOM      6  C   UNL     1       0.366  10.231  22.305  0.00  0.00    +0.000 C 
ATOM      7  N   UNL     1       0.001  11.514  21.968  0.00  0.00    +0.000 N 
ATOM      8  C   UNL     1       0.208  11.816  20.574  0.00  0.00    +0.000 C 
ATOM      9  C   UNL     1       0.750  10.531  20.049  0.00  0.00    +0.000 A 
ATOM     10  C   UNL     1       1.126  10.189  18.771  0.00  0.00    +0.000 A 
ATOM     11  C   UNL     1       1.622   8.897  18.557  0.00  0.00    +0.000 A 
ATOM     12  C   UNL     1       1.753   7.959  19.602  0.00  0.00    +0.000 A 
ATOM     13  C   UNL     1       1.335   8.307  20.891  0.00  0.00    +0.000 A 
ATOM     14  C   UNL     1       0.851   9.594  21.078  0.00  0.00    +0.000 A 
ATOM     15  H   UNL     1      -0.372  12.156  22.662  0.00  0.00    +0.000 HD
ENDBRANCH   1  12
BRANCH   2  16
ATOM     16  C   UNL     1       3.556   4.819  18.319  0.00  0.00    +0.000 C 
ATOM     17  C   UNL     1       2.432   3.989  17.634  0.00  0.00    +0.000 C 
ATOM     18  C   UNL     1       2.535   2.582  18.215  0.00  0.00    +0.000 C 
ATOM     19  C   UNL     1       3.278   2.720  19.538  0.00  0.00    +0.000 C 
ATOM     20  C   UNL     1       3.489   4.215  19.736  0.00  0.00    +0.000 C 
BRANCH  16  21
ATOM     21  C   UNL     1       4.876   4.666  17.546  0.00  0.00    +0.000 A 
ATOM     22  C   UNL     1       6.102   4.859  18.221  0.00  0.00    +0.000 A 
ATOM     23  C   UNL     1       7.331   4.741  17.562  0.00  0.00    +0.000 A 
ATOM     24  C   UNL     1       7.363   4.419  16.212  0.00  0.00    +0.000 A 
ATOM     25  C   UNL     1       6.167   4.214  15.531  0.00  0.00    +0.000 A 
ATOM     26 CL   UNL     1       6.202   3.813  13.857  0.00  0.00    +0.000 Cl
ATOM     27  C   UNL     1       4.940   4.328  16.185  0.00  0.00    +0.000 A 
ENDBRANCH  16  21
ENDBRANCH   2  16
TORSDOF 3
ENDMDL
MODEL 4
REMARK VINA RESULT:      -8.4      2.483      3.945
REMARK  Name = 
REMARK  3 active torsions:
REMARK  status: ('A' for Active; 'I' for Inactive)
REMARK    1  A    between atoms: C_8  and  N_9
REMARK    2  A    between atoms: C_10  and  C_12
REMARK    3  A    between atoms: C_12  and  C_13
REMARK                            x       y       z     vdW  Elec       q    Type
REMARK                         _______ _______ _______ _____ _____    ______ ____
ROOT
ATOM      1  N   UNL     1       2.282   7.198  19.472  0.00  0.00    +0.000 N 
ATOM      2  C   UNL     1       3.129   7.013  18.381  0.00  0.00    +0.000 C 
ATOM      3  O   UNL     1       3.435   7.896  17.574  0.00  0.00    +0.000 OA
ATOM      4  H   UNL     1       2.230   6.454  20.159  0.00  0.00    +0.000 HD
ENDROOT
BRANCH   1  12
ATOM      5  O   UNL     1       0.105   9.780  23.702  0.00  0.00    +0.000 OA
ATOM      6  C   UNL     1       0.006  10.326  22.621  0.00  0.00    +0.000 C 
ATOM      7  N   UNL     1      -0.592  11.535  22.348  0.00  0.00    +0.000 N 
ATOM      8  C   UNL     1      -0.536  11.896  20.954  0.00  0.00    +0.000 C 
ATOM      9  C   UNL     1       0.176  10.731  20.355  0.00  0.00    +0.000 A 
ATOM     10  C   UNL     1       0.515  10.484  19.045  0.00  0.00    +0.000 A 
ATOM     11  C   UNL     1       1.203   9.299  18.758  0.00  0.00    +0.000 A 
ATOM     12  C   UNL     1       1.562   8.375  19.763  0.00  0.00    +0.000 A 
ATOM     13  C   UNL     1       1.182   8.622  21.086  0.00  0.00    +0.000 A 
ATOM     14  C   UNL     1       0.504   9.804  21.344  0.00  0.00    +0.000 A 
ATOM     15  H   UNL     1      -1.018  12.090  23.085  0.00  0.00    +0.000 HD
ENDBRANCH   1  12
BRANCH   2  16
ATOM     16  C   UNL     1       3.784   5.617  18.275  0.00  0.00    +0.000 C 
ATOM     17  C   UNL     1       5.053   5.583  19.173  0.00  0.00    +0.000 C 
ATOM     18  C   UNL     1       5.984   4.548  18.546  0.00  0.00    +0.000 C 
ATOM     19  C   UNL     1       5.545   4.405  17.094  0.00  0.00    +0.000 C 
ATOM     20  C   UNL     1       4.444   5.439  16.894  0.00  0.00    +0.000 C 
BRANCH  16  21
ATOM     21  C   UNL     1       2.784   4.539  18.726  0.00  0.00    +0.000 A 
ATOM     22  C   UNL     1       1.882   3.991  17.785  0.00  0.00    +0.000 A 
ATOM     23  C   UNL     1       0.947   3.016  18.146  0.00  0.00    +0.000 A 
ATOM     24  C   UNL     1       0.895   2.558  19.456  0.00  0.00    +0.000 A 
ATOM     25  C   UNL     1       1.781   3.077  20.395  0.00  0.00    +0.000 A 
ATOM     26 CL   UNL     1       1.721   2.512  22.020  0.00  0.00    +0.000 Cl
ATOM     27  C   UNL     1       2.717   4.049  20.039  0.00  0.00    +0.000 A 
ENDBRANCH  16  21
ENDBRANCH   2  16
TORSDOF 3
ENDMDL
MODEL 5
REMARK VINA RESULT:      -8.4      1.311      1.765
REMARK  Name = 
REMARK  3 active torsions:
REMARK  status: ('A' for Active; 'I' for Inactive)
REMARK    1  A    between atoms: C_8  and  N_9
REMARK    2  A    between atoms: C_10  and  C_12
REMARK    3  A    between atoms: C_12  and  C_13
REMARK                            x       y       z     vdW  Elec       q    Type
REMARK                         _______ _______ _______ _____ _____    ______ ____
ROOT
ATOM      1  N   UNL     1       2.990   5.861  19.509  0.00  0.00    +0.000 N 
ATOM      2  C   UNL     1       2.692   4.909  18.537  0.00  0.00    +0.000 C 
ATOM      3  O   UNL     1       1.780   5.011  17.712  0.00  0.00    +0.000 OA
ATOM      4  H   UNL     1       3.856   5.754  20.024  0.00  0.00    +0.000 HD
ENDROOT
BRANCH   1  12
ATOM      5  O   UNL     1       2.061  10.756  17.392  0.00  0.00    +0.000 OA
ATOM      6  C   UNL     1       1.458  10.480  18.411  0.00  0.00    +0.000 C 
ATOM      7  N   UNL     1       0.557  11.270  19.087  0.00  0.00    +0.000 N 
ATOM      8  C   UNL     1       0.021  10.638  20.267  0.00  0.00    +0.000 C 
ATOM      9  C   UNL     1       0.721   9.323  20.266  0.00  0.00    +0.000 A 
ATOM     10  C   UNL     1       0.638   8.280  21.160  0.00  0.00    +0.000 A 
ATOM     11  C   UNL     1       1.407   7.138  20.907  0.00  0.00    +0.000 A 
ATOM     12  C   UNL     1       2.240   7.026  19.774  0.00  0.00    +0.000 A 
ATOM     13  C   UNL     1       2.341   8.107  18.891  0.00  0.00    +0.000 A 
ATOM     14  C   UNL     1       1.567   9.226  19.162  0.00  0.00    +0.000 A 
ATOM     15  H   UNL     1       0.318  12.200  18.754  0.00  0.00    +0.000 HD
ENDBRANCH   1  12
BRANCH   2  16
ATOM     16  C   UNL     1       3.662   3.707  18.463  0.00  0.00    +0.000 C 
ATOM     17  C   UNL     1       2.899   2.475  17.897  0.00  0.00    +0.000 C 
ATOM     18  C   UNL     1       3.608   1.247  18.463  0.00  0.00    +0.000 C 
ATOM     19  C   UNL     1       4.358   1.720  19.702  0.00  0.00    +0.000 C 
ATOM     20  C   UNL     1       3.975   3.184  19.878  0.00  0.00    +0.000 C 
BRANCH  16  21
ATOM     21  C   UNL     1       4.854   4.058  17.557  0.00  0.00    +0.000 A 
ATOM     22  C   UNL     1       6.034   4.580  18.133  0.00  0.00    +0.000 A 
ATOM     23  C   UNL     1       7.143   4.923  17.353  0.00  0.00    +0.000 A 
ATOM     24  C   UNL     1       7.102   4.746  15.977  0.00  0.00    +0.000 A 
ATOM     25  C   UNL     1       5.953   4.222  15.390  0.00  0.00    +0.000 A 
ATOM     26 CL   UNL     1       5.898   3.999  13.684  0.00  0.00    +0.000 Cl
ATOM     27  C   UNL     1       4.846   3.877  16.165  0.00  0.00    +0.000 A 
ENDBRANCH  16  21
ENDBRANCH   2  16
TORSDOF 3
ENDMDL
MODEL 6
REMARK VINA RESULT:      -8.3      2.133      3.567
REMARK  Name = 
REMARK  3 active torsions:
REMARK  status: ('A' for Active; 'I' for Inactive)
REMARK    1  A    between atoms: C_8  and  N_9
REMARK    2  A    between atoms: C_10  and  C_12
REMARK    3  A    between atoms: C_12  and  C_13
REMARK                            x       y       z     vdW  Elec       q    Type
REMARK                         _______ _______ _______ _____ _____    ______ ____
ROOT
ATOM      1  N   UNL     1       2.904   6.689  18.554  0.00  0.00    +0.000 N 
ATOM      2  C   UNL     1       4.053   6.718  17.768  0.00  0.00    +0.000 C 
ATOM      3  O   UNL     1       4.560   7.744  17.305  0.00  0.00    +0.000 OA
ATOM      4  H   UNL     1       2.670   5.817  19.014  0.00  0.00    +0.000 HD
ENDROOT
BRANCH   1  12
ATOM      5  O   UNL     1       0.940   9.352  22.838  0.00  0.00    +0.000 OA
ATOM      6  C   UNL     1       0.648   9.792  21.743  0.00  0.00    +0.000 C 
ATOM      7  N   UNL     1      -0.121  10.898  21.465  0.00  0.00    +0.000 N 
ATOM      8  C   UNL     1      -0.274  11.145  20.054  0.00  0.00    +0.000 C 
ATOM      9  C   UNL     1       0.499  10.023  19.451  0.00  0.00    +0.000 A 
ATOM     10  C   UNL     1       0.709   9.707  18.129  0.00  0.00    +0.000 A 
ATOM     11  C   UNL     1       1.499   8.588  17.840  0.00  0.00    +0.000 A 
ATOM     12  C   UNL     1       2.084   7.798  18.852  0.00  0.00    +0.000 A 
ATOM     13  C   UNL     1       1.836   8.110  20.192  0.00  0.00    +0.000 A 
ATOM     14  C   UNL     1       1.052   9.225  20.453  0.00  0.00    +0.000 A 
ATOM     15  H   UNL     1      -0.522  11.461  22.211  0.00  0.00    +0.000 HD
ENDBRANCH   1  12
BRANCH   2  16
ATOM     16  C   UNL     1       4.762   5.358  17.574  0.00  0.00    +0.000 C 
ATOM     17  C   UNL     1       6.123   5.384  18.327  0.00  0.00    +0.000 C 
ATOM     18  C   UNL     1       7.030   4.402  17.589  0.00  0.00    +0.000 C 
ATOM     19  C   UNL     1       6.442   4.246  16.192  0.00  0.00    +0.000 C 
ATOM     20  C   UNL     1       5.275   5.223  16.126  0.00  0.00    +0.000 C 
BRANCH  16  21
ATOM     21  C   UNL     1       3.874   4.228  18.119  0.00  0.00    +0.000 A 
ATOM     22  C   UNL     1       3.160   3.408  17.215  0.00  0.00    +0.000 A 
ATOM     23  C   UNL     1       2.331   2.372  17.659  0.00  0.00    +0.000 A 
ATOM     24  C   UNL     1       2.201   2.126  19.019  0.00  0.00    +0.000 A 
ATOM     25  C   UNL     1       2.904   2.915  19.925  0.00  0.00    +0.000 A 
ATOM     26 CL   UNL     1       2.746   2.612  21.613  0.00  0.00    +0.000 Cl
ATOM     27  C   UNL     1       3.732   3.947  19.487  0.00  0.00    +0.000 A 
ENDBRANCH  16  21
ENDBRANCH   2  16
TORSDOF 3
ENDMDL
MODEL 7
REMARK VINA RESULT:      -8.3      1.073      1.218
REMARK  Name = 
REMARK  3 active torsions:
REMARK  status: ('A' for Active; 'I' for Inactive)
REMARK    1  A    between atoms: C_8  and  N_9
REMARK    2  A    between atoms: C_10  and  C_12
REMARK    3  A    between atoms: C_12  and  C_13
REMARK                            x       y       z     vdW  Elec       q    Type
REMARK                         _______ _______ _______ _____ _____    ______ ____
ROOT
ATOM      1  N   UNL     1       2.623   6.597  18.583  0.00  0.00    +0.000 N 
ATOM      2  C   UNL     1       2.643   5.470  19.401  0.00  0.00    +0.000 C 
ATOM      3  O   UNL     1       2.058   5.379  20.484  0.00  0.00    +0.000 OA
ATOM      4  H   UNL     1       2.998   6.506  17.646  0.00  0.00    +0.000 HD
ENDROOT
BRANCH   1  12
ATOM      5  O   UNL     1       0.643   9.243  22.870  0.00  0.00    +0.000 OA
ATOM      6  C   UNL     1       0.631   9.838  21.810  0.00  0.00    +0.000 C 
ATOM      7  N   UNL     1       0.179  11.116  21.575  0.00  0.00    +0.000 N 
ATOM      8  C   UNL     1       0.309  11.521  20.198  0.00  0.00    +0.000 C 
ATOM      9  C   UNL     1       0.901  10.308  19.567  0.00  0.00    +0.000 A 
ATOM     10  C   UNL     1       1.242  10.074  18.254  0.00  0.00    +0.000 A 
ATOM     11  C   UNL     1       1.802   8.832  17.934  0.00  0.00    +0.000 A 
ATOM     12  C   UNL     1       2.031   7.836  18.907  0.00  0.00    +0.000 A 
ATOM     13  C   UNL     1       1.649   8.073  20.231  0.00  0.00    +0.000 A 
ATOM     14  C   UNL     1       1.100   9.313  20.524  0.00  0.00    +0.000 A 
ATOM     15  H   UNL     1      -0.201  11.687  22.325  0.00  0.00    +0.000 HD
ENDBRANCH   1  12
BRANCH   2  16
ATOM     16  C   UNL     1       3.378   4.240  18.821  0.00  0.00    +0.000 C 
ATOM     17  C   UNL     1       2.547   3.663  17.639  0.00  0.00    +0.000 C 
ATOM     18  C   UNL     1       2.891   2.178  17.569  0.00  0.00    +0.000 C 
ATOM     19  C   UNL     1       3.433   1.800  18.942  0.00  0.00    +0.000 C 
ATOM     20  C   UNL     1       3.287   3.051  19.798  0.00  0.00    +0.000 C 
BRANCH  16  21
ATOM     21  C   UNL     1       4.777   4.652  18.337  0.00  0.00    +0.000 A 
ATOM     22  C   UNL     1       5.724   5.128  19.272  0.00  0.00    +0.000 A 
ATOM     23  C   UNL     1       7.007   5.525  18.883  0.00  0.00    +0.000 A 
ATOM     24  C   UNL     1       7.379   5.449  17.547  0.00  0.00    +0.000 A 
ATOM     25  C   UNL     1       6.465   4.973  16.611  0.00  0.00    +0.000 A 
ATOM     26 CL   UNL     1       6.922   4.875  14.954  0.00  0.00    +0.000 Cl
ATOM     27  C   UNL     1       5.185   4.574  16.996  0.00  0.00    +0.000 A 
ENDBRANCH  16  21
ENDBRANCH   2  16
TORSDOF 3
ENDMDL
MODEL 8
REMARK VINA RESULT:      -8.1      2.209      2.846
REMARK  Name = 
REMARK  3 active torsions:
REMARK  status: ('A' for Active; 'I' for Inactive)
REMARK    1  A    between atoms: C_8  and  N_9
REMARK    2  A    between atoms: C_10  and  C_12
REMARK    3  A    between atoms: C_12  and  C_13
REMARK                            x       y       z     vdW  Elec       q    Type
REMARK                         _______ _______ _______ _____ _____    ______ ____
ROOT
ATOM      1  N   UNL     1       2.270   7.000  19.488  0.00  0.00    +0.000 N 
ATOM      2  C   UNL     1       2.157   5.660  19.849  0.00  0.00    +0.000 C 
ATOM      3  O   UNL     1       1.433   5.237  20.756  0.00  0.00    +0.000 OA
ATOM      4  H   UNL     1       2.763   7.216  18.629  0.00  0.00    +0.000 HD
ENDROOT
BRANCH   1  12
ATOM      5  O   UNL     1      -0.203  11.689  18.393  0.00  0.00    +0.000 OA
ATOM      6  C   UNL     1      -0.106  11.385  19.567  0.00  0.00    +0.000 C 
ATOM      7  N   UNL     1      -0.562  12.096  20.653  0.00  0.00    +0.000 N 
ATOM      8  C   UNL     1      -0.283  11.451  21.912  0.00  0.00    +0.000 C 
ATOM      9  C   UNL     1       0.438  10.220  21.482  0.00  0.00    +0.000 A 
ATOM     10  C   UNL     1       0.979   9.206  22.239  0.00  0.00    +0.000 A 
ATOM     11  C   UNL     1       1.598   8.145  21.567  0.00  0.00    +0.000 A 
ATOM     12  C   UNL     1       1.671   8.086  20.159  0.00  0.00    +0.000 A 
ATOM     13  C   UNL     1       1.148   9.139  19.403  0.00  0.00    +0.000 A 
ATOM     14  C   UNL     1       0.536  10.177  20.092  0.00  0.00    +0.000 A 
ATOM     15  H   UNL     1      -1.046  12.982  20.538  0.00  0.00    +0.000 HD
ENDBRANCH   1  12
BRANCH   2  16
ATOM     16  C   UNL     1       2.932   4.662  18.960  0.00  0.00    +0.000 C 
ATOM     17  C   UNL     1       2.029   4.239  17.766  0.00  0.00    +0.000 C 
ATOM     18  C   UNL     1       2.500   2.846  17.355  0.00  0.00    +0.000 C 
ATOM     19  C   UNL     1       3.230   2.270  18.563  0.00  0.00    +0.000 C 
ATOM     20  C   UNL     1       3.066   3.301  19.671  0.00  0.00    +0.000 C 
BRANCH  16  21
ATOM     21  C   UNL     1       4.222   5.321  18.443  0.00  0.00    +0.000 A 
ATOM     22  C   UNL     1       4.197   6.034  17.224  0.00  0.00    +0.000 A 
ATOM     23  C   UNL     1       5.344   6.644  16.705  0.00  0.00    +0.000 A 
ATOM     24  C   UNL     1       6.545   6.562  17.398  0.00  0.00    +0.000 A 
ATOM     25  C   UNL     1       6.588   5.872  18.607  0.00  0.00    +0.000 A 
ATOM     26 CL   UNL     1       8.074   5.768  19.471  0.00  0.00    +0.000 Cl
ATOM     27  C   UNL     1       5.446   5.265  19.128  0.00  0.00    +0.000 A 
ENDBRANCH  16  21
ENDBRANCH   2  16
TORSDOF 3
ENDMDL
MODEL 9
REMARK VINA RESULT:      -8.0      1.779      2.354
REMARK  Name = 
REMARK  3 active torsions:
REMARK  status: ('A' for Active; 'I' for Inactive)
REMARK    1  A    between atoms: C_8  and  N_9
REMARK    2  A    between atoms: C_10  and  C_12
REMARK    3  A    between atoms: C_12  and  C_13
REMARK                            x       y       z     vdW  Elec       q    Type
REMARK                         _______ _______ _______ _____ _____    ______ ____
ROOT
ATOM      1  N   UNL     1       2.675   6.240  19.723  0.00  0.00    +0.000 N 
ATOM      2  C   UNL     1       2.444   5.387  18.646  0.00  0.00    +0.000 C 
ATOM      3  O   UNL     1       1.566   5.555  17.794  0.00  0.00    +0.000 OA
ATOM      4  H   UNL     1       3.520   6.098  20.263  0.00  0.00    +0.000 HD
ENDROOT
BRANCH   1  12
ATOM      5  O   UNL     1       1.732  11.315  18.093  0.00  0.00    +0.000 OA
ATOM      6  C   UNL     1       1.087  10.920  19.045  0.00  0.00    +0.000 C 
ATOM      7  N   UNL     1       0.135  11.615  19.754  0.00  0.00    +0.000 N 
ATOM      8  C   UNL     1      -0.443  10.851  20.831  0.00  0.00    +0.000 C 
ATOM      9  C   UNL     1       0.288   9.556  20.726  0.00  0.00    +0.000 A 
ATOM     10  C   UNL     1       0.187   8.422  21.499  0.00  0.00    +0.000 A 
ATOM     11  C   UNL     1       0.995   7.328  21.166  0.00  0.00    +0.000 A 
ATOM     12  C   UNL     1       1.885   7.356  20.071  0.00  0.00    +0.000 A 
ATOM     13  C   UNL     1       2.003   8.526  19.315  0.00  0.00    +0.000 A 
ATOM     14  C   UNL     1       1.189   9.595  19.663  0.00  0.00    +0.000 A 
ATOM     15  H   UNL     1      -0.110  12.571  19.510  0.00  0.00    +0.000 HD
ENDBRANCH   1  12
BRANCH   2  16
ATOM     16  C   UNL     1       3.446   4.221  18.493  0.00  0.00    +0.000 C 
ATOM     17  C   UNL     1       2.759   3.060  17.718  0.00  0.00    +0.000 C 
ATOM     18  C   UNL     1       3.454   1.780  18.175  0.00  0.00    +0.000 C 
ATOM     19  C   UNL     1       4.098   2.101  19.518  0.00  0.00    +0.000 C 
ATOM     20  C   UNL     1       3.667   3.524  19.850  0.00  0.00    +0.000 C 
BRANCH  16  21
ATOM     21  C   UNL     1       4.693   4.703  17.734  0.00  0.00    +0.000 A 
ATOM     22  C   UNL     1       4.880   4.312  16.388  0.00  0.00    +0.000 A 
ATOM     23  C   UNL     1       6.002   4.716  15.656  0.00  0.00    +0.000 A 
ATOM     24  C   UNL     1       6.960   5.527  16.248  0.00  0.00    +0.000 A 
ATOM     25  C   UNL     1       6.789   5.932  17.569  0.00  0.00    +0.000 A 
ATOM     26 CL   UNL     1       7.974   6.939  18.308  0.00  0.00    +0.000 Cl
ATOM     27  C   UNL     1       5.671   5.533  18.303  0.00  0.00    +0.000 A 
ENDBRANCH  16  21
ENDBRANCH   2  16
TORSDOF 3
ENDMDL
