MODEL 1
REMARK VINA RESULT:      -9.2      0.000      0.000
REMARK  Name = 
REMARK  5 active torsions:
REMARK  status: ('A' for Active; 'I' for Inactive)
REMARK    1  A    between atoms: C_7  and  C_8
REMARK    2  A    between atoms: N_10  and  C_11
REMARK    3  A    between atoms: C_15  and  O_16
REMARK    4  A    between atoms: O_16  and  C_17
REMARK    5  A    between atoms: C_17  and  C_18
REMARK                            x       y       z     vdW  Elec       q    Type
REMARK                         _______ _______ _______ _____ _____    ______ ____
ROOT
ATOM      1  C   UNL     1       8.956  10.049  18.700  0.00  0.00    +0.000 C 
ATOM      2  O   UNL     1       9.180   9.653  19.839  0.00  0.00    +0.000 OA
ATOM      3  N   UNL     1       8.260   9.368  17.718  0.00  0.00    +0.000 N 
ATOM      4  H   UNL     1       8.295   9.738  16.777  0.00  0.00    +0.000 HD
ENDROOT
BRANCH   1  11
ATOM      5  O   UNL     1      10.480  17.357  16.898  0.00  0.00    +0.000 OA
ATOM      6  C   UNL     1      10.082  16.245  17.236  0.00  0.00    +0.000 C 
ATOM      7  C   UNL     1       8.675  15.985  17.775  0.00  0.00    +0.000 C 
ATOM      8  O   UNL     1       8.430  14.808  18.524  0.00  0.00    +0.000 OA
ATOM      9  C   UNL     1       9.220  13.749  18.179  0.00  0.00    +0.000 A 
ATOM     10  C   UNL     1       8.790  12.497  18.602  0.00  0.00    +0.000 A 
ATOM     11  C   UNL     1       9.546  11.354  18.315  0.00  0.00    +0.000 A 
ATOM     12  C   UNL     1      10.755  11.472  17.619  0.00  0.00    +0.000 A 
ATOM     13  C   UNL     1      11.197  12.738  17.207  0.00  0.00    +0.000 A 
ATOM     14  C   UNL     1      10.422  13.870  17.481  0.00  0.00    +0.000 A 
ATOM     15  N   UNL     1      10.858  15.129  17.068  0.00  0.00    +0.000 N 
ATOM     16  H   UNL     1      11.760  15.262  16.634  0.00  0.00    +0.000 HD
ENDBRANCH   1  11
BRANCH   3  17
ATOM     17  C   UNL     1       7.673   8.089  17.874  0.00  0.00    +0.000 A 
ATOM     18  C   UNL     1       8.273   7.041  18.576  0.00  0.00    +0.000 A 
ATOM     19  C   UNL     1       7.662   5.787  18.653  0.00  0.00    +0.000 A 
ATOM     20  C   UNL     1       6.425   5.578  18.053  0.00  0.00    +0.000 A 
ATOM     21  C   UNL     1       5.785   6.628  17.399  0.00  0.00    +0.000 A 
ATOM     22  C   UNL     1       6.420   7.873  17.289  0.00  0.00    +0.000 A 
BRANCH  21  23
ATOM     23  O   UNL     1       4.544   6.336  16.895  0.00  0.00    +0.000 OA
BRANCH  23  24
ATOM     24  C   UNL     1       3.465   7.004  17.545  0.00  0.00    +0.000 C 
BRANCH  24  25
ATOM     25  C   UNL     1       2.700   6.024  18.398  0.00  0.00    +0.000 A 
ATOM     26  C   UNL     1       2.160   4.864  17.818  0.00  0.00    +0.000 A 
ATOM     27  C   UNL     1       1.489   3.930  18.606  0.00  0.00    +0.000 A 
ATOM     28  C   UNL     1       1.353   4.157  19.969  0.00  0.00    +0.000 A 
ATOM     29  F   UNL     1       0.716   3.256  20.726  0.00  0.00    +0.000 F 
ATOM     30  C   UNL     1       1.868   5.306  20.560  0.00  0.00    +0.000 A 
ATOM     31  C   UNL     1       2.542   6.243  19.774  0.00  0.00    +0.000 A 
ENDBRANCH  24  25
ENDBRANCH  23  24
ENDBRANCH  21  23
ENDBRANCH   3  17
TORSDOF 5
ENDMDL
MODEL 2
REMARK VINA RESULT:      -9.1      2.022      2.789
REMARK  Name = 
REMARK  5 active torsions:
REMARK  status: ('A' for Active; 'I' for Inactive)
REMARK    1  A    between atoms: C_7  and  C_8
REMARK    2  A    between atoms: N_10  and  C_11
REMARK    3  A    between atoms: C_15  and  O_16
REMARK    4  A    between atoms: O_16  and  C_17
REMARK    5  A    between atoms: C_17  and  C_18
REMARK                            x       y       z     vdW  Elec       q    Type
REMARK                         _______ _______ _______ _____ _____    ______ ____
ROOT
ATOM      1  C   UNL     1       8.022   8.208  18.132  0.00  0.00    +0.000 C 
ATOM      2  O   UNL     1       8.565   7.380  18.857  0.00  0.00    +0.000 OA
ATOM      3  N   UNL     1       7.080   7.946  17.154  0.00  0.00    +0.000 N 
ATOM      4  H   UNL     1       6.842   8.698  16.521  0.00  0.00    +0.000 HD
ENDROOT
BRANCH   1  11
ATOM      5  O   UNL     1      10.574  15.084  20.406  0.00  0.00    +0.000 OA
ATOM      6  C   UNL     1      10.218  13.928  20.197  0.00  0.00    +0.000 C 
ATOM      7  C   UNL     1      10.352  12.808  21.228  0.00  0.00    +0.000 C 
ATOM      8  O   UNL     1      10.325  11.460  20.791  0.00  0.00    +0.000 OA
ATOM      9  C   UNL     1       9.577  11.249  19.668  0.00  0.00    +0.000 A 
ATOM     10  C   UNL     1       9.214   9.933  19.410  0.00  0.00    +0.000 A 
ATOM     11  C   UNL     1       8.466   9.616  18.270  0.00  0.00    +0.000 A 
ATOM     12  C   UNL     1       8.101  10.625  17.370  0.00  0.00    +0.000 A 
ATOM     13  C   UNL     1       8.482  11.951  17.623  0.00  0.00    +0.000 A 
ATOM     14  C   UNL     1       9.211  12.258  18.777  0.00  0.00    +0.000 A 
ATOM     15  N   UNL     1       9.587  13.576  19.033  0.00  0.00    +0.000 N 
ATOM     16  H   UNL     1       9.410  14.317  18.369  0.00  0.00    +0.000 HD
ENDBRANCH   1  11
BRANCH   3  17
ATOM     17  C   UNL     1       6.573   6.664  16.834  0.00  0.00    +0.000 A 
ATOM     18  C   UNL     1       7.346   5.640  16.280  0.00  0.00    +0.000 A 
ATOM     19  C   UNL     1       6.773   4.411  15.943  0.00  0.00    +0.000 A 
ATOM     20  C   UNL     1       5.423   4.183  16.186  0.00  0.00    +0.000 A 
ATOM     21  C   UNL     1       4.650   5.172  16.790  0.00  0.00    +0.000 A 
ATOM     22  C   UNL     1       5.219   6.417  17.090  0.00  0.00    +0.000 A 
BRANCH  21  23
ATOM     23  O   UNL     1       3.347   4.826  17.042  0.00  0.00    +0.000 OA
BRANCH  23  24
ATOM     24  C   UNL     1       2.715   5.591  18.066  0.00  0.00    +0.000 C 
BRANCH  24  25
ATOM     25  C   UNL     1       2.255   4.676  19.173  0.00  0.00    +0.000 A 
ATOM     26  C   UNL     1       2.710   4.882  20.486  0.00  0.00    +0.000 A 
ATOM     27  C   UNL     1       2.257   4.069  21.523  0.00  0.00    +0.000 A 
ATOM     28  C   UNL     1       1.356   3.048  21.249  0.00  0.00    +0.000 A 
ATOM     29  F   UNL     1       0.915   2.273  22.246  0.00  0.00    +0.000 F 
ATOM     30  C   UNL     1       0.905   2.819  19.953  0.00  0.00    +0.000 A 
ATOM     31  C   UNL     1       1.356   3.633  18.912  0.00  0.00    +0.000 A 
ENDBRANCH  24  25
ENDBRANCH  23  24
ENDBRANCH  21  23
ENDBRANCH   3  17
TORSDOF 5
ENDMDL
MODEL 3
REMARK VINA RESULT:      -8.9      5.896      8.441
REMARK  Name = 
REMARK  5 active torsions:
REMARK  status: ('A' for Active; 'I' for Inactive)
REMARK    1  A    between atoms: C_7  and  C_8
REMARK    2  A    between atoms: N_10  and  C_11
REMARK    3  A    between atoms: C_15  and  O_16
REMARK    4  A    between atoms: O_16  and  C_17
REMARK    5  A    between atoms: C_17  and  C_18
REMARK                            x       y       z     vdW  Elec       q    Type
REMARK                         _______ _______ _______ _____ _____    ______ ____
ROOT
ATOM      1  C   UNL     1       1.914   7.674  19.650  0.00  0.00    +0.000 C 
ATOM      2  O   UNL     1       2.458   7.557  18.556  0.00  0.00    +0.000 OA
ATOM      3  N   UNL     1       1.723   6.669  20.581  0.00  0.00    +0.000 N 
ATOM      4  H   UNL     1       1.114   6.867  21.364  0.00  0.00    +0.000 HD
ENDROOT
BRANCH   1  11
ATOM      5  O   UNL     1      -1.654  13.779  22.644  0.00  0.00    +0.000 OA
ATOM      6  C   UNL     1      -1.123  12.723  22.313  0.00  0.00    +0.000 C 
ATOM      7  C   UNL     1      -1.121  11.471  23.191  0.00  0.00    +0.000 C 
ATOM      8  O   UNL     1      -0.157  10.461  22.951  0.00  0.00    +0.000 OA
ATOM      9  C   UNL     1       0.241  10.364  21.648  0.00  0.00    +0.000 A 
ATOM     10  C   UNL     1       0.883   9.186  21.287  0.00  0.00    +0.000 A 
ATOM     11  C   UNL     1       1.347   9.004  19.979  0.00  0.00    +0.000 A 
ATOM     12  C   UNL     1       1.187  10.023  19.033  0.00  0.00    +0.000 A 
ATOM     13  C   UNL     1       0.554  11.219  19.402  0.00  0.00    +0.000 A 
ATOM     14  C   UNL     1       0.075  11.380  20.706  0.00  0.00    +0.000 A 
ATOM     15  N   UNL     1      -0.559  12.566  21.074  0.00  0.00    +0.000 N 
ATOM     16  H   UNL     1      -0.623  13.352  20.443  0.00  0.00    +0.000 HD
ENDBRANCH   1  11
BRANCH   3  17
ATOM     17  C   UNL     1       2.141   5.325  20.426  0.00  0.00    +0.000 A 
ATOM     18  C   UNL     1       1.340   4.224  20.738  0.00  0.00    +0.000 A 
ATOM     19  C   UNL     1       1.829   2.922  20.607  0.00  0.00    +0.000 A 
ATOM     20  C   UNL     1       3.119   2.708  20.133  0.00  0.00    +0.000 A 
ATOM     21  C   UNL     1       3.911   3.792  19.763  0.00  0.00    +0.000 A 
ATOM     22  C   UNL     1       3.431   5.098  19.933  0.00  0.00    +0.000 A 
BRANCH  21  23
ATOM     23  O   UNL     1       5.142   3.471  19.251  0.00  0.00    +0.000 OA
BRANCH  23  24
ATOM     24  C   UNL     1       5.361   3.909  17.911  0.00  0.00    +0.000 C 
BRANCH  24  25
ATOM     25  C   UNL     1       6.213   5.152  17.916  0.00  0.00    +0.000 A 
ATOM     26  C   UNL     1       5.908   6.214  17.047  0.00  0.00    +0.000 A 
ATOM     27  C   UNL     1       6.663   7.385  17.074  0.00  0.00    +0.000 A 
ATOM     28  C   UNL     1       7.725   7.494  17.963  0.00  0.00    +0.000 A 
ATOM     29  F   UNL     1       8.444   8.622  17.994  0.00  0.00    +0.000 F 
ATOM     30  C   UNL     1       8.052   6.449  18.820  0.00  0.00    +0.000 A 
ATOM     31  C   UNL     1       7.297   5.275  18.797  0.00  0.00    +0.000 A 
ENDBRANCH  24  25
ENDBRANCH  23  24
ENDBRANCH  21  23
ENDBRANCH   3  17
TORSDOF 5
ENDMDL
MODEL 4
REMARK VINA RESULT:      -8.8      6.866      8.551
REMARK  Name = 
REMARK  5 active torsions:
REMARK  status: ('A' for Active; 'I' for Inactive)
REMARK    1  A    between atoms: C_7  and  C_8
REMARK    2  A    between atoms: N_10  and  C_11
REMARK    3  A    between atoms: C_15  and  O_16
REMARK    4  A    between atoms: O_16  and  C_17
REMARK    5  A    between atoms: C_17  and  C_18
REMARK                            x       y       z     vdW  Elec       q    Type
REMARK                         _______ _______ _______ _____ _____    ______ ____
ROOT
ATOM      1  C   UNL     1       1.950   7.579  19.796  0.00  0.00    +0.000 C 
ATOM      2  O   UNL     1       2.645   7.517  18.787  0.00  0.00    +0.000 OA
ATOM      3  N   UNL     1       1.663   6.537  20.658  0.00  0.00    +0.000 N 
ATOM      4  H   UNL     1       0.945   6.689  21.354  0.00  0.00    +0.000 HD
ENDROOT
BRANCH   1  11
ATOM      5  O   UNL     1      -1.936  13.560  22.643  0.00  0.00    +0.000 OA
ATOM      6  C   UNL     1      -1.341  12.529  22.341  0.00  0.00    +0.000 C 
ATOM      7  C   UNL     1      -1.206  11.331  23.281  0.00  0.00    +0.000 C 
ATOM      8  O   UNL     1      -0.180  10.382  23.046  0.00  0.00    +0.000 OA
ATOM      9  C   UNL     1       0.167  10.244  21.733  0.00  0.00    +0.000 A 
ATOM     10  C   UNL     1       0.880   9.098  21.402  0.00  0.00    +0.000 A 
ATOM     11  C   UNL     1       1.298   8.880  20.084  0.00  0.00    +0.000 A 
ATOM     12  C   UNL     1       1.021   9.832  19.096  0.00  0.00    +0.000 A 
ATOM     13  C   UNL     1       0.316  10.997  19.433  0.00  0.00    +0.000 A 
ATOM     14  C   UNL     1      -0.116  11.193  20.749  0.00  0.00    +0.000 A 
ATOM     15  N   UNL     1      -0.822  12.348  21.086  0.00  0.00    +0.000 N 
ATOM     16  H   UNL     1      -0.972  13.091  20.419  0.00  0.00    +0.000 HD
ENDBRANCH   1  11
BRANCH   3  17
ATOM     17  C   UNL     1       2.143   5.212  20.522  0.00  0.00    +0.000 A 
ATOM     18  C   UNL     1       1.426   4.083  20.926  0.00  0.00    +0.000 A 
ATOM     19  C   UNL     1       1.976   2.804  20.807  0.00  0.00    +0.000 A 
ATOM     20  C   UNL     1       3.241   2.640  20.252  0.00  0.00    +0.000 A 
ATOM     21  C   UNL     1       3.945   3.749  19.790  0.00  0.00    +0.000 A 
ATOM     22  C   UNL     1       3.407   5.033  19.948  0.00  0.00    +0.000 A 
BRANCH  21  23
ATOM     23  O   UNL     1       5.154   3.473  19.205  0.00  0.00    +0.000 OA
BRANCH  23  24
ATOM     24  C   UNL     1       5.866   4.620  18.743  0.00  0.00    +0.000 C 
BRANCH  24  25
ATOM     25  C   UNL     1       6.070   4.523  17.252  0.00  0.00    +0.000 A 
ATOM     26  C   UNL     1       5.012   4.105  16.427  0.00  0.00    +0.000 A 
ATOM     27  C   UNL     1       5.177   4.054  15.044  0.00  0.00    +0.000 A 
ATOM     28  C   UNL     1       6.396   4.415  14.486  0.00  0.00    +0.000 A 
ATOM     29  F   UNL     1       6.551   4.374  13.158  0.00  0.00    +0.000 F 
ATOM     30  C   UNL     1       7.460   4.817  15.287  0.00  0.00    +0.000 A 
ATOM     31  C   UNL     1       7.298   4.871  16.673  0.00  0.00    +0.000 A 
ENDBRANCH  24  25
ENDBRANCH  23  24
ENDBRANCH  21  23
ENDBRANCH   3  17
TORSDOF 5
ENDMDL
MODEL 5
REMARK VINA RESULT:      -8.7      5.841      8.532
REMARK  Name = 
REMARK  5 active torsions:
REMARK  status: ('A' for Active; 'I' for Inactive)
REMARK    1  A    between atoms: C_7  and  C_8
REMARK    2  A    between atoms: N_10  and  C_11
REMARK    3  A    between atoms: C_15  and  O_16
REMARK    4  A    between atoms: O_16  and  C_17
REMARK    5  A    between atoms: C_17  and  C_18
REMARK                            x       y       z     vdW  Elec       q    Type
REMARK                         _______ _______ _______ _____ _____    ______ ____
ROOT
ATOM      1  C   UNL     1       1.479   7.547  20.393  0.00  0.00    +0.000 C 
ATOM      2  O   UNL     1       2.106   7.773  19.363  0.00  0.00    +0.000 OA
ATOM      3  N   UNL     1       1.297   6.312  20.987  0.00  0.00    +0.000 N 
ATOM      4  H   UNL     1       0.621   6.248  21.736  0.00  0.00    +0.000 HD
ENDROOT
BRANCH   1  11
ATOM      5  O   UNL     1      -1.036  14.397  22.789  0.00  0.00    +0.000 OA
ATOM      6  C   UNL     1      -0.542  13.389  22.289  0.00  0.00    +0.000 C 
ATOM      7  C   UNL     1       0.472  13.429  21.146  0.00  0.00    +0.000 C 
ATOM      8  O   UNL     1       0.668  12.269  20.356  0.00  0.00    +0.000 OA
ATOM      9  C   UNL     1       0.455  11.096  21.021  0.00  0.00    +0.000 A 
ATOM     10  C   UNL     1       0.977   9.951  20.430  0.00  0.00    +0.000 A 
ATOM     11  C   UNL     1       0.791   8.698  21.026  0.00  0.00    +0.000 A 
ATOM     12  C   UNL     1       0.054   8.591  22.212  0.00  0.00    +0.000 A 
ATOM     13  C   UNL     1      -0.486   9.745  22.800  0.00  0.00    +0.000 A 
ATOM     14  C   UNL     1      -0.275  10.993  22.206  0.00  0.00    +0.000 A 
ATOM     15  N   UNL     1      -0.807  12.142  22.790  0.00  0.00    +0.000 N 
ATOM     16  H   UNL     1      -1.408  12.095  23.601  0.00  0.00    +0.000 HD
ENDBRANCH   1  11
BRANCH   3  17
ATOM     17  C   UNL     1       1.825   5.090  20.503  0.00  0.00    +0.000 A 
ATOM     18  C   UNL     1       1.054   3.947  20.280  0.00  0.00    +0.000 A 
ATOM     19  C   UNL     1       1.644   2.757  19.846  0.00  0.00    +0.000 A 
ATOM     20  C   UNL     1       3.013   2.709  19.602  0.00  0.00    +0.000 A 
ATOM     21  C   UNL     1       3.787   3.855  19.764  0.00  0.00    +0.000 A 
ATOM     22  C   UNL     1       3.198   5.035  20.237  0.00  0.00    +0.000 A 
BRANCH  21  23
ATOM     23  O   UNL     1       5.112   3.717  19.438  0.00  0.00    +0.000 OA
BRANCH  23  24
ATOM     24  C   UNL     1       5.421   3.994  18.073  0.00  0.00    +0.000 C 
BRANCH  24  25
ATOM     25  C   UNL     1       6.240   5.257  17.984  0.00  0.00    +0.000 A 
ATOM     26  C   UNL     1       5.843   6.289  17.116  0.00  0.00    +0.000 A 
ATOM     27  C   UNL     1       6.568   7.478  17.059  0.00  0.00    +0.000 A 
ATOM     28  C   UNL     1       7.690   7.634  17.862  0.00  0.00    +0.000 A 
ATOM     29  F   UNL     1       8.381   8.779  17.812  0.00  0.00    +0.000 F 
ATOM     30  C   UNL     1       8.107   6.620  18.716  0.00  0.00    +0.000 A 
ATOM     31  C   UNL     1       7.382   5.428  18.778  0.00  0.00    +0.000 A 
ENDBRANCH  24  25
ENDBRANCH  23  24
ENDBRANCH  21  23
ENDBRANCH   3  17
TORSDOF 5
ENDMDL
MODEL 6
REMARK VINA RESULT:      -8.7      6.001      8.531
REMARK  Name = 
REMARK  5 active torsions:
REMARK  status: ('A' for Active; 'I' for Inactive)
REMARK    1  A    between atoms: C_7  and  C_8
REMARK    2  A    between atoms: N_10  and  C_11
REMARK    3  A    between atoms: C_15  and  O_16
REMARK    4  A    between atoms: O_16  and  C_17
REMARK    5  A    between atoms: C_17  and  C_18
REMARK                            x       y       z     vdW  Elec       q    Type
REMARK                         _______ _______ _______ _____ _____    ______ ____
ROOT
ATOM      1  C   UNL     1       1.449   8.009  20.498  0.00  0.00    +0.000 C 
ATOM      2  O   UNL     1       2.068   8.352  19.496  0.00  0.00    +0.000 OA
ATOM      3  N   UNL     1       1.359   6.726  21.006  0.00  0.00    +0.000 N 
ATOM      4  H   UNL     1       0.682   6.559  21.738  0.00  0.00    +0.000 HD
ENDROOT
BRANCH   1  11
ATOM      5  O   UNL     1      -1.573  14.460  23.366  0.00  0.00    +0.000 OA
ATOM      6  C   UNL     1      -0.998  13.532  22.805  0.00  0.00    +0.000 C 
ATOM      7  C   UNL     1       0.068  13.733  21.727  0.00  0.00    +0.000 C 
ATOM      8  O   UNL     1       0.369  12.664  20.847  0.00  0.00    +0.000 OA
ATOM      9  C   UNL     1       0.192  11.423  21.389  0.00  0.00    +0.000 A 
ATOM     10  C   UNL     1       0.807  10.369  20.726  0.00  0.00    +0.000 A 
ATOM     11  C   UNL     1       0.665   9.057  21.195  0.00  0.00    +0.000 A 
ATOM     12  C   UNL     1      -0.123   8.801  22.324  0.00  0.00    +0.000 A 
ATOM     13  C   UNL     1      -0.757   9.864  22.983  0.00  0.00    +0.000 A 
ATOM     14  C   UNL     1      -0.589  11.172  22.518  0.00  0.00    +0.000 A 
ATOM     15  N   UNL     1      -1.215  12.231  23.175  0.00  0.00    +0.000 N 
ATOM     16  H   UNL     1      -1.852  12.076  23.944  0.00  0.00    +0.000 HD
ENDBRANCH   1  11
BRANCH   3  17
ATOM     17  C   UNL     1       1.988   5.585  20.451  0.00  0.00    +0.000 A 
ATOM     18  C   UNL     1       2.207   4.400  21.159  0.00  0.00    +0.000 A 
ATOM     19  C   UNL     1       2.876   3.326  20.568  0.00  0.00    +0.000 A 
ATOM     20  C   UNL     1       3.307   3.415  19.248  0.00  0.00    +0.000 A 
ATOM     21  C   UNL     1       3.045   4.567  18.510  0.00  0.00    +0.000 A 
ATOM     22  C   UNL     1       2.409   5.658  19.119  0.00  0.00    +0.000 A 
BRANCH  21  23
ATOM     23  O   UNL     1       3.456   4.531  17.202  0.00  0.00    +0.000 OA
BRANCH  23  24
ATOM     24  C   UNL     1       4.756   3.978  17.002  0.00  0.00    +0.000 C 
BRANCH  24  25
ATOM     25  C   UNL     1       5.803   4.983  17.409  0.00  0.00    +0.000 A 
ATOM     26  C   UNL     1       5.762   6.287  16.889  0.00  0.00    +0.000 A 
ATOM     27  C   UNL     1       6.700   7.236  17.292  0.00  0.00    +0.000 A 
ATOM     28  C   UNL     1       7.681   6.881  18.209  0.00  0.00    +0.000 A 
ATOM     29  F   UNL     1       8.576   7.795  18.602  0.00  0.00    +0.000 F 
ATOM     30  C   UNL     1       7.748   5.591  18.724  0.00  0.00    +0.000 A 
ATOM     31  C   UNL     1       6.809   4.639  18.323  0.00  0.00    +0.000 A 
ENDBRANCH  24  25
ENDBRANCH  23  24
ENDBRANCH  21  23
ENDBRANCH   3  17
TORSDOF 5
ENDMDL
MODEL 7
REMARK VINA RESULT:      -8.7      5.773      8.332
REMARK  Name = 
REMARK  5 active torsions:
REMARK  status: ('A' for Active; 'I' for Inactive)
REMARK    1  A    between atoms: C_7  and  C_8
REMARK    2  A    between atoms: N_10  and  C_11
REMARK    3  A    between atoms: C_15  and  O_16
REMARK    4  A    between atoms: O_16  and  C_17
REMARK    5  A    between atoms: C_17  and  C_18
REMARK                            x       y       z     vdW  Elec       q    Type
REMARK                         _______ _______ _______ _____ _____    ______ ____
ROOT
ATOM      1  C   UNL     1       1.650   7.517  20.198  0.00  0.00    +0.000 C 
ATOM      2  O   UNL     1       2.226   7.642  19.123  0.00  0.00    +0.000 OA
ATOM      3  N   UNL     1       1.483   6.340  20.906  0.00  0.00    +0.000 N 
ATOM      4  H   UNL     1       0.845   6.353  21.691  0.00  0.00    +0.000 HD
ENDROOT
BRANCH   1  11
ATOM      5  O   UNL     1      -0.804  14.576  21.967  0.00  0.00    +0.000 OA
ATOM      6  C   UNL     1      -0.342  13.519  21.544  0.00  0.00    +0.000 C 
ATOM      7  C   UNL     1       0.481  13.416  20.260  0.00  0.00    +0.000 C 
ATOM      8  O   UNL     1       0.610  12.158  19.622  0.00  0.00    +0.000 OA
ATOM      9  C   UNL     1       0.560  11.090  20.471  0.00  0.00    +0.000 A 
ATOM     10  C   UNL     1       1.041   9.886  19.974  0.00  0.00    +0.000 A 
ATOM     11  C   UNL     1       1.011   8.730  20.763  0.00  0.00    +0.000 A 
ATOM     12  C   UNL     1       0.471   8.780  22.054  0.00  0.00    +0.000 A 
ATOM     13  C   UNL     1      -0.029   9.993  22.551  0.00  0.00    +0.000 A 
ATOM     14  C   UNL     1       0.027  11.145  21.760  0.00  0.00    +0.000 A 
ATOM     15  N   UNL     1      -0.466  12.353  22.252  0.00  0.00    +0.000 N 
ATOM     16  H   UNL     1      -0.932  12.411  23.147  0.00  0.00    +0.000 HD
ENDBRANCH   1  11
BRANCH   3  17
ATOM     17  C   UNL     1       1.969   5.073  20.504  0.00  0.00    +0.000 A 
ATOM     18  C   UNL     1       1.204   3.904  20.538  0.00  0.00    +0.000 A 
ATOM     19  C   UNL     1       1.758   2.674  20.172  0.00  0.00    +0.000 A 
ATOM     20  C   UNL     1       3.078   2.608  19.739  0.00  0.00    +0.000 A 
ATOM     21  C   UNL     1       3.837   3.771  19.644  0.00  0.00    +0.000 A 
ATOM     22  C   UNL     1       3.290   4.997  20.049  0.00  0.00    +0.000 A 
BRANCH  21  23
ATOM     23  O   UNL     1       5.105   3.606  19.148  0.00  0.00    +0.000 OA
BRANCH  23  24
ATOM     24  C   UNL     1       5.307   4.141  17.841  0.00  0.00    +0.000 C 
BRANCH  24  25
ATOM     25  C   UNL     1       6.169   5.374  17.925  0.00  0.00    +0.000 A 
ATOM     26  C   UNL     1       7.271   5.400  18.796  0.00  0.00    +0.000 A 
ATOM     27  C   UNL     1       8.100   6.519  18.850  0.00  0.00    +0.000 A 
ATOM     28  C   UNL     1       7.826   7.613  18.039  0.00  0.00    +0.000 A 
ATOM     29  F   UNL     1       8.627   8.684  18.084  0.00  0.00    +0.000 F 
ATOM     30  C   UNL     1       6.731   7.612  17.180  0.00  0.00    +0.000 A 
ATOM     31  C   UNL     1       5.900   6.492  17.123  0.00  0.00    +0.000 A 
ENDBRANCH  24  25
ENDBRANCH  23  24
ENDBRANCH  21  23
ENDBRANCH   3  17
TORSDOF 5
ENDMDL
MODEL 8
REMARK VINA RESULT:      -8.7      6.931      9.431
REMARK  Name = 
REMARK  5 active torsions:
REMARK  status: ('A' for Active; 'I' for Inactive)
REMARK    1  A    between atoms: C_7  and  C_8
REMARK    2  A    between atoms: N_10  and  C_11
REMARK    3  A    between atoms: C_15  and  O_16
REMARK    4  A    between atoms: O_16  and  C_17
REMARK    5  A    between atoms: C_17  and  C_18
REMARK                            x       y       z     vdW  Elec       q    Type
REMARK                         _______ _______ _______ _____ _____    ______ ____
ROOT
ATOM      1  C   UNL     1       2.052   6.569  20.171  0.00  0.00    +0.000 C 
ATOM      2  O   UNL     1       1.240   5.928  20.830  0.00  0.00    +0.000 OA
ATOM      3  N   UNL     1       2.114   7.947  20.062  0.00  0.00    +0.000 N 
ATOM      4  H   UNL     1       2.726   8.333  19.355  0.00  0.00    +0.000 HD
ENDROOT
BRANCH   1  11
ATOM      5  O   UNL     1       6.752   3.684  14.827  0.00  0.00    +0.000 OA
ATOM      6  C   UNL     1       5.986   4.282  15.578  0.00  0.00    +0.000 C 
ATOM      7  C   UNL     1       5.384   5.649  15.249  0.00  0.00    +0.000 C 
ATOM      8  O   UNL     1       4.874   6.449  16.301  0.00  0.00    +0.000 OA
ATOM      9  C   UNL     1       4.383   5.739  17.359  0.00  0.00    +0.000 A 
ATOM     10  C   UNL     1       3.553   6.431  18.232  0.00  0.00    +0.000 A 
ATOM     11  C   UNL     1       3.019   5.793  19.358  0.00  0.00    +0.000 A 
ATOM     12  C   UNL     1       3.342   4.456  19.622  0.00  0.00    +0.000 A 
ATOM     13  C   UNL     1       4.193   3.763  18.749  0.00  0.00    +0.000 A 
ATOM     14  C   UNL     1       4.702   4.405  17.616  0.00  0.00    +0.000 A 
ATOM     15  N   UNL     1       5.545   3.716  16.745  0.00  0.00    +0.000 N 
ATOM     16  H   UNL     1       5.862   2.777  16.943  0.00  0.00    +0.000 HD
ENDBRANCH   1  11
BRANCH   3  17
ATOM     17  C   UNL     1       1.245   8.855  20.714  0.00  0.00    +0.000 A 
ATOM     18  C   UNL     1       0.945   8.797  22.077  0.00  0.00    +0.000 A 
ATOM     19  C   UNL     1       0.041   9.696  22.651  0.00  0.00    +0.000 A 
ATOM     20  C   UNL     1      -0.549  10.683  21.869  0.00  0.00    +0.000 A 
ATOM     21  C   UNL     1      -0.217  10.791  20.521  0.00  0.00    +0.000 A 
ATOM     22  C   UNL     1       0.659   9.863  19.940  0.00  0.00    +0.000 A 
BRANCH  21  23
ATOM     23  O   UNL     1      -0.806  11.834  19.854  0.00  0.00    +0.000 OA
BRANCH  23  24
ATOM     24  C   UNL     1      -2.233  11.816  19.862  0.00  0.00    +0.000 C 
BRANCH  24  25
ATOM     25  C   UNL     1      -2.742  11.372  18.514  0.00  0.00    +0.000 A 
ATOM     26  C   UNL     1      -4.070  11.643  18.144  0.00  0.00    +0.000 A 
ATOM     27  C   UNL     1      -4.539  11.274  16.884  0.00  0.00    +0.000 A 
ATOM     28  C   UNL     1      -3.684  10.631  15.998  0.00  0.00    +0.000 A 
ATOM     29  F   UNL     1      -4.132  10.285  14.785  0.00  0.00    +0.000 F 
ATOM     30  C   UNL     1      -2.371  10.341  16.351  0.00  0.00    +0.000 A 
ATOM     31  C   UNL     1      -1.898  10.711  17.612  0.00  0.00    +0.000 A 
ENDBRANCH  24  25
ENDBRANCH  23  24
ENDBRANCH  21  23
ENDBRANCH   3  17
TORSDOF 5
ENDMDL
MODEL 9
REMARK VINA RESULT:      -8.7      5.491      8.467
REMARK  Name = 
REMARK  5 active torsions:
REMARK  status: ('A' for Active; 'I' for Inactive)
REMARK    1  A    between atoms: C_7  and  C_8
REMARK    2  A    between atoms: N_10  and  C_11
REMARK    3  A    between atoms: C_15  and  O_16
REMARK    4  A    between atoms: O_16  and  C_17
REMARK    5  A    between atoms: C_17  and  C_18
REMARK                            x       y       z     vdW  Elec       q    Type
REMARK                         _______ _______ _______ _____ _____    ______ ____
ROOT
ATOM      1  C   UNL     1       1.995   8.333  18.607  0.00  0.00    +0.000 C 
ATOM      2  O   UNL     1       2.250   8.500  17.419  0.00  0.00    +0.000 OA
ATOM      3  N   UNL     1       2.150   7.159  19.321  0.00  0.00    +0.000 N 
ATOM      4  H   UNL     1       1.745   7.118  20.247  0.00  0.00    +0.000 HD
ENDROOT
BRANCH   1  11
ATOM      5  O   UNL     1      -1.699  13.117  23.344  0.00  0.00    +0.000 OA
ATOM      6  C   UNL     1      -1.146  12.229  22.701  0.00  0.00    +0.000 C 
ATOM      7  C   UNL     1      -1.117  10.766  23.143  0.00  0.00    +0.000 C 
ATOM      8  O   UNL     1      -0.132   9.901  22.603  0.00  0.00    +0.000 OA
ATOM      9  C   UNL     1       0.267  10.226  21.339  0.00  0.00    +0.000 A 
ATOM     10  C   UNL     1       0.933   9.234  20.630  0.00  0.00    +0.000 A 
ATOM     11  C   UNL     1       1.400   9.481  19.334  0.00  0.00    +0.000 A 
ATOM     12  C   UNL     1       1.219  10.742  18.754  0.00  0.00    +0.000 A 
ATOM     13  C   UNL     1       0.561  11.749  19.476  0.00  0.00    +0.000 A 
ATOM     14  C   UNL     1       0.079  11.483  20.762  0.00  0.00    +0.000 A 
ATOM     15  N   UNL     1      -0.579  12.481  21.480  0.00  0.00    +0.000 N 
ATOM     16  H   UNL     1      -0.660  13.424  21.126  0.00  0.00    +0.000 HD
ENDBRANCH   1  11
BRANCH   3  17
ATOM     17  C   UNL     1       2.647   5.944  18.792  0.00  0.00    +0.000 A 
ATOM     18  C   UNL     1       1.905   5.097  17.965  0.00  0.00    +0.000 A 
ATOM     19  C   UNL     1       2.438   3.887  17.513  0.00  0.00    +0.000 A 
ATOM     20  C   UNL     1       3.735   3.526  17.862  0.00  0.00    +0.000 A 
ATOM     21  C   UNL     1       4.510   4.384  18.639  0.00  0.00    +0.000 A 
ATOM     22  C   UNL     1       3.957   5.578  19.122  0.00  0.00    +0.000 A 
BRANCH  21  23
ATOM     23  O   UNL     1       5.793   3.963  18.875  0.00  0.00    +0.000 OA
BRANCH  23  24
ATOM     24  C   UNL     1       6.713   4.237  17.820  0.00  0.00    +0.000 C 
BRANCH  24  25
ATOM     25  C   UNL     1       7.177   5.669  17.910  0.00  0.00    +0.000 A 
ATOM     26  C   UNL     1       7.998   6.074  18.976  0.00  0.00    +0.000 A 
ATOM     27  C   UNL     1       8.466   7.384  19.045  0.00  0.00    +0.000 A 
ATOM     28  C   UNL     1       8.112   8.291  18.055  0.00  0.00    +0.000 A 
ATOM     29  F   UNL     1       8.569   9.547  18.117  0.00  0.00    +0.000 F 
ATOM     30  C   UNL     1       7.288   7.914  17.000  0.00  0.00    +0.000 A 
ATOM     31  C   UNL     1       6.818   6.601  16.926  0.00  0.00    +0.000 A 
ENDBRANCH  24  25
ENDBRANCH  23  24
ENDBRANCH  21  23
ENDBRANCH   3  17
TORSDOF 5
ENDMDL
