MODEL 1
REMARK VINA RESULT:      -8.0      0.000      0.000
REMARK  Name = 
REMARK  3 active torsions:
REMARK  status: ('A' for Active; 'I' for Inactive)
REMARK    1  A    between atoms: N_4  and  C_5
REMARK    2  A    between atoms: C_5  and  C_6
REMARK    3  A    between atoms: N_18  and  C_19
REMARK                            x       y       z     vdW  Elec       q    Type
REMARK                         _______ _______ _______ _____ _____    ______ ____
ROOT
ATOM      1  C   UNL     1       1.901   9.081  17.814  0.00  0.00    +0.000 A 
ATOM      2  N   UNL     1       2.376   7.891  18.259  0.00  0.00    +0.000 NA
ATOM      3  C   UNL     1       2.184   7.566  19.563  0.00  0.00    +0.000 A 
ATOM      4  N   UNL     1       2.763   6.431  20.122  0.00  0.00    +0.000 N 
ATOM      5  C   UNL     1       1.435   8.465  20.356  0.00  0.00    +0.000 A 
ATOM      6  N   UNL     1       1.037   8.382  21.677  0.00  0.00    +0.000 NA
ATOM      7  C   UNL     1       0.356   9.488  21.883  0.00  0.00    +0.000 A 
ATOM      8  N   UNL     1       0.326  10.296  20.776  0.00  0.00    +0.000 N 
ATOM      9  C   UNL     1       0.994   9.644  19.762  0.00  0.00    +0.000 A 
ATOM     10  N   UNL     1       1.206  10.024  18.488  0.00  0.00    +0.000 NA
ATOM     11  H   UNL     1       2.583   6.357  21.118  0.00  0.00    +0.000 HD
ENDROOT
BRANCH   8  12
ATOM     12  C   UNL     1      -0.300  11.604  20.811  0.00  0.00    +0.000 C 
ATOM     13  C   UNL     1      -1.530  11.950  21.623  0.00  0.00    +0.000 C 
ATOM     14  C   UNL     1      -1.632  11.878  20.138  0.00  0.00    +0.000 C 
ENDBRANCH   8  12
BRANCH   4  15
ATOM     15  C   UNL     1       2.779   5.189  19.370  0.00  0.00    +0.000 C 
BRANCH  15  16
ATOM     16  C   UNL     1       4.061   5.040  18.552  0.00  0.00    +0.000 A 
ATOM     17  C   UNL     1       5.319   5.161  19.190  0.00  0.00    +0.000 A 
ATOM     18  C   UNL     1       6.517   5.057  18.469  0.00  0.00    +0.000 A 
ATOM     19  C   UNL     1       6.443   4.833  17.112  0.00  0.00    +0.000 A 
ATOM     20  C   UNL     1       5.231   4.732  16.460  0.00  0.00    +0.000 A 
ATOM     21  C   UNL     1       4.033   4.853  17.153  0.00  0.00    +0.000 A 
ATOM     22  C   UNL     1       5.457   4.483  15.021  0.00  0.00    +0.000 C 
ATOM     23  C   UNL     1       6.989   4.511  14.971  0.00  0.00    +0.000 C 
ATOM     24  O   UNL     1       7.533   4.699  16.298  0.00  0.00    +0.000 OA
ENDBRANCH  15  16
ENDBRANCH   4  15
TORSDOF 3
ENDMDL
MODEL 2
REMARK VINA RESULT:      -7.6      5.273      7.728
REMARK  Name = 
REMARK  3 active torsions:
REMARK  status: ('A' for Active; 'I' for Inactive)
REMARK    1  A    between atoms: N_4  and  C_5
REMARK    2  A    between atoms: C_5  and  C_6
REMARK    3  A    between atoms: N_18  and  C_19
REMARK                            x       y       z     vdW  Elec       q    Type
REMARK                         _______ _______ _______ _____ _____    ______ ____
ROOT
ATOM      1  C   UNL     1       6.839   4.735  15.854  0.00  0.00    +0.000 A 
ATOM      2  N   UNL     1       7.349   5.898  16.329  0.00  0.00    +0.000 NA
ATOM      3  C   UNL     1       6.556   6.685  17.099  0.00  0.00    +0.000 A 
ATOM      4  N   UNL     1       6.962   7.953  17.503  0.00  0.00    +0.000 N 
ATOM      5  C   UNL     1       5.267   6.200  17.416  0.00  0.00    +0.000 A 
ATOM      6  N   UNL     1       4.273   6.740  18.210  0.00  0.00    +0.000 NA
ATOM      7  C   UNL     1       3.298   5.859  18.159  0.00  0.00    +0.000 A 
ATOM      8  N   UNL     1       3.598   4.797  17.345  0.00  0.00    +0.000 N 
ATOM      9  C   UNL     1       4.879   4.978  16.873  0.00  0.00    +0.000 A 
ATOM     10  N   UNL     1       5.618   4.193  16.066  0.00  0.00    +0.000 NA
ATOM     11  H   UNL     1       6.238   8.444  18.018  0.00  0.00    +0.000 HD
ENDROOT
BRANCH   8  12
ATOM     12  C   UNL     1       2.629   3.751  17.080  0.00  0.00    +0.000 C 
ATOM     13  C   UNL     1       1.545   3.314  18.042  0.00  0.00    +0.000 C 
ATOM     14  C   UNL     1       2.691   2.402  17.772  0.00  0.00    +0.000 C 
ENDBRANCH   8  12
BRANCH   4  15
ATOM     15  C   UNL     1       8.329   8.162  17.944  0.00  0.00    +0.000 C 
BRANCH  15  16
ATOM     16  C   UNL     1       8.594   9.626  18.295  0.00  0.00    +0.000 A 
ATOM     17  C   UNL     1       8.097  10.650  17.452  0.00  0.00    +0.000 A 
ATOM     18  C   UNL     1       8.341  12.003  17.726  0.00  0.00    +0.000 A 
ATOM     19  C   UNL     1       9.084  12.318  18.842  0.00  0.00    +0.000 A 
ATOM     20  C   UNL     1       9.599  11.341  19.669  0.00  0.00    +0.000 A 
ATOM     21  C   UNL     1       9.385   9.993  19.404  0.00  0.00    +0.000 A 
ATOM     22  C   UNL     1      10.338  11.968  20.784  0.00  0.00    +0.000 C 
ATOM     23  C   UNL     1      10.192  13.449  20.417  0.00  0.00    +0.000 C 
ATOM     24  O   UNL     1       9.382  13.595  19.228  0.00  0.00    +0.000 OA
ENDBRANCH  15  16
ENDBRANCH   4  15
TORSDOF 3
ENDMDL
MODEL 3
REMARK VINA RESULT:      -7.6      3.097      8.379
REMARK  Name = 
REMARK  3 active torsions:
REMARK  status: ('A' for Active; 'I' for Inactive)
REMARK    1  A    between atoms: N_4  and  C_5
REMARK    2  A    between atoms: C_5  and  C_6
REMARK    3  A    between atoms: N_18  and  C_19
REMARK                            x       y       z     vdW  Elec       q    Type
REMARK                         _______ _______ _______ _____ _____    ______ ____
ROOT
ATOM      1  C   UNL     1       3.681   3.369  19.372  0.00  0.00    +0.000 A 
ATOM      2  N   UNL     1       3.080   4.431  19.965  0.00  0.00    +0.000 NA
ATOM      3  C   UNL     1       3.286   5.665  19.440  0.00  0.00    +0.000 A 
ATOM      4  N   UNL     1       2.820   6.813  20.074  0.00  0.00    +0.000 N 
ATOM      5  C   UNL     1       4.059   5.751  18.260  0.00  0.00    +0.000 A 
ATOM      6  N   UNL     1       4.389   6.842  17.478  0.00  0.00    +0.000 NA
ATOM      7  C   UNL     1       5.112   6.339  16.501  0.00  0.00    +0.000 A 
ATOM      8  N   UNL     1       5.297   4.987  16.634  0.00  0.00    +0.000 N 
ATOM      9  C   UNL     1       4.602   4.575  17.750  0.00  0.00    +0.000 A 
ATOM     10  N   UNL     1       4.461   3.340  18.269  0.00  0.00    +0.000 NA
ATOM     11  H   UNL     1       3.106   7.661  19.596  0.00  0.00    +0.000 HD
ENDROOT
BRANCH   8  12
ATOM     12  C   UNL     1       6.135   4.245  15.712  0.00  0.00    +0.000 C 
ATOM     13  C   UNL     1       6.889   4.854  14.549  0.00  0.00    +0.000 C 
ATOM     14  C   UNL     1       5.716   3.978  14.278  0.00  0.00    +0.000 C 
ENDBRANCH   8  12
BRANCH   4  15
ATOM     15  C   UNL     1       1.495   6.816  20.668  0.00  0.00    +0.000 C 
BRANCH  15  16
ATOM     16  C   UNL     1       0.950   8.234  20.829  0.00  0.00    +0.000 A 
ATOM     17  C   UNL     1       1.213   9.205  19.832  0.00  0.00    +0.000 A 
ATOM     18  C   UNL     1       0.753  10.523  19.956  0.00  0.00    +0.000 A 
ATOM     19  C   UNL     1       0.036  10.859  21.083  0.00  0.00    +0.000 A 
ATOM     20  C   UNL     1      -0.217   9.940  22.081  0.00  0.00    +0.000 A 
ATOM     21  C   UNL     1       0.248   8.634  21.987  0.00  0.00    +0.000 A 
ATOM     22  C   UNL     1      -1.011  10.574  23.154  0.00  0.00    +0.000 C 
ATOM     23  C   UNL     1      -1.118  12.004  22.614  0.00  0.00    +0.000 C 
ATOM     24  O   UNL     1      -0.479  12.103  21.320  0.00  0.00    +0.000 OA
ENDBRANCH  15  16
ENDBRANCH   4  15
TORSDOF 3
ENDMDL
MODEL 4
REMARK VINA RESULT:      -7.5      2.932      7.947
REMARK  Name = 
REMARK  3 active torsions:
REMARK  status: ('A' for Active; 'I' for Inactive)
REMARK    1  A    between atoms: N_4  and  C_5
REMARK    2  A    between atoms: C_5  and  C_6
REMARK    3  A    between atoms: N_18  and  C_19
REMARK                            x       y       z     vdW  Elec       q    Type
REMARK                         _______ _______ _______ _____ _____    ______ ____
ROOT
ATOM      1  C   UNL     1       2.984   3.059  17.873  0.00  0.00    +0.000 A 
ATOM      2  N   UNL     1       2.719   3.975  18.838  0.00  0.00    +0.000 NA
ATOM      3  C   UNL     1       3.507   5.077  18.916  0.00  0.00    +0.000 A 
ATOM      4  N   UNL     1       3.385   5.986  19.963  0.00  0.00    +0.000 N 
ATOM      5  C   UNL     1       4.513   5.230  17.935  0.00  0.00    +0.000 A 
ATOM      6  N   UNL     1       5.418   6.254  17.727  0.00  0.00    +0.000 NA
ATOM      7  C   UNL     1       6.101   5.877  16.668  0.00  0.00    +0.000 A 
ATOM      8  N   UNL     1       5.709   4.647  16.207  0.00  0.00    +0.000 N 
ATOM      9  C   UNL     1       4.662   4.217  16.992  0.00  0.00    +0.000 A 
ATOM     10  N   UNL     1       3.932   3.088  16.911  0.00  0.00    +0.000 NA
ATOM     11  H   UNL     1       4.084   6.721  19.919  0.00  0.00    +0.000 HD
ENDROOT
BRANCH   8  12
ATOM     12  C   UNL     1       6.389   4.004  15.098  0.00  0.00    +0.000 C 
ATOM     13  C   UNL     1       7.001   4.733  13.921  0.00  0.00    +0.000 C 
ATOM     14  C   UNL     1       5.772   3.918  13.715  0.00  0.00    +0.000 C 
ENDBRANCH   8  12
BRANCH   4  15
ATOM     15  C   UNL     1       2.064   6.371  20.427  0.00  0.00    +0.000 C 
BRANCH  15  16
ATOM     16  C   UNL     1       1.684   7.773  19.955  0.00  0.00    +0.000 A 
ATOM     17  C   UNL     1       2.048   8.198  18.653  0.00  0.00    +0.000 A 
ATOM     18  C   UNL     1       1.741   9.485  18.193  0.00  0.00    +0.000 A 
ATOM     19  C   UNL     1       1.073  10.339  19.043  0.00  0.00    +0.000 A 
ATOM     20  C   UNL     1       0.725   9.960  20.323  0.00  0.00    +0.000 A 
ATOM     21  C   UNL     1       1.039   8.696  20.806  0.00  0.00    +0.000 A 
ATOM     22  C   UNL     1       0.014  11.067  20.996  0.00  0.00    +0.000 C 
ATOM     23  C   UNL     1       0.066  12.138  19.901  0.00  0.00    +0.000 C 
ATOM     24  O   UNL     1       0.703  11.613  18.713  0.00  0.00    +0.000 OA
ENDBRANCH  15  16
ENDBRANCH   4  15
TORSDOF 3
ENDMDL
MODEL 5
REMARK VINA RESULT:      -7.4      5.111      7.509
REMARK  Name = 
REMARK  3 active torsions:
REMARK  status: ('A' for Active; 'I' for Inactive)
REMARK    1  A    between atoms: N_4  and  C_5
REMARK    2  A    between atoms: C_5  and  C_6
REMARK    3  A    between atoms: N_18  and  C_19
REMARK                            x       y       z     vdW  Elec       q    Type
REMARK                         _______ _______ _______ _____ _____    ______ ____
ROOT
ATOM      1  C   UNL     1       6.935   4.429  16.403  0.00  0.00    +0.000 A 
ATOM      2  N   UNL     1       7.459   5.636  16.733  0.00  0.00    +0.000 NA
ATOM      3  C   UNL     1       6.629   6.585  17.234  0.00  0.00    +0.000 A 
ATOM      4  N   UNL     1       7.066   7.887  17.462  0.00  0.00    +0.000 N 
ATOM      5  C   UNL     1       5.279   6.225  17.447  0.00  0.00    +0.000 A 
ATOM      6  N   UNL     1       4.230   6.946  17.985  0.00  0.00    +0.000 NA
ATOM      7  C   UNL     1       3.211   6.114  17.953  0.00  0.00    +0.000 A 
ATOM      8  N   UNL     1       3.540   4.909  17.389  0.00  0.00    +0.000 N 
ATOM      9  C   UNL     1       4.882   4.943  17.077  0.00  0.00    +0.000 A 
ATOM     10  N   UNL     1       5.663   3.991  16.533  0.00  0.00    +0.000 NA
ATOM     11  H   UNL     1       6.317   8.496  17.776  0.00  0.00    +0.000 HD
ENDROOT
BRANCH   8  12
ATOM     12  C   UNL     1       2.544   3.876  17.179  0.00  0.00    +0.000 C 
ATOM     13  C   UNL     1       1.445   3.524  18.159  0.00  0.00    +0.000 C 
ATOM     14  C   UNL     1       2.566   2.567  17.946  0.00  0.00    +0.000 C 
ENDBRANCH   8  12
BRANCH   4  15
ATOM     15  C   UNL     1       8.375   8.112  18.047  0.00  0.00    +0.000 C 
BRANCH  15  16
ATOM     16  C   UNL     1       8.620   9.592  18.335  0.00  0.00    +0.000 A 
ATOM     17  C   UNL     1       9.402   9.969  19.454  0.00  0.00    +0.000 A 
ATOM     18  C   UNL     1       9.627  11.317  19.767  0.00  0.00    +0.000 A 
ATOM     19  C   UNL     1       9.063  12.277  18.956  0.00  0.00    +0.000 A 
ATOM     20  C   UNL     1       8.279  11.939  17.872  0.00  0.00    +0.000 A 
ATOM     21  C   UNL     1       8.027  10.610  17.557  0.00  0.00    +0.000 A 
ATOM     22  C   UNL     1       7.822  13.165  17.185  0.00  0.00    +0.000 C 
ATOM     23  C   UNL     1       8.438  14.238  18.090  0.00  0.00    +0.000 C 
ATOM     24  O   UNL     1       9.216  13.623  19.142  0.00  0.00    +0.000 OA
ENDBRANCH  15  16
ENDBRANCH   4  15
TORSDOF 3
ENDMDL
MODEL 6
REMARK VINA RESULT:      -7.4      0.980      1.578
REMARK  Name = 
REMARK  3 active torsions:
REMARK  status: ('A' for Active; 'I' for Inactive)
REMARK    1  A    between atoms: N_4  and  C_5
REMARK    2  A    between atoms: C_5  and  C_6
REMARK    3  A    between atoms: N_18  and  C_19
REMARK                            x       y       z     vdW  Elec       q    Type
REMARK                         _______ _______ _______ _____ _____    ______ ____
ROOT
ATOM      1  C   UNL     1       1.618   9.262  18.094  0.00  0.00    +0.000 A 
ATOM      2  N   UNL     1       1.969   8.042  18.572  0.00  0.00    +0.000 NA
ATOM      3  C   UNL     1       1.801   7.793  19.895  0.00  0.00    +0.000 A 
ATOM      4  N   UNL     1       2.268   6.621  20.481  0.00  0.00    +0.000 N 
ATOM      5  C   UNL     1       1.200   8.806  20.678  0.00  0.00    +0.000 A 
ATOM      6  N   UNL     1       0.855   8.822  22.017  0.00  0.00    +0.000 NA
ATOM      7  C   UNL     1       0.319  10.009  22.201  0.00  0.00    +0.000 A 
ATOM      8  N   UNL     1       0.333  10.770  21.062  0.00  0.00    +0.000 N 
ATOM      9  C   UNL     1       0.873  10.005  20.051  0.00  0.00    +0.000 A 
ATOM     10  N   UNL     1       1.069  10.307  18.753  0.00  0.00    +0.000 NA
ATOM     11  H   UNL     1       2.126   6.607  21.485  0.00  0.00    +0.000 HD
ENDROOT
BRANCH   8  12
ATOM     12  C   UNL     1      -0.133  12.144  21.064  0.00  0.00    +0.000 C 
ATOM     13  C   UNL     1      -1.306  12.656  21.874  0.00  0.00    +0.000 C 
ATOM     14  C   UNL     1      -1.431  12.555  20.394  0.00  0.00    +0.000 C 
ENDBRANCH   8  12
BRANCH   4  15
ATOM     15  C   UNL     1       2.104   5.357  19.784  0.00  0.00    +0.000 C 
BRANCH  15  16
ATOM     16  C   UNL     1       3.310   5.036  18.903  0.00  0.00    +0.000 A 
ATOM     17  C   UNL     1       3.124   4.336  17.686  0.00  0.00    +0.000 A 
ATOM     18  C   UNL     1       4.207   4.000  16.863  0.00  0.00    +0.000 A 
ATOM     19  C   UNL     1       5.472   4.365  17.270  0.00  0.00    +0.000 A 
ATOM     20  C   UNL     1       5.686   5.028  18.461  0.00  0.00    +0.000 A 
ATOM     21  C   UNL     1       4.627   5.353  19.300  0.00  0.00    +0.000 A 
ATOM     22  C   UNL     1       7.129   5.299  18.630  0.00  0.00    +0.000 C 
ATOM     23  C   UNL     1       7.686   4.637  17.365  0.00  0.00    +0.000 C 
ATOM     24  O   UNL     1       6.609   4.110  16.556  0.00  0.00    +0.000 OA
ENDBRANCH  15  16
ENDBRANCH   4  15
TORSDOF 3
ENDMDL
MODEL 7
REMARK VINA RESULT:      -7.4      1.226      2.171
REMARK  Name = 
REMARK  3 active torsions:
REMARK  status: ('A' for Active; 'I' for Inactive)
REMARK    1  A    between atoms: N_4  and  C_5
REMARK    2  A    between atoms: C_5  and  C_6
REMARK    3  A    between atoms: N_18  and  C_19
REMARK                            x       y       z     vdW  Elec       q    Type
REMARK                         _______ _______ _______ _____ _____    ______ ____
ROOT
ATOM      1  C   UNL     1       1.043   8.465  21.545  0.00  0.00    +0.000 A 
ATOM      2  N   UNL     1       1.670   7.439  20.916  0.00  0.00    +0.000 NA
ATOM      3  C   UNL     1       2.008   7.591  19.611  0.00  0.00    +0.000 A 
ATOM      4  N   UNL     1       2.523   6.536  18.865  0.00  0.00    +0.000 N 
ATOM      5  C   UNL     1       1.745   8.844  19.011  0.00  0.00    +0.000 A 
ATOM      6  N   UNL     1       2.021   9.307  17.738  0.00  0.00    +0.000 NA
ATOM      7  C   UNL     1       1.570  10.543  17.735  0.00  0.00    +0.000 A 
ATOM      8  N   UNL     1       0.986  10.887  18.926  0.00  0.00    +0.000 N 
ATOM      9  C   UNL     1       1.110   9.814  19.781  0.00  0.00    +0.000 A 
ATOM     10  N   UNL     1       0.717   9.684  21.063  0.00  0.00    +0.000 NA
ATOM     11  H   UNL     1       2.666   6.784  17.891  0.00  0.00    +0.000 HD
ENDROOT
BRANCH   8  12
ATOM     12  C   UNL     1       0.348  12.177  19.110  0.00  0.00    +0.000 C 
ATOM     13  C   UNL     1       0.831  13.474  18.497  0.00  0.00    +0.000 C 
ATOM     14  C   UNL     1       0.966  13.266  19.966  0.00  0.00    +0.000 C 
ENDBRANCH   8  12
BRANCH   4  15
ATOM     15  C   UNL     1       3.507   5.650  19.461  0.00  0.00    +0.000 C 
BRANCH  15  16
ATOM     16  C   UNL     1       4.660   5.357  18.502  0.00  0.00    +0.000 A 
ATOM     17  C   UNL     1       5.980   5.250  19.003  0.00  0.00    +0.000 A 
ATOM     18  C   UNL     1       7.067   5.009  18.152  0.00  0.00    +0.000 A 
ATOM     19  C   UNL     1       6.822   4.879  16.803  0.00  0.00    +0.000 A 
ATOM     20  C   UNL     1       5.549   4.999  16.284  0.00  0.00    +0.000 A 
ATOM     21  C   UNL     1       4.461   5.259  17.108  0.00  0.00    +0.000 A 
ATOM     22  C   UNL     1       5.587   4.804  14.819  0.00  0.00    +0.000 C 
ATOM     23  C   UNL     1       7.091   4.604  14.604  0.00  0.00    +0.000 C 
ATOM     24  O   UNL     1       7.789   4.630  15.870  0.00  0.00    +0.000 OA
ENDBRANCH  15  16
ENDBRANCH   4  15
TORSDOF 3
ENDMDL
MODEL 8
REMARK VINA RESULT:      -7.2      3.102      8.108
REMARK  Name = 
REMARK  3 active torsions:
REMARK  status: ('A' for Active; 'I' for Inactive)
REMARK    1  A    between atoms: N_4  and  C_5
REMARK    2  A    between atoms: C_5  and  C_6
REMARK    3  A    between atoms: N_18  and  C_19
REMARK                            x       y       z     vdW  Elec       q    Type
REMARK                         _______ _______ _______ _____ _____    ______ ____
ROOT
ATOM      1  C   UNL     1       3.560   3.373  19.276  0.00  0.00    +0.000 A 
ATOM      2  N   UNL     1       3.016   4.449  19.897  0.00  0.00    +0.000 NA
ATOM      3  C   UNL     1       3.276   5.684  19.397  0.00  0.00    +0.000 A 
ATOM      4  N   UNL     1       2.871   6.838  20.060  0.00  0.00    +0.000 N 
ATOM      5  C   UNL     1       4.044   5.759  18.212  0.00  0.00    +0.000 A 
ATOM      6  N   UNL     1       4.420   6.850  17.452  0.00  0.00    +0.000 NA
ATOM      7  C   UNL     1       5.111   6.334  16.458  0.00  0.00    +0.000 A 
ATOM      8  N   UNL     1       5.231   4.973  16.560  0.00  0.00    +0.000 N 
ATOM      9  C   UNL     1       4.525   4.570  17.672  0.00  0.00    +0.000 A 
ATOM     10  N   UNL     1       4.329   3.332  18.166  0.00  0.00    +0.000 NA
ATOM     11  H   UNL     1       3.194   7.682  19.599  0.00  0.00    +0.000 HD
ENDROOT
BRANCH   8  12
ATOM     12  C   UNL     1       6.026   4.212  15.615  0.00  0.00    +0.000 C 
ATOM     13  C   UNL     1       6.874   4.817  14.516  0.00  0.00    +0.000 C 
ATOM     14  C   UNL     1       5.632   4.078  14.155  0.00  0.00    +0.000 C 
ENDBRANCH   8  12
BRANCH   4  15
ATOM     15  C   UNL     1       1.552   6.891  20.665  0.00  0.00    +0.000 C 
BRANCH  15  16
ATOM     16  C   UNL     1       1.073   8.330  20.852  0.00  0.00    +0.000 A 
ATOM     17  C   UNL     1       0.524   8.731  22.095  0.00  0.00    +0.000 A 
ATOM     18  C   UNL     1       0.049  10.034  22.297  0.00  0.00    +0.000 A 
ATOM     19  C   UNL     1       0.126  10.925  21.249  0.00  0.00    +0.000 A 
ATOM     20  C   UNL     1       0.635  10.557  20.021  0.00  0.00    +0.000 A 
ATOM     21  C   UNL     1       1.093   9.264  19.794  0.00  0.00    +0.000 A 
ATOM     22  C   UNL     1       0.604  11.712  19.100  0.00  0.00    +0.000 C 
ATOM     23  C   UNL     1      -0.050  12.767  19.998  0.00  0.00    +0.000 C 
ATOM     24  O   UNL     1      -0.289  12.226  21.319  0.00  0.00    +0.000 OA
ENDBRANCH  15  16
ENDBRANCH   4  15
TORSDOF 3
ENDMDL
MODEL 9
REMARK VINA RESULT:      -7.2      3.081      7.702
REMARK  Name = 
REMARK  3 active torsions:
REMARK  status: ('A' for Active; 'I' for Inactive)
REMARK    1  A    between atoms: N_4  and  C_5
REMARK    2  A    between atoms: C_5  and  C_6
REMARK    3  A    between atoms: N_18  and  C_19
REMARK                            x       y       z     vdW  Elec       q    Type
REMARK                         _______ _______ _______ _____ _____    ______ ____
ROOT
ATOM      1  C   UNL     1       2.342   3.006  18.205  0.00  0.00    +0.000 A 
ATOM      2  N   UNL     1       2.090   3.908  19.186  0.00  0.00    +0.000 NA
ATOM      3  C   UNL     1       2.930   4.965  19.324  0.00  0.00    +0.000 A 
ATOM      4  N   UNL     1       2.817   5.850  20.392  0.00  0.00    +0.000 N 
ATOM      5  C   UNL     1       3.976   5.093  18.382  0.00  0.00    +0.000 A 
ATOM      6  N   UNL     1       4.939   6.074  18.235  0.00  0.00    +0.000 NA
ATOM      7  C   UNL     1       5.640   5.691  17.190  0.00  0.00    +0.000 A 
ATOM      8  N   UNL     1       5.202   4.497  16.679  0.00  0.00    +0.000 N 
ATOM      9  C   UNL     1       4.107   4.100  17.415  0.00  0.00    +0.000 A 
ATOM     10  N   UNL     1       3.325   3.013  17.277  0.00  0.00    +0.000 NA
ATOM     11  H   UNL     1       3.553   6.548  20.394  0.00  0.00    +0.000 HD
ENDROOT
BRANCH   8  12
ATOM     12  C   UNL     1       5.888   3.850  15.577  0.00  0.00    +0.000 C 
ATOM     13  C   UNL     1       6.918   4.518  14.690  0.00  0.00    +0.000 C 
ATOM     14  C   UNL     1       5.579   4.185  14.129  0.00  0.00    +0.000 C 
ENDBRANCH   8  12
BRANCH   4  15
ATOM     15  C   UNL     1       1.502   6.289  20.822  0.00  0.00    +0.000 C 
BRANCH  15  16
ATOM     16  C   UNL     1       1.333   7.801  20.673  0.00  0.00    +0.000 A 
ATOM     17  C   UNL     1       0.861   8.566  21.768  0.00  0.00    +0.000 A 
ATOM     18  C   UNL     1       0.668   9.950  21.663  0.00  0.00    +0.000 A 
ATOM     19  C   UNL     1       0.948  10.556  20.458  0.00  0.00    +0.000 A 
ATOM     20  C   UNL     1       1.388   9.834  19.368  0.00  0.00    +0.000 A 
ATOM     21  C   UNL     1       1.566   8.458  19.446  0.00  0.00    +0.000 A 
ATOM     22  C   UNL     1       1.615  10.742  18.225  0.00  0.00    +0.000 C 
ATOM     23  C   UNL     1       1.184  12.078  18.841  0.00  0.00    +0.000 C 
ATOM     24  O   UNL     1       0.815  11.897  20.228  0.00  0.00    +0.000 OA
ENDBRANCH  15  16
ENDBRANCH   4  15
TORSDOF 3
ENDMDL
