MODEL 1
REMARK VINA RESULT:      -8.8      0.000      0.000
REMARK  Name = 
REMARK  6 active torsions:
REMARK  status: ('A' for Active; 'I' for Inactive)
REMARK    1  A    between atoms: C_1  and  O_2
REMARK    2  A    between atoms: O_2  and  C_3
REMARK    3  A    between atoms: C_6  and  N_7
REMARK    4  A    between atoms: C_8  and  C_10
REMARK    5  A    between atoms: C_21  and  S_22
REMARK    6  A    between atoms: S_22  and  N_25
REMARK                            x       y       z     vdW  Elec       q    Type
REMARK                         _______ _______ _______ _____ _____    ______ ____
ROOT
ATOM      1  C   UNL     1       3.455   3.405  19.729  0.00  0.00    +0.000 A 
ATOM      2  C   UNL     1       2.205   3.287  20.366  0.00  0.00    +0.000 A 
ATOM      3  C   UNL     1       1.470   4.394  20.794  0.00  0.00    +0.000 A 
ATOM      4  C   UNL     1       1.953   5.677  20.613  0.00  0.00    +0.000 A 
ATOM      5  C   UNL     1       3.180   5.815  19.967  0.00  0.00    +0.000 A 
ATOM      6  C   UNL     1       3.942   4.693  19.518  0.00  0.00    +0.000 A 
ENDROOT
BRANCH   4   7
ATOM      7  N   UNL     1       1.253   6.838  21.021  0.00  0.00    +0.000 N 
ATOM      8  C   UNL     1       1.321   8.067  20.388  0.00  0.00    +0.000 C 
ATOM      9  O   UNL     1       1.902   8.314  19.336  0.00  0.00    +0.000 OA
ATOM     10  H   UNL     1       0.716   6.764  21.876  0.00  0.00    +0.000 HD
BRANCH   8  11
ATOM     11  C   UNL     1       0.679   9.213  21.071  0.00  0.00    +0.000 A 
ATOM     12  C   UNL     1      -0.011   8.939  22.257  0.00  0.00    +0.000 A 
ATOM     13  C   UNL     1      -0.620   9.971  22.964  0.00  0.00    +0.000 A 
ATOM     14  C   UNL     1      -0.537  11.280  22.521  0.00  0.00    +0.000 A 
ATOM     15  N   UNL     1      -1.142  12.245  23.233  0.00  0.00    +0.000 NA
ATOM     16  C   UNL     1      -1.005  13.504  22.771  0.00  0.00    +0.000 A 
ATOM     17  C   UNL     1      -0.276  13.793  21.635  0.00  0.00    +0.000 A 
ATOM     18  N   UNL     1       0.326  12.835  20.896  0.00  0.00    +0.000 NA
ATOM     19  C   UNL     1       0.198  11.568  21.335  0.00  0.00    +0.000 A 
ATOM     20  C   UNL     1       0.787  10.531  20.623  0.00  0.00    +0.000 A 
ENDBRANCH   8  11
ENDBRANCH   4   7
BRANCH   6  21
ATOM     21  S   UNL     1       5.450   5.225  18.741  0.00  0.00    +0.000 S 
ATOM     22  O   UNL     1       5.090   6.461  18.066  0.00  0.00    +0.000 OA
ATOM     23  O   UNL     1       6.409   5.286  19.828  0.00  0.00    +0.000 OA
BRANCH  21  24
ATOM     24  N   UNL     1       6.127   4.236  17.525  0.00  0.00    +0.000 NA
ATOM     25  C   UNL     1       7.455   4.577  16.932  0.00  0.00    +0.000 C 
ATOM     26  C   UNL     1       7.395   5.828  16.055  0.00  0.00    +0.000 C 
ATOM     27  O   UNL     1       6.455   5.674  14.981  0.00  0.00    +0.000 OA
ATOM     28  C   UNL     1       5.144   5.338  15.459  0.00  0.00    +0.000 C 
ATOM     29  C   UNL     1       5.166   4.076  16.345  0.00  0.00    +0.000 C 
ENDBRANCH  21  24
ENDBRANCH   6  21
BRANCH   1  31
ATOM     30  C   UNL     1       3.509   1.405  18.434  0.00  0.00    +0.000 C 
ATOM     31  O   UNL     1       4.156   2.298  19.351  0.00  0.00    +0.000 OA
ENDBRANCH   1  31
TORSDOF 5
ENDMDL
MODEL 2
REMARK VINA RESULT:      -8.7      1.078      1.320
REMARK  Name = 
REMARK  6 active torsions:
REMARK  status: ('A' for Active; 'I' for Inactive)
REMARK    1  A    between atoms: C_1  and  O_2
REMARK    2  A    between atoms: O_2  and  C_3
REMARK    3  A    between atoms: C_6  and  N_7
REMARK    4  A    between atoms: C_8  and  C_10
REMARK    5  A    between atoms: C_21  and  S_22
REMARK    6  A    between atoms: S_22  and  N_25
REMARK                            x       y       z     vdW  Elec       q    Type
REMARK                         _______ _______ _______ _____ _____    ______ ____
ROOT
ATOM      1  C   UNL     1       3.530   3.065  19.887  0.00  0.00    +0.000 A 
ATOM      2  C   UNL     1       2.647   3.056  20.984  0.00  0.00    +0.000 A 
ATOM      3  C   UNL     1       1.929   4.186  21.381  0.00  0.00    +0.000 A 
ATOM      4  C   UNL     1       2.064   5.384  20.705  0.00  0.00    +0.000 A 
ATOM      5  C   UNL     1       2.918   5.408  19.605  0.00  0.00    +0.000 A 
ATOM      6  C   UNL     1       3.657   4.260  19.182  0.00  0.00    +0.000 A 
ENDROOT
BRANCH   4   7
ATOM      7  N   UNL     1       1.359   6.560  21.057  0.00  0.00    +0.000 N 
ATOM      8  C   UNL     1       1.517   7.792  20.446  0.00  0.00    +0.000 C 
ATOM      9  O   UNL     1       2.202   8.031  19.455  0.00  0.00    +0.000 OA
ATOM     10  H   UNL     1       0.741   6.495  21.857  0.00  0.00    +0.000 HD
BRANCH   8  11
ATOM     11  C   UNL     1       0.844   8.950  21.077  0.00  0.00    +0.000 A 
ATOM     12  C   UNL     1       0.238   8.730  22.319  0.00  0.00    +0.000 A 
ATOM     13  C   UNL     1      -0.394   9.779  22.981  0.00  0.00    +0.000 A 
ATOM     14  C   UNL     1      -0.416  11.052  22.437  0.00  0.00    +0.000 A 
ATOM     15  N   UNL     1      -1.040  12.033  23.108  0.00  0.00    +0.000 NA
ATOM     16  C   UNL     1      -1.004  13.258  22.546  0.00  0.00    +0.000 A 
ATOM     17  C   UNL     1      -0.358  13.498  21.350  0.00  0.00    +0.000 A 
ATOM     18  N   UNL     1       0.262  12.520  20.651  0.00  0.00    +0.000 NA
ATOM     19  C   UNL     1       0.235  11.287  21.191  0.00  0.00    +0.000 A 
ATOM     20  C   UNL     1       0.847  10.232  20.525  0.00  0.00    +0.000 A 
ENDBRANCH   8  11
ENDBRANCH   4   7
BRANCH   6  21
ATOM     21  S   UNL     1       4.647   4.638  17.754  0.00  0.00    +0.000 S 
ATOM     22  O   UNL     1       4.314   3.594  16.800  0.00  0.00    +0.000 OA
ATOM     23  O   UNL     1       4.296   6.008  17.429  0.00  0.00    +0.000 OA
BRANCH  21  24
ATOM     24  N   UNL     1       6.346   4.574  17.907  0.00  0.00    +0.000 NA
ATOM     25  C   UNL     1       7.097   5.745  18.449  0.00  0.00    +0.000 C 
ATOM     26  C   UNL     1       7.105   6.929  17.479  0.00  0.00    +0.000 C 
ATOM     27  O   UNL     1       7.689   6.572  16.219  0.00  0.00    +0.000 OA
ATOM     28  C   UNL     1       7.031   5.444  15.621  0.00  0.00    +0.000 C 
ATOM     29  C   UNL     1       7.009   4.230  16.571  0.00  0.00    +0.000 C 
ENDBRANCH  21  24
ENDBRANCH   6  21
BRANCH   1  31
ATOM     30  C   UNL     1       5.036   1.351  20.576  0.00  0.00    +0.000 C 
ATOM     31  O   UNL     1       4.236   1.949  19.547  0.00  0.00    +0.000 OA
ENDBRANCH   1  31
TORSDOF 5
ENDMDL
MODEL 3
REMARK VINA RESULT:      -8.4      4.017      9.341
REMARK  Name = 
REMARK  6 active torsions:
REMARK  status: ('A' for Active; 'I' for Inactive)
REMARK    1  A    between atoms: C_1  and  O_2
REMARK    2  A    between atoms: O_2  and  C_3
REMARK    3  A    between atoms: C_6  and  N_7
REMARK    4  A    between atoms: C_8  and  C_10
REMARK    5  A    between atoms: C_21  and  S_22
REMARK    6  A    between atoms: S_22  and  N_25
REMARK                            x       y       z     vdW  Elec       q    Type
REMARK                         _______ _______ _______ _____ _____    ______ ____
ROOT
ATOM      1  C   UNL     1      -0.895  11.134  21.464  0.00  0.00    +0.000 A 
ATOM      2  C   UNL     1       0.115  10.524  22.232  0.00  0.00    +0.000 A 
ATOM      3  C   UNL     1       1.012   9.597  21.697  0.00  0.00    +0.000 A 
ATOM      4  C   UNL     1       0.938   9.229  20.367  0.00  0.00    +0.000 A 
ATOM      5  C   UNL     1      -0.042   9.836  19.586  0.00  0.00    +0.000 A 
ATOM      6  C   UNL     1      -0.965  10.790  20.115  0.00  0.00    +0.000 A 
ENDROOT
BRANCH   4   7
ATOM      7  N   UNL     1       1.822   8.299  19.766  0.00  0.00    +0.000 N 
ATOM      8  C   UNL     1       2.234   8.337  18.445  0.00  0.00    +0.000 C 
ATOM      9  O   UNL     1       1.989   9.222  17.631  0.00  0.00    +0.000 OA
ATOM     10  H   UNL     1       2.117   7.519  20.342  0.00  0.00    +0.000 HD
BRANCH   8  11
ATOM     11  C   UNL     1       2.998   7.172  17.944  0.00  0.00    +0.000 A 
ATOM     12  C   UNL     1       2.456   5.906  18.188  0.00  0.00    +0.000 A 
ATOM     13  C   UNL     1       3.109   4.767  17.726  0.00  0.00    +0.000 A 
ATOM     14  C   UNL     1       4.287   4.867  17.005  0.00  0.00    +0.000 A 
ATOM     15  N   UNL     1       4.885   3.743  16.581  0.00  0.00    +0.000 NA
ATOM     16  C   UNL     1       6.012   3.901  15.859  0.00  0.00    +0.000 A 
ATOM     17  C   UNL     1       6.524   5.148  15.561  0.00  0.00    +0.000 A 
ATOM     18  N   UNL     1       5.946   6.291  15.993  0.00  0.00    +0.000 NA
ATOM     19  C   UNL     1       4.820   6.157  16.721  0.00  0.00    +0.000 A 
ATOM     20  C   UNL     1       4.175   7.290  17.201  0.00  0.00    +0.000 A 
ENDBRANCH   8  11
ENDBRANCH   4   7
BRANCH   6  21
ATOM     21  S   UNL     1      -2.077  11.361  18.852  0.00  0.00    +0.000 S 
ATOM     22  O   UNL     1      -3.061  12.153  19.571  0.00  0.00    +0.000 OA
ATOM     23  O   UNL     1      -1.217  12.031  17.895  0.00  0.00    +0.000 OA
BRANCH  21  24
ATOM     24  N   UNL     1      -2.987  10.201  17.989  0.00  0.00    +0.000 NA
ATOM     25  C   UNL     1      -2.573   9.794  16.614  0.00  0.00    +0.000 C 
ATOM     26  C   UNL     1      -2.790  10.908  15.588  0.00  0.00    +0.000 C 
ATOM     27  O   UNL     1      -4.165  11.316  15.537  0.00  0.00    +0.000 OA
ATOM     28  C   UNL     1      -4.654  11.722  16.824  0.00  0.00    +0.000 C 
ATOM     29  C   UNL     1      -4.455  10.619  17.883  0.00  0.00    +0.000 C 
ENDBRANCH  21  24
ENDBRANCH   6  21
BRANCH   1  31
ATOM     30  C   UNL     1      -1.206  13.086  22.796  0.00  0.00    +0.000 C 
ATOM     31  O   UNL     1      -1.771  12.014  22.029  0.00  0.00    +0.000 OA
ENDBRANCH   1  31
TORSDOF 5
ENDMDL
MODEL 4
REMARK VINA RESULT:      -8.4      1.952      2.663
REMARK  Name = 
REMARK  6 active torsions:
REMARK  status: ('A' for Active; 'I' for Inactive)
REMARK    1  A    between atoms: C_1  and  O_2
REMARK    2  A    between atoms: O_2  and  C_3
REMARK    3  A    between atoms: C_6  and  N_7
REMARK    4  A    between atoms: C_8  and  C_10
REMARK    5  A    between atoms: C_21  and  S_22
REMARK    6  A    between atoms: S_22  and  N_25
REMARK                            x       y       z     vdW  Elec       q    Type
REMARK                         _______ _______ _______ _____ _____    ______ ____
ROOT
ATOM      1  C   UNL     1       2.744   3.948  19.973  0.00  0.00    +0.000 A 
ATOM      2  C   UNL     1       1.624   4.423  20.681  0.00  0.00    +0.000 A 
ATOM      3  C   UNL     1       1.273   5.774  20.715  0.00  0.00    +0.000 A 
ATOM      4  C   UNL     1       2.030   6.719  20.049  0.00  0.00    +0.000 A 
ATOM      5  C   UNL     1       3.132   6.266  19.326  0.00  0.00    +0.000 A 
ATOM      6  C   UNL     1       3.502   4.887  19.276  0.00  0.00    +0.000 A 
ENDROOT
BRANCH   4   7
ATOM      7  N   UNL     1       1.722   8.101  20.042  0.00  0.00    +0.000 N 
ATOM      8  C   UNL     1       1.543   8.868  18.904  0.00  0.00    +0.000 C 
ATOM      9  O   UNL     1       1.519   8.460  17.747  0.00  0.00    +0.000 OA
ATOM     10  H   UNL     1       1.695   8.562  20.944  0.00  0.00    +0.000 HD
BRANCH   8  11
ATOM     11  C   UNL     1       1.424  10.332  19.089  0.00  0.00    +0.000 A 
ATOM     12  C   UNL     1       0.553  10.776  20.090  0.00  0.00    +0.000 A 
ATOM     13  C   UNL     1       0.409  12.138  20.335  0.00  0.00    +0.000 A 
ATOM     14  C   UNL     1       1.135  13.070  19.613  0.00  0.00    +0.000 A 
ATOM     15  N   UNL     1       0.963  14.375  19.879  0.00  0.00    +0.000 NA
ATOM     16  C   UNL     1       1.716  15.236  19.167  0.00  0.00    +0.000 A 
ATOM     17  C   UNL     1       2.623  14.806  18.219  0.00  0.00    +0.000 A 
ATOM     18  N   UNL     1       2.799  13.498  17.924  0.00  0.00    +0.000 NA
ATOM     19  C   UNL     1       2.053  12.620  18.621  0.00  0.00    +0.000 A 
ATOM     20  C   UNL     1       2.178  11.259  18.367  0.00  0.00    +0.000 A 
ENDBRANCH   8  11
ENDBRANCH   4   7
BRANCH   6  21
ATOM     21  S   UNL     1       4.951   4.659  18.271  0.00  0.00    +0.000 S 
ATOM     22  O   UNL     1       5.956   4.165  19.198  0.00  0.00    +0.000 OA
ATOM     23  O   UNL     1       4.510   3.785  17.201  0.00  0.00    +0.000 OA
BRANCH  21  24
ATOM     24  N   UNL     1       5.657   6.034  17.544  0.00  0.00    +0.000 NA
ATOM     25  C   UNL     1       5.138   6.542  16.240  0.00  0.00    +0.000 C 
ATOM     26  C   UNL     1       5.470   5.604  15.077  0.00  0.00    +0.000 C 
ATOM     27  O   UNL     1       6.885   5.407  14.947  0.00  0.00    +0.000 OA
ATOM     28  C   UNL     1       7.474   4.921  16.162  0.00  0.00    +0.000 C 
ATOM     29  C   UNL     1       7.164   5.847  17.356  0.00  0.00    +0.000 C 
ENDBRANCH  21  24
ENDBRANCH   6  21
BRANCH   1  31
ATOM     30  C   UNL     1       2.402   1.783  19.037  0.00  0.00    +0.000 C 
ATOM     31  O   UNL     1       3.072   2.624  19.986  0.00  0.00    +0.000 OA
ENDBRANCH   1  31
TORSDOF 5
ENDMDL
MODEL 5
REMARK VINA RESULT:      -8.4      2.241      4.143
REMARK  Name = 
REMARK  6 active torsions:
REMARK  status: ('A' for Active; 'I' for Inactive)
REMARK    1  A    between atoms: C_1  and  O_2
REMARK    2  A    between atoms: O_2  and  C_3
REMARK    3  A    between atoms: C_6  and  N_7
REMARK    4  A    between atoms: C_8  and  C_10
REMARK    5  A    between atoms: C_21  and  S_22
REMARK    6  A    between atoms: S_22  and  N_25
REMARK                            x       y       z     vdW  Elec       q    Type
REMARK                         _______ _______ _______ _____ _____    ______ ____
ROOT
ATOM      1  C   UNL     1       4.467   5.077  16.951  0.00  0.00    +0.000 A 
ATOM      2  C   UNL     1       4.977   6.389  16.960  0.00  0.00    +0.000 A 
ATOM      3  C   UNL     1       4.258   7.473  17.468  0.00  0.00    +0.000 A 
ATOM      4  C   UNL     1       2.988   7.299  17.986  0.00  0.00    +0.000 A 
ATOM      5  C   UNL     1       2.473   6.005  18.003  0.00  0.00    +0.000 A 
ATOM      6  C   UNL     1       3.197   4.884  17.492  0.00  0.00    +0.000 A 
ENDROOT
BRANCH   4   7
ATOM      7  N   UNL     1       2.213   8.357  18.519  0.00  0.00    +0.000 N 
ATOM      8  C   UNL     1       1.656   8.371  19.787  0.00  0.00    +0.000 C 
ATOM      9  O   UNL     1       1.830   7.534  20.668  0.00  0.00    +0.000 OA
ATOM     10  H   UNL     1       2.006   9.126  17.893  0.00  0.00    +0.000 HD
BRANCH   8  11
ATOM     11  C   UNL     1       0.713   9.469  20.097  0.00  0.00    +0.000 A 
ATOM     12  C   UNL     1      -0.087   9.933  19.047  0.00  0.00    +0.000 A 
ATOM     13  C   UNL     1      -1.012  10.948  19.272  0.00  0.00    +0.000 A 
ATOM     14  C   UNL     1      -1.170  11.499  20.533  0.00  0.00    +0.000 A 
ATOM     15  N   UNL     1      -2.071  12.479  20.704  0.00  0.00    +0.000 NA
ATOM     16  C   UNL     1      -2.203  12.957  21.957  0.00  0.00    +0.000 A 
ATOM     17  C   UNL     1      -1.461  12.466  23.012  0.00  0.00    +0.000 A 
ATOM     18  N   UNL     1      -0.537  11.491  22.857  0.00  0.00    +0.000 NA
ATOM     19  C   UNL     1      -0.384  11.001  21.612  0.00  0.00    +0.000 A 
ATOM     20  C   UNL     1       0.552  10.001  21.378  0.00  0.00    +0.000 A 
ENDBRANCH   8  11
ENDBRANCH   4   7
BRANCH   6  21
ATOM     21  S   UNL     1       2.252   3.388  17.667  0.00  0.00    +0.000 S 
ATOM     22  O   UNL     1       0.882   3.847  17.829  0.00  0.00    +0.000 OA
ATOM     23  O   UNL     1       2.586   2.615  16.486  0.00  0.00    +0.000 OA
BRANCH  21  24
ATOM     24  N   UNL     1       2.550   2.395  19.023  0.00  0.00    +0.000 NA
ATOM     25  C   UNL     1       1.457   2.110  20.000  0.00  0.00    +0.000 C 
ATOM     26  C   UNL     1       1.083   3.340  20.828  0.00  0.00    +0.000 C 
ATOM     27  O   UNL     1       2.210   3.847  21.557  0.00  0.00    +0.000 OA
ATOM     28  C   UNL     1       3.318   4.146  20.695  0.00  0.00    +0.000 C 
ATOM     29  C   UNL     1       3.726   2.924  19.847  0.00  0.00    +0.000 C 
ENDBRANCH  21  24
ENDBRANCH   6  21
BRANCH   1  31
ATOM     30  C   UNL     1       6.527   4.346  16.000  0.00  0.00    +0.000 C 
ATOM     31  O   UNL     1       5.188   4.048  16.420  0.00  0.00    +0.000 OA
ENDBRANCH   1  31
TORSDOF 5
ENDMDL
MODEL 6
REMARK VINA RESULT:      -8.4      1.322      1.696
REMARK  Name = 
REMARK  6 active torsions:
REMARK  status: ('A' for Active; 'I' for Inactive)
REMARK    1  A    between atoms: C_1  and  O_2
REMARK    2  A    between atoms: O_2  and  C_3
REMARK    3  A    between atoms: C_6  and  N_7
REMARK    4  A    between atoms: C_8  and  C_10
REMARK    5  A    between atoms: C_21  and  S_22
REMARK    6  A    between atoms: S_22  and  N_25
REMARK                            x       y       z     vdW  Elec       q    Type
REMARK                         _______ _______ _______ _____ _____    ______ ____
ROOT
ATOM      1  C   UNL     1       3.709   2.751  20.128  0.00  0.00    +0.000 A 
ATOM      2  C   UNL     1       2.755   2.832  21.160  0.00  0.00    +0.000 A 
ATOM      3  C   UNL     1       2.057   4.006  21.450  0.00  0.00    +0.000 A 
ATOM      4  C   UNL     1       2.286   5.162  20.726  0.00  0.00    +0.000 A 
ATOM      5  C   UNL     1       3.213   5.097  19.688  0.00  0.00    +0.000 A 
ATOM      6  C   UNL     1       3.931   3.902  19.374  0.00  0.00    +0.000 A 
ENDROOT
BRANCH   4   7
ATOM      7  N   UNL     1       1.607   6.380  20.970  0.00  0.00    +0.000 N 
ATOM      8  C   UNL     1       1.742   7.529  20.209  0.00  0.00    +0.000 C 
ATOM      9  O   UNL     1       2.376   7.640  19.163  0.00  0.00    +0.000 OA
ATOM     10  H   UNL     1       1.031   6.418  21.802  0.00  0.00    +0.000 HD
BRANCH   8  11
ATOM     11  C   UNL     1       1.109   8.761  20.730  0.00  0.00    +0.000 A 
ATOM     12  C   UNL     1       0.736   8.761  22.079  0.00  0.00    +0.000 A 
ATOM     13  C   UNL     1       0.157   9.893  22.642  0.00  0.00    +0.000 A 
ATOM     14  C   UNL     1      -0.042  11.038  21.889  0.00  0.00    +0.000 A 
ATOM     15  N   UNL     1      -0.608  12.108  22.472  0.00  0.00    +0.000 NA
ATOM     16  C   UNL     1      -0.750  13.204  21.701  0.00  0.00    +0.000 A 
ATOM     17  C   UNL     1      -0.332  13.235  20.386  0.00  0.00    +0.000 A 
ATOM     18  N   UNL     1       0.225  12.164  19.776  0.00  0.00    +0.000 NA
ATOM     19  C   UNL     1       0.372  11.055  20.527  0.00  0.00    +0.000 A 
ATOM     20  C   UNL     1       0.933   9.915  19.964  0.00  0.00    +0.000 A 
ENDBRANCH   8  11
ENDBRANCH   4   7
BRANCH   6  21
ATOM     21  S   UNL     1       5.030   4.169  18.002  0.00  0.00    +0.000 S 
ATOM     22  O   UNL     1       6.359   4.085  18.584  0.00  0.00    +0.000 OA
ATOM     23  O   UNL     1       4.637   3.165  17.031  0.00  0.00    +0.000 OA
BRANCH  21  24
ATOM     24  N   UNL     1       4.986   5.681  17.212  0.00  0.00    +0.000 NA
ATOM     25  C   UNL     1       5.252   5.771  15.745  0.00  0.00    +0.000 C 
ATOM     26  C   UNL     1       6.718   5.496  15.403  0.00  0.00    +0.000 C 
ATOM     27  O   UNL     1       7.595   6.414  16.071  0.00  0.00    +0.000 OA
ATOM     28  C   UNL     1       7.405   6.400  17.494  0.00  0.00    +0.000 C 
ATOM     29  C   UNL     1       5.937   6.680  17.875  0.00  0.00    +0.000 C 
ENDBRANCH  21  24
ENDBRANCH   6  21
BRANCH   1  31
ATOM     30  C   UNL     1       5.223   1.106  20.954  0.00  0.00    +0.000 C 
ATOM     31  O   UNL     1       4.391   1.593  19.893  0.00  0.00    +0.000 OA
ENDBRANCH   1  31
TORSDOF 5
ENDMDL
MODEL 7
REMARK VINA RESULT:      -8.4      1.502      2.435
REMARK  Name = 
REMARK  6 active torsions:
REMARK  status: ('A' for Active; 'I' for Inactive)
REMARK    1  A    between atoms: C_1  and  O_2
REMARK    2  A    between atoms: O_2  and  C_3
REMARK    3  A    between atoms: C_6  and  N_7
REMARK    4  A    between atoms: C_8  and  C_10
REMARK    5  A    between atoms: C_21  and  S_22
REMARK    6  A    between atoms: S_22  and  N_25
REMARK                            x       y       z     vdW  Elec       q    Type
REMARK                         _______ _______ _______ _____ _____    ______ ____
ROOT
ATOM      1  C   UNL     1       2.611   3.883  20.000  0.00  0.00    +0.000 A 
ATOM      2  C   UNL     1       1.495   4.347  20.722  0.00  0.00    +0.000 A 
ATOM      3  C   UNL     1       1.172   5.702  20.821  0.00  0.00    +0.000 A 
ATOM      4  C   UNL     1       1.956   6.662  20.209  0.00  0.00    +0.000 A 
ATOM      5  C   UNL     1       3.054   6.221  19.474  0.00  0.00    +0.000 A 
ATOM      6  C   UNL     1       3.396   4.839  19.357  0.00  0.00    +0.000 A 
ENDROOT
BRANCH   4   7
ATOM      7  N   UNL     1       1.677   8.049  20.269  0.00  0.00    +0.000 N 
ATOM      8  C   UNL     1       1.485   8.867  19.169  0.00  0.00    +0.000 C 
ATOM      9  O   UNL     1       1.421   8.509  17.997  0.00  0.00    +0.000 OA
ATOM     10  H   UNL     1       1.684   8.472  21.189  0.00  0.00    +0.000 HD
BRANCH   8  11
ATOM     11  C   UNL     1       1.403  10.324  19.419  0.00  0.00    +0.000 A 
ATOM     12  C   UNL     1       1.834  11.169  18.390  0.00  0.00    +0.000 A 
ATOM     13  C   UNL     1       1.764  12.550  18.547  0.00  0.00    +0.000 A 
ATOM     14  C   UNL     1       1.253  13.108  19.707  0.00  0.00    +0.000 A 
ATOM     15  N   UNL     1       1.208  14.445  19.817  0.00  0.00    +0.000 NA
ATOM     16  C   UNL     1       0.674  14.933  20.955  0.00  0.00    +0.000 A 
ATOM     17  C   UNL     1       0.191  14.109  21.951  0.00  0.00    +0.000 A 
ATOM     18  N   UNL     1       0.243  12.760  21.866  0.00  0.00    +0.000 NA
ATOM     19  C   UNL     1       0.777  12.250  20.740  0.00  0.00    +0.000 A 
ATOM     20  C   UNL     1       0.867  10.872  20.586  0.00  0.00    +0.000 A 
ENDBRANCH   8  11
ENDBRANCH   4   7
BRANCH   6  21
ATOM     21  S   UNL     1       4.849   4.630  18.355  0.00  0.00    +0.000 S 
ATOM     22  O   UNL     1       5.834   4.066  19.263  0.00  0.00    +0.000 OA
ATOM     23  O   UNL     1       4.398   3.822  17.237  0.00  0.00    +0.000 OA
BRANCH  21  24
ATOM     24  N   UNL     1       5.591   6.023  17.704  0.00  0.00    +0.000 NA
ATOM     25  C   UNL     1       5.131   6.579  16.398  0.00  0.00    +0.000 C 
ATOM     26  C   UNL     1       5.505   5.679  15.219  0.00  0.00    +0.000 C 
ATOM     27  O   UNL     1       6.923   5.476  15.141  0.00  0.00    +0.000 OA
ATOM     28  C   UNL     1       7.459   4.945  16.362  0.00  0.00    +0.000 C 
ATOM     29  C   UNL     1       7.104   5.832  17.573  0.00  0.00    +0.000 C 
ENDBRANCH  21  24
ENDBRANCH   6  21
BRANCH   1  31
ATOM     30  C   UNL     1       2.228   1.774  18.958  0.00  0.00    +0.000 C 
ATOM     31  O   UNL     1       2.910   2.553  19.950  0.00  0.00    +0.000 OA
ENDBRANCH   1  31
TORSDOF 5
ENDMDL
MODEL 8
REMARK VINA RESULT:      -8.3      1.338      2.084
REMARK  Name = 
REMARK  6 active torsions:
REMARK  status: ('A' for Active; 'I' for Inactive)
REMARK    1  A    between atoms: C_1  and  O_2
REMARK    2  A    between atoms: O_2  and  C_3
REMARK    3  A    between atoms: C_6  and  N_7
REMARK    4  A    between atoms: C_8  and  C_10
REMARK    5  A    between atoms: C_21  and  S_22
REMARK    6  A    between atoms: S_22  and  N_25
REMARK                            x       y       z     vdW  Elec       q    Type
REMARK                         _______ _______ _______ _____ _____    ______ ____
ROOT
ATOM      1  C   UNL     1       3.613   2.896  20.080  0.00  0.00    +0.000 A 
ATOM      2  C   UNL     1       2.621   3.070  21.063  0.00  0.00    +0.000 A 
ATOM      3  C   UNL     1       1.932   4.273  21.234  0.00  0.00    +0.000 A 
ATOM      4  C   UNL     1       2.207   5.365  20.432  0.00  0.00    +0.000 A 
ATOM      5  C   UNL     1       3.172   5.206  19.440  0.00  0.00    +0.000 A 
ATOM      6  C   UNL     1       3.883   3.982  19.248  0.00  0.00    +0.000 A 
ENDROOT
BRANCH   4   7
ATOM      7  N   UNL     1       1.540   6.608  20.553  0.00  0.00    +0.000 N 
ATOM      8  C   UNL     1       1.797   7.725  19.777  0.00  0.00    +0.000 C 
ATOM      9  O   UNL     1       2.553   7.782  18.812  0.00  0.00    +0.000 OA
ATOM     10  H   UNL     1       0.870   6.689  21.310  0.00  0.00    +0.000 HD
BRANCH   8  11
ATOM     11  C   UNL     1       1.142   8.990  20.179  0.00  0.00    +0.000 A 
ATOM     12  C   UNL     1       0.959   9.954  19.181  0.00  0.00    +0.000 A 
ATOM     13  C   UNL     1       0.330  11.158  19.483  0.00  0.00    +0.000 A 
ATOM     14  C   UNL     1      -0.140  11.413  20.760  0.00  0.00    +0.000 A 
ATOM     15  N   UNL     1      -0.738  12.590  21.007  0.00  0.00    +0.000 NA
ATOM     16  C   UNL     1      -1.202  12.773  22.259  0.00  0.00    +0.000 A 
ATOM     17  C   UNL     1      -1.080  11.805  23.236  0.00  0.00    +0.000 A 
ATOM     18  N   UNL     1      -0.467  10.621  23.011  0.00  0.00    +0.000 NA
ATOM     19  C   UNL     1       0.009  10.418  21.768  0.00  0.00    +0.000 A 
ATOM     20  C   UNL     1       0.655   9.225  21.466  0.00  0.00    +0.000 A 
ENDBRANCH   8  11
ENDBRANCH   4   7
BRANCH   6  21
ATOM     21  S   UNL     1       5.037   4.125  17.904  0.00  0.00    +0.000 S 
ATOM     22  O   UNL     1       6.340   4.136  18.549  0.00  0.00    +0.000 OA
ATOM     23  O   UNL     1       4.708   3.014  17.031  0.00  0.00    +0.000 OA
BRANCH  21  24
ATOM     24  N   UNL     1       5.001   5.543  16.954  0.00  0.00    +0.000 NA
ATOM     25  C   UNL     1       5.349   5.484  15.503  0.00  0.00    +0.000 C 
ATOM     26  C   UNL     1       6.838   5.220  15.273  0.00  0.00    +0.000 C 
ATOM     27  O   UNL     1       7.653   6.230  15.885  0.00  0.00    +0.000 OA
ATOM     28  C   UNL     1       7.382   6.363  17.289  0.00  0.00    +0.000 C 
ATOM     29  C   UNL     1       5.888   6.635  17.557  0.00  0.00    +0.000 C 
ENDBRANCH  21  24
ENDBRANCH   6  21
BRANCH   1  31
ATOM     30  C   UNL     1       5.135   1.342  21.056  0.00  0.00    +0.000 C 
ATOM     31  O   UNL     1       4.285   1.714  19.962  0.00  0.00    +0.000 OA
ENDBRANCH   1  31
TORSDOF 5
ENDMDL
MODEL 9
REMARK VINA RESULT:      -8.2      2.137      3.016
REMARK  Name = 
REMARK  6 active torsions:
REMARK  status: ('A' for Active; 'I' for Inactive)
REMARK    1  A    between atoms: C_1  and  O_2
REMARK    2  A    between atoms: O_2  and  C_3
REMARK    3  A    between atoms: C_6  and  N_7
REMARK    4  A    between atoms: C_8  and  C_10
REMARK    5  A    between atoms: C_21  and  S_22
REMARK    6  A    between atoms: S_22  and  N_25
REMARK                            x       y       z     vdW  Elec       q    Type
REMARK                         _______ _______ _______ _____ _____    ______ ____
ROOT
ATOM      1  C   UNL     1       2.594   4.436  20.097  0.00  0.00    +0.000 A 
ATOM      2  C   UNL     1       1.510   5.020  20.780  0.00  0.00    +0.000 A 
ATOM      3  C   UNL     1       1.226   6.385  20.712  0.00  0.00    +0.000 A 
ATOM      4  C   UNL     1       2.018   7.236  19.963  0.00  0.00    +0.000 A 
ATOM      5  C   UNL     1       3.083   6.673  19.265  0.00  0.00    +0.000 A 
ATOM      6  C   UNL     1       3.385   5.278  19.319  0.00  0.00    +0.000 A 
ENDROOT
BRANCH   4   7
ATOM      7  N   UNL     1       1.777   8.627  19.852  0.00  0.00    +0.000 N 
ATOM      8  C   UNL     1       1.367   9.271  18.697  0.00  0.00    +0.000 C 
ATOM      9  O   UNL     1       1.051   8.736  17.638  0.00  0.00    +0.000 OA
ATOM     10  H   UNL     1       1.985   9.189  20.669  0.00  0.00    +0.000 HD
BRANCH   8  11
ATOM     11  C   UNL     1       1.360  10.751  18.716  0.00  0.00    +0.000 A 
ATOM     12  C   UNL     1       2.443  11.398  18.112  0.00  0.00    +0.000 A 
ATOM     13  C   UNL     1       2.491  12.788  18.072  0.00  0.00    +0.000 A 
ATOM     14  C   UNL     1       1.466  13.549  18.609  0.00  0.00    +0.000 A 
ATOM     15  N   UNL     1       1.555  14.888  18.553  0.00  0.00    +0.000 NA
ATOM     16  C   UNL     1       0.517  15.578  19.065  0.00  0.00    +0.000 A 
ATOM     17  C   UNL     1      -0.585  14.950  19.610  0.00  0.00    +0.000 A 
ATOM     18  N   UNL     1      -0.686  13.603  19.692  0.00  0.00    +0.000 NA
ATOM     19  C   UNL     1       0.344  12.893  19.191  0.00  0.00    +0.000 A 
ATOM     20  C   UNL     1       0.310  11.505  19.245  0.00  0.00    +0.000 A 
ENDBRANCH   8  11
ENDBRANCH   4   7
BRANCH   6  21
ATOM     21  S   UNL     1       4.804   4.900  18.316  0.00  0.00    +0.000 S 
ATOM     22  O   UNL     1       5.781   4.380  19.259  0.00  0.00    +0.000 OA
ATOM     23  O   UNL     1       4.291   4.010  17.292  0.00  0.00    +0.000 OA
BRANCH  21  24
ATOM     24  N   UNL     1       5.598   6.184  17.519  0.00  0.00    +0.000 NA
ATOM     25  C   UNL     1       5.157   6.610  16.158  0.00  0.00    +0.000 C 
ATOM     26  C   UNL     1       5.496   5.572  15.086  0.00  0.00    +0.000 C 
ATOM     27  O   UNL     1       6.906   5.309  15.036  0.00  0.00    +0.000 OA
ATOM     28  C   UNL     1       7.422   4.896  16.310  0.00  0.00    +0.000 C 
ATOM     29  C   UNL     1       7.102   5.924  17.414  0.00  0.00    +0.000 C 
ENDBRANCH  21  24
ENDBRANCH   6  21
BRANCH   1  31
ATOM     30  C   UNL     1       2.618   2.502  21.491  0.00  0.00    +0.000 C 
ATOM     31  O   UNL     1       2.857   3.102  20.211  0.00  0.00    +0.000 OA
ENDBRANCH   1  31
TORSDOF 5
ENDMDL
