MODEL 1
REMARK VINA RESULT:      -9.1      0.000      0.000
REMARK  Name = 
REMARK  6 active torsions:
REMARK  status: ('A' for Active; 'I' for Inactive)
REMARK    1  A    between atoms: C_1  and  C_2
REMARK    2  A    between atoms: C_5  and  C_6
REMARK    3  A    between atoms: C_7  and  S_8
REMARK    4  A    between atoms: S_8  and  N_11
REMARK    5  A    between atoms: N_11  and  C_12
REMARK    6  A    between atoms: C_16  and  C_17
REMARK                            x       y       z     vdW  Elec       q    Type
REMARK                         _______ _______ _______ _____ _____    ______ ____
ROOT
ATOM      1  C   UNL     1       2.990   6.719  19.250  0.00  0.00    +0.000 A 
ATOM      2  C   UNL     1       3.225   7.288  17.996  0.00  0.00    +0.000 A 
ATOM      3  C   UNL     1       2.546   8.448  17.612  0.00  0.00    +0.000 A 
ATOM      4  C   UNL     1       1.624   9.038  18.479  0.00  0.00    +0.000 A 
ATOM      5  C   UNL     1       1.407   8.477  19.743  0.00  0.00    +0.000 A 
ATOM      6  C   UNL     1       2.105   7.325  20.138  0.00  0.00    +0.000 A 
ENDROOT
BRANCH   5   7
ATOM      7  C   UNL     1       0.447   9.097  20.695  0.00  0.00    +0.000 C 
ATOM      8  O   UNL     1      -0.134   8.376  21.497  0.00  0.00    +0.000 OA
ATOM      9  N   UNL     1       0.231  10.447  20.518  0.00  0.00    +0.000 N 
ATOM     10  C   UNL     1      -0.751  11.146  21.225  0.00  0.00    +0.000 A 
ATOM     11  C   UNL     1      -0.924  10.994  22.599  0.00  0.00    +0.000 A 
ATOM     12  C   UNL     1      -1.949  11.699  23.229  0.00  0.00    +0.000 A 
ATOM     13  C   UNL     1      -2.780  12.494  22.460  0.00  0.00    +0.000 A 
ATOM     14  F   UNL     1      -3.808  13.144  23.020  0.00  0.00    +0.000 F 
ATOM     15  C   UNL     1      -2.529  12.604  21.103  0.00  0.00    +0.000 A 
ATOM     16  N   UNL     1      -1.500  11.982  20.474  0.00  0.00    +0.000 NA
ATOM     17  H   UNL     1       0.401  10.827  19.597  0.00  0.00    +0.000 HD
ENDBRANCH   5   7
BRANCH   1  18
ATOM     18  N   UNL     1       3.589   5.474  19.595  0.00  0.00    +0.000 N 
ATOM     19  H   UNL     1       3.416   5.138  20.543  0.00  0.00    +0.000 HD
BRANCH  18  20
ATOM     20  S   UNL     1       3.503   4.172  18.518  0.00  0.00    +0.000 S 
ATOM     21  O   UNL     1       2.286   4.301  17.742  0.00  0.00    +0.000 OA
ATOM     22  O   UNL     1       3.743   2.992  19.325  0.00  0.00    +0.000 OA
BRANCH  20  29
ATOM     23  C   UNL     1       5.656   3.953  13.755  0.00  0.00    +0.000 C 
ATOM     24  C   UNL     1       5.840   4.269  15.210  0.00  0.00    +0.000 A 
ATOM     25  C   UNL     1       7.062   4.744  15.686  0.00  0.00    +0.000 A 
ATOM     26  C   UNL     1       7.226   5.046  17.039  0.00  0.00    +0.000 A 
ATOM     27  C   UNL     1       6.177   4.876  17.961  0.00  0.00    +0.000 A 
ATOM     28  C   UNL     1       6.433   5.262  19.390  0.00  0.00    +0.000 C 
ATOM     29  C   UNL     1       4.948   4.382  17.485  0.00  0.00    +0.000 A 
ATOM     30  C   UNL     1       4.784   4.094  16.114  0.00  0.00    +0.000 A 
ENDBRANCH  20  29
ENDBRANCH  18  20
ENDBRANCH   1  18
TORSDOF 4
ENDMDL
MODEL 2
REMARK VINA RESULT:      -9.0      2.409      3.520
REMARK  Name = 
REMARK  6 active torsions:
REMARK  status: ('A' for Active; 'I' for Inactive)
REMARK    1  A    between atoms: C_1  and  C_2
REMARK    2  A    between atoms: C_5  and  C_6
REMARK    3  A    between atoms: C_7  and  S_8
REMARK    4  A    between atoms: S_8  and  N_11
REMARK    5  A    between atoms: N_11  and  C_12
REMARK    6  A    between atoms: C_16  and  C_17
REMARK                            x       y       z     vdW  Elec       q    Type
REMARK                         _______ _______ _______ _____ _____    ______ ____
ROOT
ATOM      1  C   UNL     1       4.834   4.136  18.684  0.00  0.00    +0.000 A 
ATOM      2  C   UNL     1       4.169   3.364  17.727  0.00  0.00    +0.000 A 
ATOM      3  C   UNL     1       2.785   3.484  17.568  0.00  0.00    +0.000 A 
ATOM      4  C   UNL     1       2.062   4.369  18.369  0.00  0.00    +0.000 A 
ATOM      5  C   UNL     1       2.735   5.156  19.312  0.00  0.00    +0.000 A 
ATOM      6  C   UNL     1       4.127   5.052  19.457  0.00  0.00    +0.000 A 
ENDROOT
BRANCH   5   7
ATOM      7  C   UNL     1       1.993   6.123  20.164  0.00  0.00    +0.000 C 
ATOM      8  O   UNL     1       1.210   5.688  20.999  0.00  0.00    +0.000 OA
ATOM      9  N   UNL     1       2.199   7.452  19.861  0.00  0.00    +0.000 N 
ATOM     10  C   UNL     1       1.463   8.478  20.463  0.00  0.00    +0.000 A 
ATOM     11  C   UNL     1       1.232   8.516  21.837  0.00  0.00    +0.000 A 
ATOM     12  C   UNL     1       0.459   9.552  22.359  0.00  0.00    +0.000 A 
ATOM     13  C   UNL     1      -0.082  10.482  21.488  0.00  0.00    +0.000 A 
ATOM     14  F   UNL     1      -0.873  11.461  21.945  0.00  0.00    +0.000 F 
ATOM     15  C   UNL     1       0.211  10.382  20.139  0.00  0.00    +0.000 A 
ATOM     16  N   UNL     1       1.013   9.423  19.611  0.00  0.00    +0.000 NA
ATOM     17  H   UNL     1       2.489   7.674  18.920  0.00  0.00    +0.000 HD
ENDBRANCH   5   7
BRANCH   1  18
ATOM     18  N   UNL     1       6.221   3.929  18.931  0.00  0.00    +0.000 N 
ATOM     19  H   UNL     1       6.535   2.959  18.959  0.00  0.00    +0.000 HD
BRANCH  18  20
ATOM     20  S   UNL     1       7.370   4.862  18.108  0.00  0.00    +0.000 S 
ATOM     21  O   UNL     1       8.544   4.043  17.881  0.00  0.00    +0.000 OA
ATOM     22  O   UNL     1       7.465   6.099  18.857  0.00  0.00    +0.000 OA
BRANCH  20  29
ATOM     23  C   UNL     1       6.283   3.548  13.163  0.00  0.00    +0.000 C 
ATOM     24  C   UNL     1       6.096   4.536  14.276  0.00  0.00    +0.000 A 
ATOM     25  C   UNL     1       5.292   5.662  14.100  0.00  0.00    +0.000 A 
ATOM     26  C   UNL     1       5.113   6.574  15.143  0.00  0.00    +0.000 A 
ATOM     27  C   UNL     1       5.737   6.392  16.391  0.00  0.00    +0.000 A 
ATOM     28  C   UNL     1       5.457   7.404  17.466  0.00  0.00    +0.000 C 
ATOM     29  C   UNL     1       6.560   5.264  16.565  0.00  0.00    +0.000 A 
ATOM     30  C   UNL     1       6.725   4.340  15.513  0.00  0.00    +0.000 A 
ENDBRANCH  20  29
ENDBRANCH  18  20
ENDBRANCH   1  18
TORSDOF 4
ENDMDL
MODEL 3
REMARK VINA RESULT:      -8.9      6.270      8.174
REMARK  Name = 
REMARK  6 active torsions:
REMARK  status: ('A' for Active; 'I' for Inactive)
REMARK    1  A    between atoms: C_1  and  C_2
REMARK    2  A    between atoms: C_5  and  C_6
REMARK    3  A    between atoms: C_7  and  S_8
REMARK    4  A    between atoms: S_8  and  N_11
REMARK    5  A    between atoms: N_11  and  C_12
REMARK    6  A    between atoms: C_16  and  C_17
REMARK                            x       y       z     vdW  Elec       q    Type
REMARK                         _______ _______ _______ _____ _____    ______ ____
ROOT
ATOM      1  C   UNL     1       7.383   5.947  16.998  0.00  0.00    +0.000 A 
ATOM      2  C   UNL     1       7.557   5.144  18.129  0.00  0.00    +0.000 A 
ATOM      3  C   UNL     1       8.027   5.702  19.321  0.00  0.00    +0.000 A 
ATOM      4  C   UNL     1       8.331   7.063  19.384  0.00  0.00    +0.000 A 
ATOM      5  C   UNL     1       8.135   7.869  18.256  0.00  0.00    +0.000 A 
ATOM      6  C   UNL     1       7.642   7.313  17.065  0.00  0.00    +0.000 A 
ENDROOT
BRANCH   5   7
ATOM      7  C   UNL     1       8.430   9.325  18.302  0.00  0.00    +0.000 C 
ATOM      8  O   UNL     1       7.938  10.051  17.446  0.00  0.00    +0.000 OA
ATOM      9  N   UNL     1       9.324   9.715  19.276  0.00  0.00    +0.000 N 
ATOM     10  C   UNL     1       9.824  11.018  19.355  0.00  0.00    +0.000 A 
ATOM     11  C   UNL     1       8.998  12.135  19.244  0.00  0.00    +0.000 A 
ATOM     12  C   UNL     1       9.575  13.404  19.297  0.00  0.00    +0.000 A 
ATOM     13  C   UNL     1      10.949  13.505  19.420  0.00  0.00    +0.000 A 
ATOM     14  F   UNL     1      11.545  14.704  19.422  0.00  0.00    +0.000 F 
ATOM     15  C   UNL     1      11.694  12.345  19.543  0.00  0.00    +0.000 A 
ATOM     16  N   UNL     1      11.155  11.100  19.560  0.00  0.00    +0.000 NA
ATOM     17  H   UNL     1       9.978   9.020  19.610  0.00  0.00    +0.000 HD
ENDBRANCH   5   7
BRANCH   1  18
ATOM     18  N   UNL     1       7.021   5.360  15.753  0.00  0.00    +0.000 N 
ATOM     19  H   UNL     1       7.401   4.433  15.563  0.00  0.00    +0.000 HD
BRANCH  18  20
ATOM     20  S   UNL     1       5.411   5.420  15.231  0.00  0.00    +0.000 S 
ATOM     21  O   UNL     1       5.245   4.464  14.155  0.00  0.00    +0.000 OA
ATOM     22  O   UNL     1       5.129   6.826  15.021  0.00  0.00    +0.000 OA
BRANCH  20  29
ATOM     23  C   UNL     1       3.658   1.573  18.312  0.00  0.00    +0.000 C 
ATOM     24  C   UNL     1       3.738   3.050  18.058  0.00  0.00    +0.000 A 
ATOM     25  C   UNL     1       3.154   3.956  18.944  0.00  0.00    +0.000 A 
ATOM     26  C   UNL     1       3.240   5.330  18.708  0.00  0.00    +0.000 A 
ATOM     27  C   UNL     1       3.904   5.841  17.578  0.00  0.00    +0.000 A 
ATOM     28  C   UNL     1       3.978   7.333  17.427  0.00  0.00    +0.000 C 
ATOM     29  C   UNL     1       4.481   4.926  16.677  0.00  0.00    +0.000 A 
ATOM     30  C   UNL     1       4.404   3.541  16.928  0.00  0.00    +0.000 A 
ENDBRANCH  20  29
ENDBRANCH  18  20
ENDBRANCH   1  18
TORSDOF 4
ENDMDL
MODEL 4
REMARK VINA RESULT:      -8.6      1.215      1.961
REMARK  Name = 
REMARK  6 active torsions:
REMARK  status: ('A' for Active; 'I' for Inactive)
REMARK    1  A    between atoms: C_1  and  C_2
REMARK    2  A    between atoms: C_5  and  C_6
REMARK    3  A    between atoms: C_7  and  S_8
REMARK    4  A    between atoms: S_8  and  N_11
REMARK    5  A    between atoms: N_11  and  C_12
REMARK    6  A    between atoms: C_16  and  C_17
REMARK                            x       y       z     vdW  Elec       q    Type
REMARK                         _______ _______ _______ _____ _____    ______ ____
ROOT
ATOM      1  C   UNL     1       2.323   7.578  19.676  0.00  0.00    +0.000 A 
ATOM      2  C   UNL     1       2.412   8.030  18.357  0.00  0.00    +0.000 A 
ATOM      3  C   UNL     1       1.618   9.098  17.926  0.00  0.00    +0.000 A 
ATOM      4  C   UNL     1       0.729   9.711  18.810  0.00  0.00    +0.000 A 
ATOM      5  C   UNL     1       0.659   9.270  20.137  0.00  0.00    +0.000 A 
ATOM      6  C   UNL     1       1.471   8.213  20.576  0.00  0.00    +0.000 A 
ENDROOT
BRANCH   5   7
ATOM      7  C   UNL     1      -0.264   9.919  21.106  0.00  0.00    +0.000 C 
ATOM      8  O   UNL     1      -0.627   9.282  22.087  0.00  0.00    +0.000 OA
ATOM      9  N   UNL     1      -0.702  11.176  20.749  0.00  0.00    +0.000 N 
ATOM     10  C   UNL     1      -1.688  11.857  21.471  0.00  0.00    +0.000 A 
ATOM     11  C   UNL     1      -1.669  11.930  22.862  0.00  0.00    +0.000 A 
ATOM     12  C   UNL     1      -2.707  12.597  23.513  0.00  0.00    +0.000 A 
ATOM     13  C   UNL     1      -3.735  13.127  22.755  0.00  0.00    +0.000 A 
ATOM     14  F   UNL     1      -4.775  13.728  23.346  0.00  0.00    +0.000 F 
ATOM     15  C   UNL     1      -3.668  13.026  21.376  0.00  0.00    +0.000 A 
ATOM     16  N   UNL     1      -2.639  12.441  20.712  0.00  0.00    +0.000 NA
ATOM     17  H   UNL     1      -0.704  11.405  19.766  0.00  0.00    +0.000 HD
ENDBRANCH   5   7
BRANCH   1  18
ATOM     18  N   UNL     1       3.039   6.418  20.085  0.00  0.00    +0.000 N 
ATOM     19  H   UNL     1       3.131   6.275  21.090  0.00  0.00    +0.000 HD
BRANCH  18  20
ATOM     20  S   UNL     1       2.728   4.931  19.338  0.00  0.00    +0.000 S 
ATOM     21  O   UNL     1       1.422   4.998  18.714  0.00  0.00    +0.000 OA
ATOM     22  O   UNL     1       3.015   3.929  20.346  0.00  0.00    +0.000 OA
BRANCH  20  29
ATOM     23  C   UNL     1       7.283   6.670  17.443  0.00  0.00    +0.000 C 
ATOM     24  C   UNL     1       6.164   5.677  17.326  0.00  0.00    +0.000 A 
ATOM     25  C   UNL     1       6.187   4.693  16.338  0.00  0.00    +0.000 A 
ATOM     26  C   UNL     1       5.148   3.765  16.240  0.00  0.00    +0.000 A 
ATOM     27  C   UNL     1       4.051   3.796  17.120  0.00  0.00    +0.000 A 
ATOM     28  C   UNL     1       2.999   2.736  16.962  0.00  0.00    +0.000 C 
ATOM     29  C   UNL     1       4.020   4.798  18.108  0.00  0.00    +0.000 A 
ATOM     30  C   UNL     1       5.079   5.723  18.211  0.00  0.00    +0.000 A 
ENDBRANCH  20  29
ENDBRANCH  18  20
ENDBRANCH   1  18
TORSDOF 4
ENDMDL
MODEL 5
REMARK VINA RESULT:      -8.6      1.613      2.385
REMARK  Name = 
REMARK  6 active torsions:
REMARK  status: ('A' for Active; 'I' for Inactive)
REMARK    1  A    between atoms: C_1  and  C_2
REMARK    2  A    between atoms: C_5  and  C_6
REMARK    3  A    between atoms: C_7  and  S_8
REMARK    4  A    between atoms: S_8  and  N_11
REMARK    5  A    between atoms: N_11  and  C_12
REMARK    6  A    between atoms: C_16  and  C_17
REMARK                            x       y       z     vdW  Elec       q    Type
REMARK                         _______ _______ _______ _____ _____    ______ ____
ROOT
ATOM      1  C   UNL     1       2.321   7.296  19.741  0.00  0.00    +0.000 A 
ATOM      2  C   UNL     1       2.695   7.455  18.403  0.00  0.00    +0.000 A 
ATOM      3  C   UNL     1       2.195   8.528  17.658  0.00  0.00    +0.000 A 
ATOM      4  C   UNL     1       1.315   9.439  18.245  0.00  0.00    +0.000 A 
ATOM      5  C   UNL     1       0.960   9.288  19.591  0.00  0.00    +0.000 A 
ATOM      6  C   UNL     1       1.479   8.225  20.346  0.00  0.00    +0.000 A 
ENDROOT
BRANCH   5   7
ATOM      7  C   UNL     1       0.042  10.256  20.247  0.00  0.00    +0.000 C 
ATOM      8  O   UNL     1      -1.125  10.301  19.878  0.00  0.00    +0.000 OA
ATOM      9  N   UNL     1       0.632  11.093  21.171  0.00  0.00    +0.000 N 
ATOM     10  C   UNL     1      -0.056  12.157  21.762  0.00  0.00    +0.000 A 
ATOM     11  C   UNL     1      -1.346  12.014  22.269  0.00  0.00    +0.000 A 
ATOM     12  C   UNL     1      -1.982  13.130  22.812  0.00  0.00    +0.000 A 
ATOM     13  C   UNL     1      -1.322  14.346  22.792  0.00  0.00    +0.000 A 
ATOM     14  F   UNL     1      -1.920  15.451  23.256  0.00  0.00    +0.000 F 
ATOM     15  C   UNL     1      -0.035  14.398  22.286  0.00  0.00    +0.000 A 
ATOM     16  N   UNL     1       0.633  13.317  21.811  0.00  0.00    +0.000 NA
ATOM     17  H   UNL     1       1.621  11.270  21.071  0.00  0.00    +0.000 HD
ENDBRANCH   5   7
BRANCH   1  18
ATOM     18  N   UNL     1       2.731   6.142  20.466  0.00  0.00    +0.000 N 
ATOM     19  H   UNL     1       2.391   6.067  21.425  0.00  0.00    +0.000 HD
BRANCH  18  20
ATOM     20  S   UNL     1       2.662   4.618  19.731  0.00  0.00    +0.000 S 
ATOM     21  O   UNL     1       1.449   4.546  18.943  0.00  0.00    +0.000 OA
ATOM     22  O   UNL     1       2.909   3.668  20.798  0.00  0.00    +0.000 OA
BRANCH  20  29
ATOM     23  C   UNL     1       7.716   5.794  19.068  0.00  0.00    +0.000 C 
ATOM     24  C   UNL     1       6.481   5.165  18.493  0.00  0.00    +0.000 A 
ATOM     25  C   UNL     1       6.509   4.560  17.237  0.00  0.00    +0.000 A 
ATOM     26  C   UNL     1       5.359   3.968  16.711  0.00  0.00    +0.000 A 
ATOM     27  C   UNL     1       4.144   3.968  17.420  0.00  0.00    +0.000 A 
ATOM     28  C   UNL     1       2.969   3.274  16.792  0.00  0.00    +0.000 C 
ATOM     29  C   UNL     1       4.111   4.591  18.682  0.00  0.00    +0.000 A 
ATOM     30  C   UNL     1       5.280   5.174  19.214  0.00  0.00    +0.000 A 
ENDBRANCH  20  29
ENDBRANCH  18  20
ENDBRANCH   1  18
TORSDOF 4
ENDMDL
MODEL 6
REMARK VINA RESULT:      -8.5      4.154     10.290
REMARK  Name = 
REMARK  6 active torsions:
REMARK  status: ('A' for Active; 'I' for Inactive)
REMARK    1  A    between atoms: C_1  and  C_2
REMARK    2  A    between atoms: C_5  and  C_6
REMARK    3  A    between atoms: C_7  and  S_8
REMARK    4  A    between atoms: S_8  and  N_11
REMARK    5  A    between atoms: N_11  and  C_12
REMARK    6  A    between atoms: C_16  and  C_17
REMARK                            x       y       z     vdW  Elec       q    Type
REMARK                         _______ _______ _______ _____ _____    ______ ____
ROOT
ATOM      1  C   UNL     1       0.195  10.267  19.963  0.00  0.00    +0.000 A 
ATOM      2  C   UNL     1       0.058   9.638  21.203  0.00  0.00    +0.000 A 
ATOM      3  C   UNL     1       0.736   8.443  21.463  0.00  0.00    +0.000 A 
ATOM      4  C   UNL     1       1.547   7.871  20.482  0.00  0.00    +0.000 A 
ATOM      5  C   UNL     1       1.700   8.515  19.248  0.00  0.00    +0.000 A 
ATOM      6  C   UNL     1       1.037   9.726  18.994  0.00  0.00    +0.000 A 
ENDROOT
BRANCH   5   7
ATOM      7  C   UNL     1       2.575   7.939  18.193  0.00  0.00    +0.000 C 
ATOM      8  O   UNL     1       2.592   8.471  17.090  0.00  0.00    +0.000 OA
ATOM      9  N   UNL     1       3.232   6.779  18.543  0.00  0.00    +0.000 N 
ATOM     10  C   UNL     1       3.969   6.031  17.620  0.00  0.00    +0.000 A 
ATOM     11  C   UNL     1       4.863   6.624  16.730  0.00  0.00    +0.000 A 
ATOM     12  C   UNL     1       5.536   5.815  15.814  0.00  0.00    +0.000 A 
ATOM     13  C   UNL     1       5.262   4.459  15.798  0.00  0.00    +0.000 A 
ATOM     14  F   UNL     1       5.848   3.658  14.899  0.00  0.00    +0.000 F 
ATOM     15  C   UNL     1       4.373   3.947  16.728  0.00  0.00    +0.000 A 
ATOM     16  N   UNL     1       3.754   4.699  17.673  0.00  0.00    +0.000 NA
ATOM     17  H   UNL     1       2.819   6.213  19.270  0.00  0.00    +0.000 HD
ENDBRANCH   5   7
BRANCH   1  18
ATOM     18  N   UNL     1      -0.586  11.416  19.652  0.00  0.00    +0.000 N 
ATOM     19  H   UNL     1      -0.073  12.287  19.518  0.00  0.00    +0.000 HD
BRANCH  18  20
ATOM     20  S   UNL     1      -1.816  11.310  18.494  0.00  0.00    +0.000 S 
ATOM     21  O   UNL     1      -2.019   9.912  18.171  0.00  0.00    +0.000 OA
ATOM     22  O   UNL     1      -1.453  12.261  17.463  0.00  0.00    +0.000 OA
BRANCH  20  29
ATOM     23  C   UNL     1      -3.787  13.800  22.651  0.00  0.00    +0.000 C 
ATOM     24  C   UNL     1      -4.049  13.180  21.310  0.00  0.00    +0.000 A 
ATOM     25  C   UNL     1      -5.329  13.195  20.757  0.00  0.00    +0.000 A 
ATOM     26  C   UNL     1      -5.566  12.625  19.504  0.00  0.00    +0.000 A 
ATOM     27  C   UNL     1      -4.533  12.017  18.768  0.00  0.00    +0.000 A 
ATOM     28  C   UNL     1      -4.873  11.464  17.414  0.00  0.00    +0.000 C 
ATOM     29  C   UNL     1      -3.243  11.989  19.332  0.00  0.00    +0.000 A 
ATOM     30  C   UNL     1      -3.008  12.579  20.590  0.00  0.00    +0.000 A 
ENDBRANCH  20  29
ENDBRANCH  18  20
ENDBRANCH   1  18
TORSDOF 4
ENDMDL
MODEL 7
REMARK VINA RESULT:      -8.5      1.565      2.425
REMARK  Name = 
REMARK  6 active torsions:
REMARK  status: ('A' for Active; 'I' for Inactive)
REMARK    1  A    between atoms: C_1  and  C_2
REMARK    2  A    between atoms: C_5  and  C_6
REMARK    3  A    between atoms: C_7  and  S_8
REMARK    4  A    between atoms: S_8  and  N_11
REMARK    5  A    between atoms: N_11  and  C_12
REMARK    6  A    between atoms: C_16  and  C_17
REMARK                            x       y       z     vdW  Elec       q    Type
REMARK                         _______ _______ _______ _____ _____    ______ ____
ROOT
ATOM      1  C   UNL     1       2.211   7.400  19.757  0.00  0.00    +0.000 A 
ATOM      2  C   UNL     1       2.594   7.572  18.424  0.00  0.00    +0.000 A 
ATOM      3  C   UNL     1       2.074   8.633  17.676  0.00  0.00    +0.000 A 
ATOM      4  C   UNL     1       1.164   9.519  18.256  0.00  0.00    +0.000 A 
ATOM      5  C   UNL     1       0.799   9.355  19.598  0.00  0.00    +0.000 A 
ATOM      6  C   UNL     1       1.338   8.304  20.356  0.00  0.00    +0.000 A 
ENDROOT
BRANCH   5   7
ATOM      7  C   UNL     1      -0.152  10.296  20.247  0.00  0.00    +0.000 C 
ATOM      8  O   UNL     1      -0.253  10.280  21.467  0.00  0.00    +0.000 OA
ATOM      9  N   UNL     1      -0.911  11.055  19.382  0.00  0.00    +0.000 N 
ATOM     10  C   UNL     1      -1.955  11.873  19.825  0.00  0.00    +0.000 A 
ATOM     11  C   UNL     1      -1.817  12.720  20.923  0.00  0.00    +0.000 A 
ATOM     12  C   UNL     1      -2.915  13.480  21.327  0.00  0.00    +0.000 A 
ATOM     13  C   UNL     1      -4.110  13.335  20.645  0.00  0.00    +0.000 A 
ATOM     14  F   UNL     1      -5.200  14.008  21.036  0.00  0.00    +0.000 F 
ATOM     15  C   UNL     1      -4.157  12.486  19.554  0.00  0.00    +0.000 A 
ATOM     16  N   UNL     1      -3.089  11.784  19.098  0.00  0.00    +0.000 NA
ATOM     17  H   UNL     1      -1.065  10.686  18.454  0.00  0.00    +0.000 HD
ENDBRANCH   5   7
BRANCH   1  18
ATOM     18  N   UNL     1       2.644   6.255  20.484  0.00  0.00    +0.000 N 
ATOM     19  H   UNL     1       2.333   6.191  21.453  0.00  0.00    +0.000 HD
BRANCH  18  20
ATOM     20  S   UNL     1       2.557   4.722  19.770  0.00  0.00    +0.000 S 
ATOM     21  O   UNL     1       1.350   4.659  18.971  0.00  0.00    +0.000 OA
ATOM     22  O   UNL     1       2.777   3.784  20.852  0.00  0.00    +0.000 OA
BRANCH  20  29
ATOM     23  C   UNL     1       7.628   5.834  19.126  0.00  0.00    +0.000 C 
ATOM     24  C   UNL     1       6.392   5.203  18.555  0.00  0.00    +0.000 A 
ATOM     25  C   UNL     1       6.425   4.568  17.314  0.00  0.00    +0.000 A 
ATOM     26  C   UNL     1       5.274   3.974  16.792  0.00  0.00    +0.000 A 
ATOM     27  C   UNL     1       4.053   4.002  17.489  0.00  0.00    +0.000 A 
ATOM     28  C   UNL     1       2.877   3.305  16.867  0.00  0.00    +0.000 C 
ATOM     29  C   UNL     1       4.015   4.656  18.735  0.00  0.00    +0.000 A 
ATOM     30  C   UNL     1       5.184   5.240  19.264  0.00  0.00    +0.000 A 
ENDBRANCH  20  29
ENDBRANCH  18  20
ENDBRANCH   1  18
TORSDOF 4
ENDMDL
MODEL 8
REMARK VINA RESULT:      -8.3      1.992      2.753
REMARK  Name = 
REMARK  6 active torsions:
REMARK  status: ('A' for Active; 'I' for Inactive)
REMARK    1  A    between atoms: C_1  and  C_2
REMARK    2  A    between atoms: C_5  and  C_6
REMARK    3  A    between atoms: C_7  and  S_8
REMARK    4  A    between atoms: S_8  and  N_11
REMARK    5  A    between atoms: N_11  and  C_12
REMARK    6  A    between atoms: C_16  and  C_17
REMARK                            x       y       z     vdW  Elec       q    Type
REMARK                         _______ _______ _______ _____ _____    ______ ____
ROOT
ATOM      1  C   UNL     1       1.953   7.848  20.018  0.00  0.00    +0.000 A 
ATOM      2  C   UNL     1       1.985   8.212  18.669  0.00  0.00    +0.000 A 
ATOM      3  C   UNL     1       1.209   9.281  18.212  0.00  0.00    +0.000 A 
ATOM      4  C   UNL     1       0.394   9.986  19.100  0.00  0.00    +0.000 A 
ATOM      5  C   UNL     1       0.381   9.632  20.455  0.00  0.00    +0.000 A 
ATOM      6  C   UNL     1       1.176   8.572  20.918  0.00  0.00    +0.000 A 
ENDROOT
BRANCH   5   7
ATOM      7  C   UNL     1      -0.461  10.378  21.426  0.00  0.00    +0.000 C 
ATOM      8  O   UNL     1      -0.631   9.903  22.542  0.00  0.00    +0.000 OA
ATOM      9  N   UNL     1      -1.057  11.520  20.934  0.00  0.00    +0.000 N 
ATOM     10  C   UNL     1      -1.997  12.249  21.668  0.00  0.00    +0.000 A 
ATOM     11  C   UNL     1      -1.801  12.569  23.010  0.00  0.00    +0.000 A 
ATOM     12  C   UNL     1      -2.801  13.268  23.686  0.00  0.00    +0.000 A 
ATOM     13  C   UNL     1      -3.965  13.584  23.009  0.00  0.00    +0.000 A 
ATOM     14  F   UNL     1      -4.969  14.209  23.638  0.00  0.00    +0.000 F 
ATOM     15  C   UNL     1      -4.072  13.245  21.671  0.00  0.00    +0.000 A 
ATOM     16  N   UNL     1      -3.091  12.623  20.971  0.00  0.00    +0.000 NA
ATOM     17  H   UNL     1      -1.210  11.570  19.937  0.00  0.00    +0.000 HD
ENDBRANCH   5   7
BRANCH   1  18
ATOM     18  N   UNL     1       2.646   6.687  20.463  0.00  0.00    +0.000 N 
ATOM     19  H   UNL     1       3.171   6.780  21.332  0.00  0.00    +0.000 HD
BRANCH  18  20
ATOM     20  S   UNL     1       1.869   5.183  20.441  0.00  0.00    +0.000 S 
ATOM     21  O   UNL     1       0.441   5.408  20.353  0.00  0.00    +0.000 OA
ATOM     22  O   UNL     1       2.435   4.445  21.553  0.00  0.00    +0.000 OA
BRANCH  20  29
ATOM     23  C   UNL     1       5.313   5.202  16.503  0.00  0.00    +0.000 C 
ATOM     24  C   UNL     1       4.163   4.506  17.171  0.00  0.00    +0.000 A 
ATOM     25  C   UNL     1       3.667   3.306  16.663  0.00  0.00    +0.000 A 
ATOM     26  C   UNL     1       2.603   2.657  17.295  0.00  0.00    +0.000 A 
ATOM     27  C   UNL     1       1.998   3.191  18.447  0.00  0.00    +0.000 A 
ATOM     28  C   UNL     1       0.885   2.405  19.079  0.00  0.00    +0.000 C 
ATOM     29  C   UNL     1       2.489   4.410  18.951  0.00  0.00    +0.000 A 
ATOM     30  C   UNL     1       3.573   5.052  18.318  0.00  0.00    +0.000 A 
ENDBRANCH  20  29
ENDBRANCH  18  20
ENDBRANCH   1  18
TORSDOF 4
ENDMDL
MODEL 9
REMARK VINA RESULT:      -8.3      4.181     10.054
REMARK  Name = 
REMARK  6 active torsions:
REMARK  status: ('A' for Active; 'I' for Inactive)
REMARK    1  A    between atoms: C_1  and  C_2
REMARK    2  A    between atoms: C_5  and  C_6
REMARK    3  A    between atoms: C_7  and  S_8
REMARK    4  A    between atoms: S_8  and  N_11
REMARK    5  A    between atoms: N_11  and  C_12
REMARK    6  A    between atoms: C_16  and  C_17
REMARK                            x       y       z     vdW  Elec       q    Type
REMARK                         _______ _______ _______ _____ _____    ______ ____
ROOT
ATOM      1  C   UNL     1      -0.072  10.755  20.546  0.00  0.00    +0.000 A 
ATOM      2  C   UNL     1      -0.380  10.709  21.909  0.00  0.00    +0.000 A 
ATOM      3  C   UNL     1       0.053   9.634  22.690  0.00  0.00    +0.000 A 
ATOM      4  C   UNL     1       0.788   8.598  22.111  0.00  0.00    +0.000 A 
ATOM      5  C   UNL     1       1.113   8.659  20.750  0.00  0.00    +0.000 A 
ATOM      6  C   UNL     1       0.698   9.749  19.970  0.00  0.00    +0.000 A 
ENDROOT
BRANCH   5   7
ATOM      7  C   UNL     1       1.913   7.580  20.111  0.00  0.00    +0.000 C 
ATOM      8  O   UNL     1       2.412   7.792  19.013  0.00  0.00    +0.000 OA
ATOM      9  N   UNL     1       1.941   6.384  20.797  0.00  0.00    +0.000 N 
ATOM     10  C   UNL     1       2.518   5.229  20.260  0.00  0.00    +0.000 A 
ATOM     11  C   UNL     1       3.763   5.245  19.634  0.00  0.00    +0.000 A 
ATOM     12  C   UNL     1       4.257   4.058  19.092  0.00  0.00    +0.000 A 
ATOM     13  C   UNL     1       3.475   2.919  19.162  0.00  0.00    +0.000 A 
ATOM     14  F   UNL     1       3.891   1.774  18.606  0.00  0.00    +0.000 F 
ATOM     15  C   UNL     1       2.257   2.986  19.816  0.00  0.00    +0.000 A 
ATOM     16  N   UNL     1       1.780   4.108  20.410  0.00  0.00    +0.000 NA
ATOM     17  H   UNL     1       1.171   6.188  21.419  0.00  0.00    +0.000 HD
ENDBRANCH   5   7
BRANCH   1  18
ATOM     18  N   UNL     1      -0.612  11.785  19.725  0.00  0.00    +0.000 N 
ATOM     19  H   UNL     1       0.061  12.423  19.300  0.00  0.00    +0.000 HD
BRANCH  18  20
ATOM     20  S   UNL     1      -1.818  11.415  18.596  0.00  0.00    +0.000 S 
ATOM     21  O   UNL     1      -1.895   9.974  18.466  0.00  0.00    +0.000 OA
ATOM     22  O   UNL     1      -1.532  12.248  17.445  0.00  0.00    +0.000 OA
BRANCH  20  29
ATOM     23  C   UNL     1      -4.050  14.127  22.473  0.00  0.00    +0.000 C 
ATOM     24  C   UNL     1      -4.237  13.377  21.187  0.00  0.00    +0.000 A 
ATOM     25  C   UNL     1      -5.501  13.263  20.608  0.00  0.00    +0.000 A 
ATOM     26  C   UNL     1      -5.668  12.573  19.405  0.00  0.00    +0.000 A 
ATOM     27  C   UNL     1      -4.580  11.970  18.748  0.00  0.00    +0.000 A 
ATOM     28  C   UNL     1      -4.849  11.281  17.441  0.00  0.00    +0.000 C 
ATOM     29  C   UNL     1      -3.307  12.072  19.339  0.00  0.00    +0.000 A 
ATOM     30  C   UNL     1      -3.143  12.784  20.546  0.00  0.00    +0.000 A 
ENDBRANCH  20  29
ENDBRANCH  18  20
ENDBRANCH   1  18
TORSDOF 4
ENDMDL
