MODEL 1
REMARK VINA RESULT:      -9.0      0.000      0.000
REMARK  Name = 
REMARK  4 active torsions:
REMARK  status: ('A' for Active; 'I' for Inactive)
REMARK    1  A    between atoms: C_1  and  C_2
REMARK    2  A    between atoms: C_4  and  C_5
REMARK    3  A    between atoms: C_9  and  N_10
REMARK    4  A    between atoms: N_13  and  C_14
REMARK                            x       y       z     vdW  Elec       q    Type
REMARK                         _______ _______ _______ _____ _____    ______ ____
ROOT
ATOM      1  N   UNL     1       7.226   7.995  17.138  0.00  0.00    +0.000 N 
ATOM      2  C   UNL     1       8.125   8.303  18.144  0.00  0.00    +0.000 C 
ATOM      3  O   UNL     1       8.624   7.512  18.937  0.00  0.00    +0.000 OA
ATOM      4  N   UNL     1       8.421   9.650  18.210  0.00  0.00    +0.000 N 
ATOM      5  H   UNL     1       6.948   8.743  16.517  0.00  0.00    +0.000 HD
ATOM      6  H   UNL     1       8.419  10.130  17.326  0.00  0.00    +0.000 HD
ENDROOT
BRANCH   4   7
ATOM      7  C   UNL     1       9.421  10.095  19.171  0.00  0.00    +0.000 C 
ATOM      8  C   UNL     1       8.829  10.747  20.450  0.00  0.00    +0.000 C 
ATOM      9  C   UNL     1       9.990  11.544  21.049  0.00  0.00    +0.000 C 
ATOM     10  C   UNL     1      10.525  12.126  19.779  0.00  0.00    +0.000 A 
ATOM     11  C   UNL     1      11.091  13.373  19.593  0.00  0.00    +0.000 A 
ATOM     12  C   UNL     1      11.384  13.751  18.287  0.00  0.00    +0.000 A 
ATOM     13  F   UNL     1      11.808  14.999  18.049  0.00  0.00    +0.000 F 
ATOM     14  C   UNL     1      11.201  12.875  17.210  0.00  0.00    +0.000 A 
ATOM     15  C   UNL     1      10.654  11.604  17.412  0.00  0.00    +0.000 A 
ATOM     16  C   UNL     1      10.255  11.265  18.695  0.00  0.00    +0.000 A 
ENDBRANCH   4   7
BRANCH   1  21
ATOM     17  C   UNL     1       4.790   5.147  17.251  0.00  0.00    +0.000 A 
ATOM     18  C   UNL     1       5.486   4.180  16.512  0.00  0.00    +0.000 A 
ATOM     19  C   UNL     1       6.736   4.463  15.976  0.00  0.00    +0.000 A 
ATOM     20  C   UNL     1       7.301   5.720  16.173  0.00  0.00    +0.000 A 
ATOM     21  C   UNL     1       6.649   6.711  16.906  0.00  0.00    +0.000 A 
ATOM     22  C   UNL     1       5.383   6.414  17.452  0.00  0.00    +0.000 A 
BRANCH  17  26
ATOM     23  C   UNL     1       0.941   2.486  18.781  0.00  0.00    +0.000 C 
ATOM     24  C   UNL     1       1.880   3.562  18.407  0.00  0.00    +0.000 A 
ATOM     25  N   UNL     1       3.114   3.468  17.958  0.00  0.00    +0.000 NA
ATOM     26  C   UNL     1       3.474   4.785  17.772  0.00  0.00    +0.000 A 
ATOM     27  N   UNL     1       2.505   5.663  18.095  0.00  0.00    +0.000 NA
ATOM     28  O   UNL     1       1.450   4.842  18.513  0.00  0.00    +0.000 OA
ENDBRANCH  17  26
ENDBRANCH   1  21
TORSDOF 3
ENDMDL
MODEL 2
REMARK VINA RESULT:      -9.0      3.754     10.004
REMARK  Name = 
REMARK  4 active torsions:
REMARK  status: ('A' for Active; 'I' for Inactive)
REMARK    1  A    between atoms: C_1  and  C_2
REMARK    2  A    between atoms: C_4  and  C_5
REMARK    3  A    between atoms: C_9  and  N_10
REMARK    4  A    between atoms: N_13  and  C_14
REMARK                            x       y       z     vdW  Elec       q    Type
REMARK                         _______ _______ _______ _____ _____    ______ ____
ROOT
ATOM      1  N   UNL     1       7.972   9.206  17.598  0.00  0.00    +0.000 N 
ATOM      2  C   UNL     1       7.849   7.843  17.801  0.00  0.00    +0.000 C 
ATOM      3  O   UNL     1       8.333   7.202  18.728  0.00  0.00    +0.000 OA
ATOM      4  N   UNL     1       7.116   7.213  16.814  0.00  0.00    +0.000 N 
ATOM      5  H   UNL     1       7.463   9.609  16.823  0.00  0.00    +0.000 HD
ATOM      6  H   UNL     1       6.377   7.766  16.416  0.00  0.00    +0.000 HD
ENDROOT
BRANCH   4   7
ATOM      7  C   UNL     1       6.840   5.790  16.956  0.00  0.00    +0.000 C 
ATOM      8  C   UNL     1       6.792   5.014  15.611  0.00  0.00    +0.000 C 
ATOM      9  C   UNL     1       6.037   3.723  15.939  0.00  0.00    +0.000 C 
ATOM     10  C   UNL     1       4.964   4.318  16.796  0.00  0.00    +0.000 A 
ATOM     11  C   UNL     1       3.643   3.921  16.893  0.00  0.00    +0.000 A 
ATOM     12  C   UNL     1       2.793   4.720  17.650  0.00  0.00    +0.000 A 
ATOM     13  F   UNL     1       1.482   4.449  17.661  0.00  0.00    +0.000 F 
ATOM     14  C   UNL     1       3.267   5.829  18.361  0.00  0.00    +0.000 A 
ATOM     15  C   UNL     1       4.612   6.205  18.280  0.00  0.00    +0.000 A 
ATOM     16  C   UNL     1       5.439   5.480  17.438  0.00  0.00    +0.000 A 
ENDBRANCH   4   7
BRANCH   1  21
ATOM     17  C   UNL     1      10.232  12.056  18.506  0.00  0.00    +0.000 A 
ATOM     18  C   UNL     1      10.374  11.847  19.885  0.00  0.00    +0.000 A 
ATOM     19  C   UNL     1       9.728  10.788  20.510  0.00  0.00    +0.000 A 
ATOM     20  C   UNL     1       8.931   9.927  19.760  0.00  0.00    +0.000 A 
ATOM     21  C   UNL     1       8.765  10.093  18.385  0.00  0.00    +0.000 A 
ATOM     22  C   UNL     1       9.429  11.167  17.757  0.00  0.00    +0.000 A 
BRANCH  17  26
ATOM     23  C   UNL     1      11.288  16.640  17.053  0.00  0.00    +0.000 C 
ATOM     24  C   UNL     1      11.291  15.192  17.337  0.00  0.00    +0.000 A 
ATOM     25  N   UNL     1      10.400  14.470  17.985  0.00  0.00    +0.000 NA
ATOM     26  C   UNL     1      10.927  13.199  17.918  0.00  0.00    +0.000 A 
ATOM     27  N   UNL     1      12.100  13.132  17.258  0.00  0.00    +0.000 NA
ATOM     28  O   UNL     1      12.332  14.459  16.874  0.00  0.00    +0.000 OA
ENDBRANCH  17  26
ENDBRANCH   1  21
TORSDOF 3
ENDMDL
MODEL 3
REMARK VINA RESULT:      -8.9      1.079      1.214
REMARK  Name = 
REMARK  4 active torsions:
REMARK  status: ('A' for Active; 'I' for Inactive)
REMARK    1  A    between atoms: C_1  and  C_2
REMARK    2  A    between atoms: C_4  and  C_5
REMARK    3  A    between atoms: C_9  and  N_10
REMARK    4  A    between atoms: N_13  and  C_14
REMARK                            x       y       z     vdW  Elec       q    Type
REMARK                         _______ _______ _______ _____ _____    ______ ____
ROOT
ATOM      1  N   UNL     1       7.230   7.939  17.199  0.00  0.00    +0.000 N 
ATOM      2  C   UNL     1       8.146   8.267  18.182  0.00  0.00    +0.000 C 
ATOM      3  O   UNL     1       8.673   7.488  18.970  0.00  0.00    +0.000 OA
ATOM      4  N   UNL     1       8.427   9.618  18.231  0.00  0.00    +0.000 N 
ATOM      5  H   UNL     1       6.929   8.678  16.579  0.00  0.00    +0.000 HD
ATOM      6  H   UNL     1       8.399  10.090  17.344  0.00  0.00    +0.000 HD
ENDROOT
BRANCH   4   7
ATOM      7  C   UNL     1       9.441  10.083  19.167  0.00  0.00    +0.000 C 
ATOM      8  C   UNL     1       8.868  10.730  20.458  0.00  0.00    +0.000 C 
ATOM      9  C   UNL     1      10.030  11.549  21.026  0.00  0.00    +0.000 C 
ATOM     10  C   UNL     1      10.524  12.136  19.741  0.00  0.00    +0.000 A 
ATOM     11  C   UNL     1      11.064  13.392  19.538  0.00  0.00    +0.000 A 
ATOM     12  C   UNL     1      11.319  13.770  18.225  0.00  0.00    +0.000 A 
ATOM     13  F   UNL     1      11.716  15.023  17.972  0.00  0.00    +0.000 F 
ATOM     14  C   UNL     1      11.125  12.887  17.154  0.00  0.00    +0.000 A 
ATOM     15  C   UNL     1      10.605  11.607  17.374  0.00  0.00    +0.000 A 
ATOM     16  C   UNL     1      10.244  11.266  18.667  0.00  0.00    +0.000 A 
ENDBRANCH   4   7
BRANCH   1  21
ATOM     17  C   UNL     1       5.256   4.809  17.804  0.00  0.00    +0.000 A 
ATOM     18  C   UNL     1       5.557   4.083  16.643  0.00  0.00    +0.000 A 
ATOM     19  C   UNL     1       6.392   4.619  15.670  0.00  0.00    +0.000 A 
ATOM     20  C   UNL     1       6.932   5.890  15.849  0.00  0.00    +0.000 A 
ATOM     21  C   UNL     1       6.664   6.646  16.990  0.00  0.00    +0.000 A 
ATOM     22  C   UNL     1       5.821   6.093  17.976  0.00  0.00    +0.000 A 
BRANCH  17  26
ATOM     23  C   UNL     1       1.265   3.823  20.512  0.00  0.00    +0.000 C 
ATOM     24  C   UNL     1       2.602   3.844  19.888  0.00  0.00    +0.000 A 
ATOM     25  N   UNL     1       3.056   4.616  18.923  0.00  0.00    +0.000 NA
ATOM     26  C   UNL     1       4.359   4.190  18.778  0.00  0.00    +0.000 A 
ATOM     27  N   UNL     1       4.701   3.194  19.616  0.00  0.00    +0.000 NA
ATOM     28  O   UNL     1       3.530   2.972  20.351  0.00  0.00    +0.000 OA
ENDBRANCH  17  26
ENDBRANCH   1  21
TORSDOF 3
ENDMDL
MODEL 4
REMARK VINA RESULT:      -8.8      2.942      3.974
REMARK  Name = 
REMARK  4 active torsions:
REMARK  status: ('A' for Active; 'I' for Inactive)
REMARK    1  A    between atoms: C_1  and  C_2
REMARK    2  A    between atoms: C_4  and  C_5
REMARK    3  A    between atoms: C_9  and  N_10
REMARK    4  A    between atoms: N_13  and  C_14
REMARK                            x       y       z     vdW  Elec       q    Type
REMARK                         _______ _______ _______ _____ _____    ______ ____
ROOT
ATOM      1  N   UNL     1       8.421   7.704  18.868  0.00  0.00    +0.000 N 
ATOM      2  C   UNL     1       8.387   8.978  18.332  0.00  0.00    +0.000 C 
ATOM      3  O   UNL     1       7.668   9.359  17.413  0.00  0.00    +0.000 OA
ATOM      4  N   UNL     1       9.291   9.839  18.924  0.00  0.00    +0.000 N 
ATOM      5  H   UNL     1       9.020   7.552  19.668  0.00  0.00    +0.000 HD
ATOM      6  H   UNL     1       9.459   9.671  19.901  0.00  0.00    +0.000 HD
ENDROOT
BRANCH   4   7
ATOM      7  C   UNL     1       9.296  11.234  18.507  0.00  0.00    +0.000 C 
ATOM      8  C   UNL     1      10.590  11.674  17.770  0.00  0.00    +0.000 C 
ATOM      9  C   UNL     1      10.588  13.202  17.868  0.00  0.00    +0.000 C 
ATOM     10  C   UNL     1      10.154  13.322  19.295  0.00  0.00    +0.000 A 
ATOM     11  C   UNL     1      10.545  14.272  20.220  0.00  0.00    +0.000 A 
ATOM     12  C   UNL     1      10.118  14.095  21.532  0.00  0.00    +0.000 A 
ATOM     13  F   UNL     1      10.582  14.914  22.484  0.00  0.00    +0.000 F 
ATOM     14  C   UNL     1       9.254  13.052  21.890  0.00  0.00    +0.000 A 
ATOM     15  C   UNL     1       8.841  12.113  20.939  0.00  0.00    +0.000 A 
ATOM     16  C   UNL     1       9.353  12.219  19.656  0.00  0.00    +0.000 A 
ENDBRANCH   4   7
BRANCH   1  21
ATOM     17  C   UNL     1       6.934   5.220  16.486  0.00  0.00    +0.000 A 
ATOM     18  C   UNL     1       6.224   4.400  17.374  0.00  0.00    +0.000 A 
ATOM     19  C   UNL     1       6.240   4.656  18.739  0.00  0.00    +0.000 A 
ATOM     20  C   UNL     1       6.971   5.734  19.230  0.00  0.00    +0.000 A 
ATOM     21  C   UNL     1       7.688   6.580  18.383  0.00  0.00    +0.000 A 
ATOM     22  C   UNL     1       7.661   6.318  16.998  0.00  0.00    +0.000 A 
BRANCH  17  26
ATOM     23  C   UNL     1       5.659   3.105  12.227  0.00  0.00    +0.000 C 
ATOM     24  C   UNL     1       6.270   3.922  13.293  0.00  0.00    +0.000 A 
ATOM     25  N   UNL     1       5.988   3.956  14.579  0.00  0.00    +0.000 NA
ATOM     26  C   UNL     1       6.885   4.883  15.064  0.00  0.00    +0.000 A 
ATOM     27  N   UNL     1       7.690   5.406  14.120  0.00  0.00    +0.000 NA
ATOM     28  O   UNL     1       7.277   4.761  12.948  0.00  0.00    +0.000 OA
ENDBRANCH  17  26
ENDBRANCH   1  21
TORSDOF 3
ENDMDL
MODEL 5
REMARK VINA RESULT:      -8.7      3.876      9.899
REMARK  Name = 
REMARK  4 active torsions:
REMARK  status: ('A' for Active; 'I' for Inactive)
REMARK    1  A    between atoms: C_1  and  C_2
REMARK    2  A    between atoms: C_4  and  C_5
REMARK    3  A    between atoms: C_9  and  N_10
REMARK    4  A    between atoms: N_13  and  C_14
REMARK                            x       y       z     vdW  Elec       q    Type
REMARK                         _______ _______ _______ _____ _____    ______ ____
ROOT
ATOM      1  N   UNL     1       7.759   9.277  17.434  0.00  0.00    +0.000 N 
ATOM      2  C   UNL     1       7.698   7.913  17.655  0.00  0.00    +0.000 C 
ATOM      3  O   UNL     1       8.230   7.304  18.578  0.00  0.00    +0.000 OA
ATOM      4  N   UNL     1       6.970   7.241  16.693  0.00  0.00    +0.000 N 
ATOM      5  H   UNL     1       7.215   9.649  16.666  0.00  0.00    +0.000 HD
ATOM      6  H   UNL     1       6.199   7.758  16.306  0.00  0.00    +0.000 HD
ENDROOT
BRANCH   4   7
ATOM      7  C   UNL     1       6.758   5.810  16.857  0.00  0.00    +0.000 C 
ATOM      8  C   UNL     1       6.718   5.015  15.523  0.00  0.00    +0.000 C 
ATOM      9  C   UNL     1       6.025   3.697  15.881  0.00  0.00    +0.000 C 
ATOM     10  C   UNL     1       4.943   4.257  16.751  0.00  0.00    +0.000 A 
ATOM     11  C   UNL     1       3.643   3.806  16.878  0.00  0.00    +0.000 A 
ATOM     12  C   UNL     1       2.774   4.578  17.641  0.00  0.00    +0.000 A 
ATOM     13  F   UNL     1       1.476   4.252  17.681  0.00  0.00    +0.000 F 
ATOM     14  C   UNL     1       3.213   5.716  18.330  0.00  0.00    +0.000 A 
ATOM     15  C   UNL     1       4.539   6.147  18.218  0.00  0.00    +0.000 A 
ATOM     16  C   UNL     1       5.380   5.447  17.369  0.00  0.00    +0.000 A 
ENDBRANCH   4   7
BRANCH   1  21
ATOM     17  C   UNL     1       9.389  12.488  18.479  0.00  0.00    +0.000 A 
ATOM     18  C   UNL     1      10.076  12.069  19.627  0.00  0.00    +0.000 A 
ATOM     19  C   UNL     1       9.997  10.751  20.058  0.00  0.00    +0.000 A 
ATOM     20  C   UNL     1       9.227   9.837  19.343  0.00  0.00    +0.000 A 
ATOM     21  C   UNL     1       8.532  10.207  18.191  0.00  0.00    +0.000 A 
ATOM     22  C   UNL     1       8.622  11.546  17.757  0.00  0.00    +0.000 A 
BRANCH  17  26
ATOM     23  C   UNL     1      11.293  16.808  17.083  0.00  0.00    +0.000 C 
ATOM     24  C   UNL     1      10.412  15.698  17.494  0.00  0.00    +0.000 A 
ATOM     25  N   UNL     1      10.720  14.442  17.746  0.00  0.00    +0.000 NA
ATOM     26  C   UNL     1       9.505  13.893  18.093  0.00  0.00    +0.000 A 
ATOM     27  N   UNL     1       8.482  14.769  18.057  0.00  0.00    +0.000 NA
ATOM     28  O   UNL     1       9.094  15.964  17.660  0.00  0.00    +0.000 OA
ENDBRANCH  17  26
ENDBRANCH   1  21
TORSDOF 3
ENDMDL
MODEL 6
REMARK VINA RESULT:      -8.4      6.527      8.835
REMARK  Name = 
REMARK  4 active torsions:
REMARK  status: ('A' for Active; 'I' for Inactive)
REMARK    1  A    between atoms: C_1  and  C_2
REMARK    2  A    between atoms: C_4  and  C_5
REMARK    3  A    between atoms: C_9  and  N_10
REMARK    4  A    between atoms: N_13  and  C_14
REMARK                            x       y       z     vdW  Elec       q    Type
REMARK                         _______ _______ _______ _____ _____    ______ ____
ROOT
ATOM      1  N   UNL     1       2.349   6.878  18.270  0.00  0.00    +0.000 N 
ATOM      2  C   UNL     1       2.213   8.254  18.247  0.00  0.00    +0.000 C 
ATOM      3  O   UNL     1       3.117   9.070  18.097  0.00  0.00    +0.000 OA
ATOM      4  N   UNL     1       0.910   8.672  18.438  0.00  0.00    +0.000 N 
ATOM      5  H   UNL     1       1.503   6.328  18.337  0.00  0.00    +0.000 HD
ATOM      6  H   UNL     1       0.208   8.056  18.066  0.00  0.00    +0.000 HD
ENDROOT
BRANCH   4   7
ATOM      7  C   UNL     1       0.619  10.096  18.351  0.00  0.00    +0.000 C 
ATOM      8  C   UNL     1       0.717  10.851  19.705  0.00  0.00    +0.000 C 
ATOM      9  C   UNL     1      -0.071  12.144  19.484  0.00  0.00    +0.000 C 
ATOM     10  C   UNL     1      -1.231  11.560  18.741  0.00  0.00    +0.000 A 
ATOM     11  C   UNL     1      -2.555  11.953  18.796  0.00  0.00    +0.000 A 
ATOM     12  C   UNL     1      -3.482  11.164  18.125  0.00  0.00    +0.000 A 
ATOM     13  F   UNL     1      -4.787  11.430  18.262  0.00  0.00    +0.000 F 
ATOM     14  C   UNL     1      -3.088  10.067  17.347  0.00  0.00    +0.000 A 
ATOM     15  C   UNL     1      -1.742   9.695  17.274  0.00  0.00    +0.000 A 
ATOM     16  C   UNL     1      -0.828  10.409  18.031  0.00  0.00    +0.000 A 
ENDBRANCH   4   7
BRANCH   1  21
ATOM     17  C   UNL     1       5.456   5.297  16.888  0.00  0.00    +0.000 A 
ATOM     18  C   UNL     1       6.000   4.734  18.050  0.00  0.00    +0.000 A 
ATOM     19  C   UNL     1       5.360   4.880  19.274  0.00  0.00    +0.000 A 
ATOM     20  C   UNL     1       4.166   5.593  19.347  0.00  0.00    +0.000 A 
ATOM     21  C   UNL     1       3.584   6.165  18.216  0.00  0.00    +0.000 A 
ATOM     22  C   UNL     1       4.237   6.009  16.977  0.00  0.00    +0.000 A 
BRANCH  17  26
ATOM     23  C   UNL     1       6.712   3.748  12.387  0.00  0.00    +0.000 C 
ATOM     24  C   UNL     1       6.643   4.399  13.710  0.00  0.00    +0.000 A 
ATOM     25  N   UNL     1       5.703   4.318  14.628  0.00  0.00    +0.000 NA
ATOM     26  C   UNL     1       6.191   5.118  15.638  0.00  0.00    +0.000 A 
ATOM     27  N   UNL     1       7.384   5.677  15.359  0.00  0.00    +0.000 NA
ATOM     28  O   UNL     1       7.678   5.193  14.078  0.00  0.00    +0.000 OA
ENDBRANCH  17  26
ENDBRANCH   1  21
TORSDOF 3
ENDMDL
MODEL 7
REMARK VINA RESULT:      -8.4      7.255     10.099
REMARK  Name = 
REMARK  4 active torsions:
REMARK  status: ('A' for Active; 'I' for Inactive)
REMARK    1  A    between atoms: C_1  and  C_2
REMARK    2  A    between atoms: C_4  and  C_5
REMARK    3  A    between atoms: C_9  and  N_10
REMARK    4  A    between atoms: N_13  and  C_14
REMARK                            x       y       z     vdW  Elec       q    Type
REMARK                         _______ _______ _______ _____ _____    ______ ____
ROOT
ATOM      1  N   UNL     1       0.868   9.544  17.765  0.00  0.00    +0.000 N 
ATOM      2  C   UNL     1       1.785   8.713  18.383  0.00  0.00    +0.000 C 
ATOM      3  O   UNL     1       1.881   8.509  19.589  0.00  0.00    +0.000 OA
ATOM      4  N   UNL     1       2.652   8.108  17.494  0.00  0.00    +0.000 N 
ATOM      5  H   UNL     1       0.865   9.564  16.754  0.00  0.00    +0.000 HD
ATOM      6  H   UNL     1       2.258   7.898  16.593  0.00  0.00    +0.000 HD
ENDROOT
BRANCH   4   7
ATOM      7  C   UNL     1       3.611   7.141  18.009  0.00  0.00    +0.000 C 
ATOM      8  C   UNL     1       4.859   6.938  17.106  0.00  0.00    +0.000 C 
ATOM      9  C   UNL     1       5.446   5.598  17.557  0.00  0.00    +0.000 C 
ATOM     10  C   UNL     1       4.164   4.838  17.686  0.00  0.00    +0.000 A 
ATOM     11  C   UNL     1       3.944   3.501  17.415  0.00  0.00    +0.000 A 
ATOM     12  C   UNL     1       2.630   3.048  17.470  0.00  0.00    +0.000 A 
ATOM     13  F   UNL     1       2.355   1.796  17.086  0.00  0.00    +0.000 F 
ATOM     14  C   UNL     1       1.581   3.885  17.872  0.00  0.00    +0.000 A 
ATOM     15  C   UNL     1       1.819   5.230  18.172  0.00  0.00    +0.000 A 
ATOM     16  C   UNL     1       3.107   5.714  18.009  0.00  0.00    +0.000 A 
ENDBRANCH   4   7
BRANCH   1  21
ATOM     17  C   UNL     1      -2.322  11.355  18.542  0.00  0.00    +0.000 A 
ATOM     18  C   UNL     1      -1.945  12.066  19.689  0.00  0.00    +0.000 A 
ATOM     19  C   UNL     1      -0.661  11.945  20.207  0.00  0.00    +0.000 A 
ATOM     20  C   UNL     1       0.258  11.108  19.580  0.00  0.00    +0.000 A 
ATOM     21  C   UNL     1      -0.070  10.386  18.433  0.00  0.00    +0.000 A 
ATOM     22  C   UNL     1      -1.373  10.519  17.910  0.00  0.00    +0.000 A 
BRANCH  17  26
ATOM     23  C   UNL     1      -7.195  12.049  18.470  0.00  0.00    +0.000 C 
ATOM     24  C   UNL     1      -5.776  11.823  18.133  0.00  0.00    +0.000 A 
ATOM     25  N   UNL     1      -4.732  11.765  18.933  0.00  0.00    +0.000 NA
ATOM     26  C   UNL     1      -3.693  11.518  18.062  0.00  0.00    +0.000 A 
ATOM     27  N   UNL     1      -4.074  11.428  16.773  0.00  0.00    +0.000 NA
ATOM     28  O   UNL     1      -5.459  11.630  16.830  0.00  0.00    +0.000 OA
ENDBRANCH  17  26
ENDBRANCH   1  21
TORSDOF 3
ENDMDL
MODEL 8
REMARK VINA RESULT:      -8.4      6.410      8.530
REMARK  Name = 
REMARK  4 active torsions:
REMARK  status: ('A' for Active; 'I' for Inactive)
REMARK    1  A    between atoms: C_1  and  C_2
REMARK    2  A    between atoms: C_4  and  C_5
REMARK    3  A    between atoms: C_9  and  N_10
REMARK    4  A    between atoms: N_13  and  C_14
REMARK                            x       y       z     vdW  Elec       q    Type
REMARK                         _______ _______ _______ _____ _____    ______ ____
ROOT
ATOM      1  N   UNL     1       2.266   6.950  18.905  0.00  0.00    +0.000 N 
ATOM      2  C   UNL     1       2.118   8.220  18.378  0.00  0.00    +0.000 C 
ATOM      3  O   UNL     1       2.454   8.582  17.255  0.00  0.00    +0.000 OA
ATOM      4  N   UNL     1       1.551   9.112  19.267  0.00  0.00    +0.000 N 
ATOM      5  H   UNL     1       1.882   6.780  19.825  0.00  0.00    +0.000 HD
ATOM      6  H   UNL     1       0.880   8.711  19.901  0.00  0.00    +0.000 HD
ENDROOT
BRANCH   4   7
ATOM      7  C   UNL     1       1.263  10.463  18.806  0.00  0.00    +0.000 C 
ATOM      8  C   UNL     1       1.331  11.544  19.919  0.00  0.00    +0.000 C 
ATOM      9  C   UNL     1       0.549  12.731  19.351  0.00  0.00    +0.000 C 
ATOM     10  C   UNL     1      -0.594  11.968  18.760  0.00  0.00    +0.000 A 
ATOM     11  C   UNL     1      -1.919  12.356  18.681  0.00  0.00    +0.000 A 
ATOM     12  C   UNL     1      -2.830  11.414  18.217  0.00  0.00    +0.000 A 
ATOM     13  F   UNL     1      -4.138  11.701  18.251  0.00  0.00    +0.000 F 
ATOM     14  C   UNL     1      -2.420  10.155  17.761  0.00  0.00    +0.000 A 
ATOM     15  C   UNL     1      -1.072   9.784  17.817  0.00  0.00    +0.000 A 
ATOM     16  C   UNL     1      -0.176  10.675  18.384  0.00  0.00    +0.000 A 
ENDBRANCH   4   7
BRANCH   1  21
ATOM     17  C   UNL     1       4.680   5.053  16.753  0.00  0.00    +0.000 A 
ATOM     18  C   UNL     1       4.226   3.741  16.947  0.00  0.00    +0.000 A 
ATOM     19  C   UNL     1       3.146   3.482  17.781  0.00  0.00    +0.000 A 
ATOM     20  C   UNL     1       2.510   4.535  18.433  0.00  0.00    +0.000 A 
ATOM     21  C   UNL     1       2.923   5.857  18.265  0.00  0.00    +0.000 A 
ATOM     22  C   UNL     1       4.016   6.112  17.412  0.00  0.00    +0.000 A 
BRANCH  17  26
ATOM     23  C   UNL     1       7.606   4.956  12.795  0.00  0.00    +0.000 C 
ATOM     24  C   UNL     1       7.008   5.160  14.129  0.00  0.00    +0.000 A 
ATOM     25  N   UNL     1       5.810   4.827  14.562  0.00  0.00    +0.000 NA
ATOM     26  C   UNL     1       5.830   5.250  15.874  0.00  0.00    +0.000 A 
ATOM     27  N   UNL     1       6.992   5.824  16.242  0.00  0.00    +0.000 NA
ATOM     28  O   UNL     1       7.769   5.758  15.078  0.00  0.00    +0.000 OA
ENDBRANCH  17  26
ENDBRANCH   1  21
TORSDOF 3
ENDMDL
MODEL 9
REMARK VINA RESULT:      -8.4      6.198      8.198
REMARK  Name = 
REMARK  4 active torsions:
REMARK  status: ('A' for Active; 'I' for Inactive)
REMARK    1  A    between atoms: C_1  and  C_2
REMARK    2  A    between atoms: C_4  and  C_5
REMARK    3  A    between atoms: C_9  and  N_10
REMARK    4  A    between atoms: N_13  and  C_14
REMARK                            x       y       z     vdW  Elec       q    Type
REMARK                         _______ _______ _______ _____ _____    ______ ____
ROOT
ATOM      1  N   UNL     1       2.978   6.684  19.285  0.00  0.00    +0.000 N 
ATOM      2  C   UNL     1       2.103   7.633  18.789  0.00  0.00    +0.000 C 
ATOM      3  O   UNL     1       1.608   7.646  17.666  0.00  0.00    +0.000 OA
ATOM      4  N   UNL     1       1.824   8.638  19.695  0.00  0.00    +0.000 N 
ATOM      5  H   UNL     1       3.253   6.767  20.255  0.00  0.00    +0.000 HD
ATOM      6  H   UNL     1       1.816   8.351  20.658  0.00  0.00    +0.000 HD
ENDROOT
BRANCH   4   7
ATOM      7  C   UNL     1       0.849   9.654  19.325  0.00  0.00    +0.000 C 
ATOM      8  C   UNL     1       1.473  10.962  18.764  0.00  0.00    +0.000 C 
ATOM      9  C   UNL     1       0.365  12.009  18.908  0.00  0.00    +0.000 C 
ATOM     10  C   UNL     1      -0.110  11.628  20.275  0.00  0.00    +0.000 A 
ATOM     11  C   UNL     1      -0.581  12.464  21.269  0.00  0.00    +0.000 A 
ATOM     12  C   UNL     1      -0.830  11.896  22.513  0.00  0.00    +0.000 A 
ATOM     13  F   UNL     1      -1.158  12.690  23.540  0.00  0.00    +0.000 F 
ATOM     14  C   UNL     1      -0.698  10.518  22.732  0.00  0.00    +0.000 A 
ATOM     15  C   UNL     1      -0.249   9.676  21.709  0.00  0.00    +0.000 A 
ATOM     16  C   UNL     1       0.109  10.253  20.502  0.00  0.00    +0.000 A 
ENDBRANCH   4   7
BRANCH   1  21
ATOM     17  C   UNL     1       5.041   4.817  16.772  0.00  0.00    +0.000 A 
ATOM     18  C   UNL     1       4.630   3.501  17.024  0.00  0.00    +0.000 A 
ATOM     19  C   UNL     1       3.694   3.229  18.014  0.00  0.00    +0.000 A 
ATOM     20  C   UNL     1       3.160   4.274  18.763  0.00  0.00    +0.000 A 
ATOM     21  C   UNL     1       3.535   5.600  18.543  0.00  0.00    +0.000 A 
ATOM     22  C   UNL     1       4.481   5.868  17.534  0.00  0.00    +0.000 A 
BRANCH  17  26
ATOM     23  C   UNL     1       7.416   4.594  12.466  0.00  0.00    +0.000 C 
ATOM     24  C   UNL     1       6.982   4.872  13.849  0.00  0.00    +0.000 A 
ATOM     25  N   UNL     1       5.890   4.481  14.471  0.00  0.00    +0.000 NA
ATOM     26  C   UNL     1       6.041   5.028  15.727  0.00  0.00    +0.000 A 
ATOM     27  N   UNL     1       7.178   5.733  15.880  0.00  0.00    +0.000 NA
ATOM     28  O   UNL     1       7.798   5.622  14.629  0.00  0.00    +0.000 OA
ENDBRANCH  17  26
ENDBRANCH   1  21
TORSDOF 3
ENDMDL
