MODEL 1
REMARK VINA RESULT:      -8.3      0.000      0.000
REMARK  Name = 
REMARK  6 active torsions:
REMARK  status: ('A' for Active; 'I' for Inactive)
REMARK    1  A    between atoms: C_2  and  C_18
REMARK    2  A    between atoms: N_3  and  CA_4
REMARK    3  A    between atoms: CA_4  and  CB_5
REMARK    4  A    between atoms: CA_4  and  C_15
REMARK    5  A    between atoms: CB_5  and  CG_6
REMARK    6  A    between atoms: C_15  and  OXT_17
REMARK                            x       y       z     vdW  Elec       q    Type
REMARK                         _______ _______ _______ _____ _____    ______ ____
ROOT
ATOM      1  CA  TRP A   1       2.828   3.591  17.269  0.00  0.00    +0.000 C 
ENDROOT
BRANCH   1   4
ATOM      2  O   UNK A   0       3.148   4.472  19.999  0.00  0.00    +0.000 OA
ATOM      3  C   UNK A   0       2.643   5.219  19.169  0.00  0.00    +0.000 C 
ATOM      4  N   TRP A   1       2.463   4.878  17.853  0.00  0.00    +0.000 N 
ATOM      5  H   TRP A   1       2.147   5.582  17.190  0.00  0.00    +0.000 HD
BRANCH   3   6
ATOM      6  C   UNK A   0       2.223   6.603  19.520  0.00  0.00    +0.000 A 
ATOM      7  C   UNK A   0       1.683   6.907  20.793  0.00  0.00    +0.000 A 
ATOM      8  C   UNK A   0       1.150   8.172  21.055  0.00  0.00    +0.000 A 
ATOM      9  C   UNK A   0       1.180   9.096  20.034  0.00  0.00    +0.000 A 
ATOM     10  C   UNK A   0       1.755   8.817  18.815  0.00  0.00    +0.000 A 
ATOM     11  C   UNK A   0       2.308   7.587  18.530  0.00  0.00    +0.000 A 
ATOM     12  O   UNK A   0       1.667   9.864  17.950  0.00  0.00    +0.000 OA
ATOM     13  C   UNK A   0       0.889  10.793  18.732  0.00  0.00    +0.000 C 
ATOM     14  O   UNK A   0       0.651  10.347  20.083  0.00  0.00    +0.000 OA
ENDBRANCH   3   6
ENDBRANCH   1   4
BRANCH   1  15
ATOM     15  C   TRP A   1       2.215   2.529  18.202  0.00  0.00    +0.000 C 
ATOM     16  O   TRP A   1       1.006   2.333  18.297  0.00  0.00    +0.000 OA
BRANCH  15  17
ATOM     17  OXT TRP A   1       3.105   1.764  18.872  0.00  0.00    +0.000 OA
ATOM     18  HXT TRP A   1       3.799   1.362  18.319  0.00  0.00    +0.000 HD
ENDBRANCH  15  17
ENDBRANCH   1  15
BRANCH   1  19
ATOM     19  CB  TRP A   1       4.346   3.404  17.065  0.00  0.00    +0.000 C 
BRANCH  19  20
ATOM     20  CG  TRP A   1       5.064   4.688  16.784  0.00  0.00    +0.000 A 
ATOM     21  CD1 TRP A   1       5.025   5.404  15.604  0.00  0.00    +0.000 A 
ATOM     22  NE1 TRP A   1       5.950   6.410  15.687  0.00  0.00    +0.000 N 
ATOM     23  CE2 TRP A   1       6.598   6.362  16.898  0.00  0.00    +0.000 A 
ATOM     24  CZ2 TRP A   1       7.673   7.117  17.378  0.00  0.00    +0.000 A 
ATOM     25  CH2 TRP A   1       8.138   6.837  18.667  0.00  0.00    +0.000 A 
ATOM     26  CZ3 TRP A   1       7.509   5.886  19.464  0.00  0.00    +0.000 A 
ATOM     27  CE3 TRP A   1       6.421   5.156  18.975  0.00  0.00    +0.000 A 
ATOM     28  CD2 TRP A   1       5.990   5.356  17.647  0.00  0.00    +0.000 A 
ATOM     29  HE1 TRP A   1       6.169   7.063  14.947  0.00  0.00    +0.000 HD
ENDBRANCH  19  20
ENDBRANCH   1  19
TORSDOF 6
ENDMDL
MODEL 2
REMARK VINA RESULT:      -8.1      2.316      3.540
REMARK  Name = 
REMARK  6 active torsions:
REMARK  status: ('A' for Active; 'I' for Inactive)
REMARK    1  A    between atoms: C_2  and  C_18
REMARK    2  A    between atoms: N_3  and  CA_4
REMARK    3  A    between atoms: CA_4  and  CB_5
REMARK    4  A    between atoms: CA_4  and  C_15
REMARK    5  A    between atoms: CB_5  and  CG_6
REMARK    6  A    between atoms: C_15  and  OXT_17
REMARK                            x       y       z     vdW  Elec       q    Type
REMARK                         _______ _______ _______ _____ _____    ______ ____
ROOT
ATOM      1  CA  TRP A   1       2.074   5.323  20.005  0.00  0.00    +0.000 C 
ENDROOT
BRANCH   1   4
ATOM      2  O   UNK A   0       2.063   8.046  19.046  0.00  0.00    +0.000 OA
ATOM      3  C   UNK A   0       1.595   7.782  20.147  0.00  0.00    +0.000 C 
ATOM      4  N   TRP A   1       1.556   6.514  20.670  0.00  0.00    +0.000 N 
ATOM      5  H   TRP A   1       1.049   6.343  21.536  0.00  0.00    +0.000 HD
BRANCH   3   6
ATOM      6  C   UNK A   0       0.970   8.830  20.999  0.00  0.00    +0.000 A 
ATOM      7  C   UNK A   0       0.954   8.716  22.411  0.00  0.00    +0.000 A 
ATOM      8  C   UNK A   0       0.231   9.625  23.188  0.00  0.00    +0.000 A 
ATOM      9  C   UNK A   0      -0.450  10.623  22.527  0.00  0.00    +0.000 A 
ATOM     10  C   UNK A   0      -0.388  10.766  21.159  0.00  0.00    +0.000 A 
ATOM     11  C   UNK A   0       0.332   9.901  20.365  0.00  0.00    +0.000 A 
ATOM     12  O   UNK A   0      -1.140  11.809  20.714  0.00  0.00    +0.000 OA
ATOM     13  C   UNK A   0      -1.754  12.242  21.945  0.00  0.00    +0.000 C 
ATOM     14  O   UNK A   0      -1.255  11.551  23.109  0.00  0.00    +0.000 OA
ENDBRANCH   3   6
ENDBRANCH   1   4
BRANCH   1  15
ATOM     15  C   TRP A   1       1.624   4.137  20.880  0.00  0.00    +0.000 C 
ATOM     16  O   TRP A   1       2.209   3.795  21.904  0.00  0.00    +0.000 OA
BRANCH  15  17
ATOM     17  OXT TRP A   1       0.486   3.525  20.484  0.00  0.00    +0.000 OA
ATOM     18  HXT TRP A   1       0.579   2.578  20.280  0.00  0.00    +0.000 HD
ENDBRANCH  15  17
ENDBRANCH   1  15
BRANCH   1  19
ATOM     19  CB  TRP A   1       3.598   5.350  19.769  0.00  0.00    +0.000 C 
BRANCH  19  20
ATOM     20  CG  TRP A   1       4.024   4.532  18.588  0.00  0.00    +0.000 A 
ATOM     21  CD1 TRP A   1       4.120   3.155  18.541  0.00  0.00    +0.000 A 
ATOM     22  NE1 TRP A   1       4.712   2.811  17.355  0.00  0.00    +0.000 N 
ATOM     23  CE2 TRP A   1       5.009   3.939  16.628  0.00  0.00    +0.000 A 
ATOM     24  CZ2 TRP A   1       5.699   4.078  15.418  0.00  0.00    +0.000 A 
ATOM     25  CH2 TRP A   1       5.862   5.371  14.910  0.00  0.00    +0.000 A 
ATOM     26  CZ3 TRP A   1       5.301   6.469  15.554  0.00  0.00    +0.000 A 
ATOM     27  CE3 TRP A   1       4.597   6.308  16.751  0.00  0.00    +0.000 A 
ATOM     28  CD2 TRP A   1       4.494   5.027  17.330  0.00  0.00    +0.000 A 
ATOM     29  HE1 TRP A   1       4.948   1.870  17.073  0.00  0.00    +0.000 HD
ENDBRANCH  19  20
ENDBRANCH   1  19
TORSDOF 6
ENDMDL
MODEL 3
REMARK VINA RESULT:      -8.0      1.062      1.229
REMARK  Name = 
REMARK  6 active torsions:
REMARK  status: ('A' for Active; 'I' for Inactive)
REMARK    1  A    between atoms: C_2  and  C_18
REMARK    2  A    between atoms: N_3  and  CA_4
REMARK    3  A    between atoms: CA_4  and  CB_5
REMARK    4  A    between atoms: CA_4  and  C_15
REMARK    5  A    between atoms: CB_5  and  CG_6
REMARK    6  A    between atoms: C_15  and  OXT_17
REMARK                            x       y       z     vdW  Elec       q    Type
REMARK                         _______ _______ _______ _____ _____    ______ ____
ROOT
ATOM      1  CA  TRP A   1       3.631   3.175  18.531  0.00  0.00    +0.000 C 
ENDROOT
BRANCH   1   4
ATOM      2  O   UNK A   0       1.424   4.786  17.602  0.00  0.00    +0.000 OA
ATOM      3  C   UNK A   0       2.187   5.225  18.454  0.00  0.00    +0.000 C 
ATOM      4  N   TRP A   1       3.253   4.520  18.952  0.00  0.00    +0.000 N 
ATOM      5  H   TRP A   1       3.778   4.893  19.741  0.00  0.00    +0.000 HD
BRANCH   3   6
ATOM      6  C   UNK A   0       1.982   6.566  19.067  0.00  0.00    +0.000 A 
ATOM      7  C   UNK A   0       1.622   6.704  20.430  0.00  0.00    +0.000 A 
ATOM      8  C   UNK A   0       1.281   7.955  20.950  0.00  0.00    +0.000 A 
ATOM      9  C   UNK A   0       1.315   9.031  20.091  0.00  0.00    +0.000 A 
ATOM     10  C   UNK A   0       1.718   8.904  18.780  0.00  0.00    +0.000 A 
ATOM     11  C   UNK A   0       2.080   7.690  18.240  0.00  0.00    +0.000 A 
ATOM     12  O   UNK A   0       1.668  10.086  18.108  0.00  0.00    +0.000 OA
ATOM     13  C   UNK A   0       1.099  10.945  19.117  0.00  0.00    +0.000 C 
ATOM     14  O   UNK A   0       0.953  10.303  20.401  0.00  0.00    +0.000 OA
ENDBRANCH   3   6
ENDBRANCH   1   4
BRANCH   1  15
ATOM     15  C   TRP A   1       4.017   2.434  19.826  0.00  0.00    +0.000 C 
ATOM     16  O   TRP A   1       3.390   2.541  20.876  0.00  0.00    +0.000 OA
BRANCH  15  17
ATOM     17  OXT TRP A   1       5.066   1.589  19.718  0.00  0.00    +0.000 OA
ATOM     18  HXT TRP A   1       5.909   1.935  20.064  0.00  0.00    +0.000 HD
ENDBRANCH  15  17
ENDBRANCH   1  15
BRANCH   1  19
ATOM     19  CB  TRP A   1       4.748   3.142  17.467  0.00  0.00    +0.000 C 
BRANCH  19  20
ATOM     20  CG  TRP A   1       5.236   4.505  17.084  0.00  0.00    +0.000 A 
ATOM     21  CD1 TRP A   1       4.934   5.183  15.919  0.00  0.00    +0.000 A 
ATOM     22  NE1 TRP A   1       5.715   6.307  15.868  0.00  0.00    +0.000 N 
ATOM     23  CE2 TRP A   1       6.525   6.373  16.976  0.00  0.00    +0.000 A 
ATOM     24  CZ2 TRP A   1       7.544   7.278  17.297  0.00  0.00    +0.000 A 
ATOM     25  CH2 TRP A   1       8.217   7.093  18.508  0.00  0.00    +0.000 A 
ATOM     26  CZ3 TRP A   1       7.842   6.082  19.389  0.00  0.00    +0.000 A 
ATOM     27  CE3 TRP A   1       6.808   5.201  19.060  0.00  0.00    +0.000 A 
ATOM     28  CD2 TRP A   1       6.172   5.312  17.806  0.00  0.00    +0.000 A 
ATOM     29  HE1 TRP A   1       5.736   6.967  15.103  0.00  0.00    +0.000 HD
ENDBRANCH  19  20
ENDBRANCH   1  19
TORSDOF 6
ENDMDL
MODEL 4
REMARK VINA RESULT:      -7.9      2.265      4.292
REMARK  Name = 
REMARK  6 active torsions:
REMARK  status: ('A' for Active; 'I' for Inactive)
REMARK    1  A    between atoms: C_2  and  C_18
REMARK    2  A    between atoms: N_3  and  CA_4
REMARK    3  A    between atoms: CA_4  and  CB_5
REMARK    4  A    between atoms: CA_4  and  C_15
REMARK    5  A    between atoms: CB_5  and  CG_6
REMARK    6  A    between atoms: C_15  and  OXT_17
REMARK                            x       y       z     vdW  Elec       q    Type
REMARK                         _______ _______ _______ _____ _____    ______ ____
ROOT
ATOM      1  CA  TRP A   1       5.035   4.831  16.925  0.00  0.00    +0.000 C 
ENDROOT
BRANCH   1   4
ATOM      2  O   UNK A   0       4.545   5.879  19.569  0.00  0.00    +0.000 OA
ATOM      3  C   UNK A   0       3.870   6.265  18.622  0.00  0.00    +0.000 C 
ATOM      4  N   TRP A   1       4.045   5.822  17.336  0.00  0.00    +0.000 N 
ATOM      5  H   TRP A   1       3.534   6.267  16.577  0.00  0.00    +0.000 HD
BRANCH   3   6
ATOM      6  C   UNK A   0       2.820   7.307  18.787  0.00  0.00    +0.000 A 
ATOM      7  C   UNK A   0       2.569   8.265  17.775  0.00  0.00    +0.000 A 
ATOM      8  C   UNK A   0       1.692   9.328  18.005  0.00  0.00    +0.000 A 
ATOM      9  C   UNK A   0       1.090   9.397  19.242  0.00  0.00    +0.000 A 
ATOM     10  C   UNK A   0       1.293   8.435  20.206  0.00  0.00    +0.000 A 
ATOM     11  C   UNK A   0       2.133   7.363  20.004  0.00  0.00    +0.000 A 
ATOM     12  O   UNK A   0       0.610   8.702  21.352  0.00  0.00    +0.000 OA
ATOM     13  C   UNK A   0       0.036   9.985  21.032  0.00  0.00    +0.000 C 
ATOM     14  O   UNK A   0       0.266  10.391  19.666  0.00  0.00    +0.000 OA
ENDBRANCH   3   6
ENDBRANCH   1   4
BRANCH   1  15
ATOM     15  C   TRP A   1       5.372   5.172  15.460  0.00  0.00    +0.000 C 
ATOM     16  O   TRP A   1       5.517   4.321  14.587  0.00  0.00    +0.000 OA
BRANCH  15  17
ATOM     17  OXT TRP A   1       5.432   6.491  15.172  0.00  0.00    +0.000 OA
ATOM     18  HXT TRP A   1       5.669   6.699  14.251  0.00  0.00    +0.000 HD
ENDBRANCH  15  17
ENDBRANCH   1  15
BRANCH   1  19
ATOM     19  CB  TRP A   1       4.574   3.370  17.110  0.00  0.00    +0.000 C 
BRANCH  19  20
ATOM     20  CG  TRP A   1       3.200   3.257  17.697  0.00  0.00    +0.000 A 
ATOM     21  CD1 TRP A   1       2.011   3.518  17.045  0.00  0.00    +0.000 A 
ATOM     22  NE1 TRP A   1       1.002   3.475  17.970  0.00  0.00    +0.000 N 
ATOM     23  CE2 TRP A   1       1.511   3.196  19.216  0.00  0.00    +0.000 A 
ATOM     24  CZ2 TRP A   1       0.877   3.154  20.462  0.00  0.00    +0.000 A 
ATOM     25  CH2 TRP A   1       1.661   2.846  21.579  0.00  0.00    +0.000 A 
ATOM     26  CZ3 TRP A   1       3.009   2.532  21.442  0.00  0.00    +0.000 A 
ATOM     27  CE3 TRP A   1       3.621   2.559  20.185  0.00  0.00    +0.000 A 
ATOM     28  CD2 TRP A   1       2.874   2.952  19.056  0.00  0.00    +0.000 A 
ATOM     29  HE1 TRP A   1       0.030   3.672  17.781  0.00  0.00    +0.000 HD
ENDBRANCH  19  20
ENDBRANCH   1  19
TORSDOF 6
ENDMDL
MODEL 5
REMARK VINA RESULT:      -7.9      3.787      6.345
REMARK  Name = 
REMARK  6 active torsions:
REMARK  status: ('A' for Active; 'I' for Inactive)
REMARK    1  A    between atoms: C_2  and  C_18
REMARK    2  A    between atoms: N_3  and  CA_4
REMARK    3  A    between atoms: CA_4  and  CB_5
REMARK    4  A    between atoms: CA_4  and  C_15
REMARK    5  A    between atoms: CB_5  and  CG_6
REMARK    6  A    between atoms: C_15  and  OXT_17
REMARK                            x       y       z     vdW  Elec       q    Type
REMARK                         _______ _______ _______ _____ _____    ______ ____
ROOT
ATOM      1  CA  TRP A   1       6.272   6.157  17.079  0.00  0.00    +0.000 C 
ENDROOT
BRANCH   1   4
ATOM      2  O   UNK A   0       8.354   6.853  18.953  0.00  0.00    +0.000 OA
ATOM      3  C   UNK A   0       7.872   7.712  18.225  0.00  0.00    +0.000 C 
ATOM      4  N   TRP A   1       6.886   7.461  17.305  0.00  0.00    +0.000 N 
ATOM      5  H   TRP A   1       6.612   8.190  16.650  0.00  0.00    +0.000 HD
BRANCH   3   6
ATOM      6  C   UNK A   0       8.365   9.117  18.246  0.00  0.00    +0.000 A 
ATOM      7  C   UNK A   0       9.386   9.524  19.139  0.00  0.00    +0.000 A 
ATOM      8  C   UNK A   0       9.729  10.873  19.257  0.00  0.00    +0.000 A 
ATOM      9  C   UNK A   0       9.041  11.774  18.474  0.00  0.00    +0.000 A 
ATOM     10  C   UNK A   0       8.087  11.370  17.567  0.00  0.00    +0.000 A 
ATOM     11  C   UNK A   0       7.739  10.047  17.409  0.00  0.00    +0.000 A 
ATOM     12  O   UNK A   0       7.527  12.420  16.906  0.00  0.00    +0.000 OA
ATOM     13  C   UNK A   0       8.168  13.528  17.569  0.00  0.00    +0.000 C 
ATOM     14  O   UNK A   0       9.191  13.124  18.502  0.00  0.00    +0.000 OA
ENDBRANCH   3   6
ENDBRANCH   1   4
BRANCH   1  15
ATOM     15  C   TRP A   1       7.292   5.364  16.238  0.00  0.00    +0.000 C 
ATOM     16  O   TRP A   1       7.968   4.444  16.688  0.00  0.00    +0.000 OA
BRANCH  15  17
ATOM     17  OXT TRP A   1       7.352   5.704  14.931  0.00  0.00    +0.000 OA
ATOM     18  HXT TRP A   1       7.153   4.981  14.309  0.00  0.00    +0.000 HD
ENDBRANCH  15  17
ENDBRANCH   1  15
BRANCH   1  19
ATOM     19  CB  TRP A   1       4.878   6.225  16.422  0.00  0.00    +0.000 C 
BRANCH  19  20
ATOM     20  CG  TRP A   1       3.758   6.043  17.400  0.00  0.00    +0.000 A 
ATOM     21  CD1 TRP A   1       3.260   7.004  18.257  0.00  0.00    +0.000 A 
ATOM     22  NE1 TRP A   1       2.374   6.397  19.107  0.00  0.00    +0.000 N 
ATOM     23  CE2 TRP A   1       2.288   5.054  18.824  0.00  0.00    +0.000 A 
ATOM     24  CZ2 TRP A   1       1.597   4.034  19.486  0.00  0.00    +0.000 A 
ATOM     25  CH2 TRP A   1       1.701   2.739  18.969  0.00  0.00    +0.000 A 
ATOM     26  CZ3 TRP A   1       2.416   2.489  17.801  0.00  0.00    +0.000 A 
ATOM     27  CE3 TRP A   1       3.083   3.526  17.142  0.00  0.00    +0.000 A 
ATOM     28  CD2 TRP A   1       3.066   4.824  17.691  0.00  0.00    +0.000 A 
ATOM     29  HE1 TRP A   1       1.891   6.852  19.868  0.00  0.00    +0.000 HD
ENDBRANCH  19  20
ENDBRANCH   1  19
TORSDOF 6
ENDMDL
MODEL 6
REMARK VINA RESULT:      -7.9      2.338      4.491
REMARK  Name = 
REMARK  6 active torsions:
REMARK  status: ('A' for Active; 'I' for Inactive)
REMARK    1  A    between atoms: C_2  and  C_18
REMARK    2  A    between atoms: N_3  and  CA_4
REMARK    3  A    between atoms: CA_4  and  CB_5
REMARK    4  A    between atoms: CA_4  and  C_15
REMARK    5  A    between atoms: CB_5  and  CG_6
REMARK    6  A    between atoms: C_15  and  OXT_17
REMARK                            x       y       z     vdW  Elec       q    Type
REMARK                         _______ _______ _______ _____ _____    ______ ____
ROOT
ATOM      1  CA  TRP A   1       5.614   5.019  18.518  0.00  0.00    +0.000 C 
ENDROOT
BRANCH   1   4
ATOM      2  O   UNK A   0       4.212   6.738  16.670  0.00  0.00    +0.000 OA
ATOM      3  C   UNK A   0       3.929   6.758  17.862  0.00  0.00    +0.000 C 
ATOM      4  N   TRP A   1       4.543   5.968  18.801  0.00  0.00    +0.000 N 
ATOM      5  H   TRP A   1       4.183   5.947  19.753  0.00  0.00    +0.000 HD
BRANCH   3   6
ATOM      6  C   UNK A   0       2.837   7.622  18.389  0.00  0.00    +0.000 A 
ATOM      7  C   UNK A   0       2.366   8.739  17.657  0.00  0.00    +0.000 A 
ATOM      8  C   UNK A   0       1.454   9.629  18.229  0.00  0.00    +0.000 A 
ATOM      9  C   UNK A   0       1.038   9.371  19.516  0.00  0.00    +0.000 A 
ATOM     10  C   UNK A   0       1.454   8.255  20.206  0.00  0.00    +0.000 A 
ATOM     11  C   UNK A   0       2.336   7.346  19.665  0.00  0.00    +0.000 A 
ATOM     12  O   UNK A   0       0.930   8.199  21.461  0.00  0.00    +0.000 OA
ATOM     13  C   UNK A   0       0.218   9.451  21.511  0.00  0.00    +0.000 C 
ATOM     14  O   UNK A   0       0.211  10.158  20.253  0.00  0.00    +0.000 OA
ENDBRANCH   3   6
ENDBRANCH   1   4
BRANCH   1  15
ATOM     15  C   TRP A   1       6.656   5.809  17.702  0.00  0.00    +0.000 C 
ATOM     16  O   TRP A   1       7.366   6.686  18.185  0.00  0.00    +0.000 OA
BRANCH  15  17
ATOM     17  OXT TRP A   1       6.794   5.425  16.414  0.00  0.00    +0.000 OA
ATOM     18  HXT TRP A   1       6.147   4.763  16.111  0.00  0.00    +0.000 HD
ENDBRANCH  15  17
ENDBRANCH   1  15
BRANCH   1  19
ATOM     19  CB  TRP A   1       5.142   3.735  17.804  0.00  0.00    +0.000 C 
BRANCH  19  20
ATOM     20  CG  TRP A   1       3.688   3.445  18.018  0.00  0.00    +0.000 A 
ATOM     21  CD1 TRP A   1       2.686   3.556  17.075  0.00  0.00    +0.000 A 
ATOM     22  NE1 TRP A   1       1.485   3.379  17.708  0.00  0.00    +0.000 N 
ATOM     23  CE2 TRP A   1       1.684   3.158  19.051  0.00  0.00    +0.000 A 
ATOM     24  CZ2 TRP A   1       0.758   3.027  20.091  0.00  0.00    +0.000 A 
ATOM     25  CH2 TRP A   1       1.257   2.815  21.380  0.00  0.00    +0.000 A 
ATOM     26  CZ3 TRP A   1       2.623   2.676  21.605  0.00  0.00    +0.000 A 
ATOM     27  CE3 TRP A   1       3.532   2.789  20.549  0.00  0.00    +0.000 A 
ATOM     28  CD2 TRP A   1       3.061   3.091  19.255  0.00  0.00    +0.000 A 
ATOM     29  HE1 TRP A   1       0.578   3.452  17.269  0.00  0.00    +0.000 HD
ENDBRANCH  19  20
ENDBRANCH   1  19
TORSDOF 6
ENDMDL
MODEL 7
REMARK VINA RESULT:      -7.8      1.686      2.825
REMARK  Name = 
REMARK  6 active torsions:
REMARK  status: ('A' for Active; 'I' for Inactive)
REMARK    1  A    between atoms: C_2  and  C_18
REMARK    2  A    between atoms: N_3  and  CA_4
REMARK    3  A    between atoms: CA_4  and  CB_5
REMARK    4  A    between atoms: CA_4  and  C_15
REMARK    5  A    between atoms: CB_5  and  CG_6
REMARK    6  A    between atoms: C_15  and  OXT_17
REMARK                            x       y       z     vdW  Elec       q    Type
REMARK                         _______ _______ _______ _____ _____    ______ ____
ROOT
ATOM      1  CA  TRP A   1       3.187   4.267  17.747  0.00  0.00    +0.000 C 
ENDROOT
BRANCH   1   4
ATOM      2  O   UNK A   0       3.929   7.026  17.333  0.00  0.00    +0.000 OA
ATOM      3  C   UNK A   0       2.972   6.748  18.045  0.00  0.00    +0.000 C 
ATOM      4  N   TRP A   1       2.552   5.464  18.285  0.00  0.00    +0.000 N 
ATOM      5  H   TRP A   1       1.681   5.306  18.788  0.00  0.00    +0.000 HD
BRANCH   3   6
ATOM      6  C   UNK A   0       2.138   7.808  18.677  0.00  0.00    +0.000 A 
ATOM      7  C   UNK A   0       1.750   8.964  17.958  0.00  0.00    +0.000 A 
ATOM      8  C   UNK A   0       1.104  10.020  18.606  0.00  0.00    +0.000 A 
ATOM      9  C   UNK A   0       0.862   9.882  19.955  0.00  0.00    +0.000 A 
ATOM     10  C   UNK A   0       1.190   8.735  20.641  0.00  0.00    +0.000 A 
ATOM     11  C   UNK A   0       1.809   7.667  20.029  0.00  0.00    +0.000 A 
ATOM     12  O   UNK A   0       0.872   8.815  21.962  0.00  0.00    +0.000 OA
ATOM     13  C   UNK A   0       0.397  10.174  22.043  0.00  0.00    +0.000 C 
ATOM     14  O   UNK A   0       0.307  10.827  20.760  0.00  0.00    +0.000 OA
ENDBRANCH   3   6
ENDBRANCH   1   4
BRANCH   1  15
ATOM     15  C   TRP A   1       2.104   3.172  17.792  0.00  0.00    +0.000 C 
ATOM     16  O   TRP A   1       0.904   3.414  17.890  0.00  0.00    +0.000 OA
BRANCH  15  17
ATOM     17  OXT TRP A   1       2.554   1.906  17.645  0.00  0.00    +0.000 OA
ATOM     18  HXT TRP A   1       1.943   1.215  17.957  0.00  0.00    +0.000 HD
ENDBRANCH  15  17
ENDBRANCH   1  15
BRANCH   1  19
ATOM     19  CB  TRP A   1       4.482   3.859  18.481  0.00  0.00    +0.000 C 
BRANCH  19  20
ATOM     20  CG  TRP A   1       5.725   4.281  17.759  0.00  0.00    +0.000 A 
ATOM     21  CD1 TRP A   1       6.823   4.902  18.320  0.00  0.00    +0.000 A 
ATOM     22  NE1 TRP A   1       7.660   5.283  17.305  0.00  0.00    +0.000 N 
ATOM     23  CE2 TRP A   1       7.126   4.926  16.090  0.00  0.00    +0.000 A 
ATOM     24  CZ2 TRP A   1       7.573   5.197  14.792  0.00  0.00    +0.000 A 
ATOM     25  CH2 TRP A   1       6.809   4.708  13.728  0.00  0.00    +0.000 A 
ATOM     26  CZ3 TRP A   1       5.680   3.927  13.956  0.00  0.00    +0.000 A 
ATOM     27  CE3 TRP A   1       5.260   3.650  15.260  0.00  0.00    +0.000 A 
ATOM     28  CD2 TRP A   1       5.963   4.204  16.350  0.00  0.00    +0.000 A 
ATOM     29  HE1 TRP A   1       8.520   5.799  17.422  0.00  0.00    +0.000 HD
ENDBRANCH  19  20
ENDBRANCH   1  19
TORSDOF 6
ENDMDL
MODEL 8
REMARK VINA RESULT:      -7.7      0.690      1.559
REMARK  Name = 
REMARK  6 active torsions:
REMARK  status: ('A' for Active; 'I' for Inactive)
REMARK    1  A    between atoms: C_2  and  C_18
REMARK    2  A    between atoms: N_3  and  CA_4
REMARK    3  A    between atoms: CA_4  and  CB_5
REMARK    4  A    between atoms: CA_4  and  C_15
REMARK    5  A    between atoms: CB_5  and  CG_6
REMARK    6  A    between atoms: C_15  and  OXT_17
REMARK                            x       y       z     vdW  Elec       q    Type
REMARK                         _______ _______ _______ _____ _____    ______ ____
ROOT
ATOM      1  CA  TRP A   1       3.078   3.360  17.152  0.00  0.00    +0.000 C 
ENDROOT
BRANCH   1   4
ATOM      2  O   UNK A   0       3.420   4.519  19.774  0.00  0.00    +0.000 OA
ATOM      3  C   UNK A   0       2.779   5.117  18.918  0.00  0.00    +0.000 C 
ATOM      4  N   TRP A   1       2.577   4.638  17.648  0.00  0.00    +0.000 N 
ATOM      5  H   TRP A   1       2.138   5.233  16.950  0.00  0.00    +0.000 HD
BRANCH   3   6
ATOM      6  C   UNK A   0       2.199   6.464  19.178  0.00  0.00    +0.000 A 
ATOM      7  C   UNK A   0       2.182   7.462  18.174  0.00  0.00    +0.000 A 
ATOM      8  C   UNK A   0       1.779   8.765  18.476  0.00  0.00    +0.000 A 
ATOM      9  C   UNK A   0       1.403   9.028  19.775  0.00  0.00    +0.000 A 
ATOM     10  C   UNK A   0       1.368   8.043  20.736  0.00  0.00    +0.000 A 
ATOM     11  C   UNK A   0       1.738   6.744  20.467  0.00  0.00    +0.000 A 
ATOM     12  O   UNK A   0       0.977   8.520  21.949  0.00  0.00    +0.000 OA
ATOM     13  C   UNK A   0       0.864   9.929  21.661  0.00  0.00    +0.000 C 
ATOM     14  O   UNK A   0       1.049  10.245  20.265  0.00  0.00    +0.000 OA
ENDBRANCH   3   6
ENDBRANCH   1   4
BRANCH   1  15
ATOM     15  C   TRP A   1       2.521   2.298  18.120  0.00  0.00    +0.000 C 
ATOM     16  O   TRP A   1       3.230   1.609  18.847  0.00  0.00    +0.000 OA
BRANCH  15  17
ATOM     17  OXT TRP A   1       1.173   2.214  18.172  0.00  0.00    +0.000 OA
ATOM     18  HXT TRP A   1       0.794   1.419  17.756  0.00  0.00    +0.000 HD
ENDBRANCH  15  17
ENDBRANCH   1  15
BRANCH   1  19
ATOM     19  CB  TRP A   1       4.614   3.299  17.016  0.00  0.00    +0.000 C 
BRANCH  19  20
ATOM     20  CG  TRP A   1       5.234   4.636  16.748  0.00  0.00    +0.000 A 
ATOM     21  CD1 TRP A   1       5.124   5.366  15.581  0.00  0.00    +0.000 A 
ATOM     22  NE1 TRP A   1       5.977   6.435  15.668  0.00  0.00    +0.000 N 
ATOM     23  CE2 TRP A   1       6.645   6.413  16.869  0.00  0.00    +0.000 A 
ATOM     24  CZ2 TRP A   1       7.671   7.235  17.347  0.00  0.00    +0.000 A 
ATOM     25  CH2 TRP A   1       8.174   6.969  18.624  0.00  0.00    +0.000 A 
ATOM     26  CZ3 TRP A   1       7.627   5.961  19.413  0.00  0.00    +0.000 A 
ATOM     27  CE3 TRP A   1       6.588   5.163  18.926  0.00  0.00    +0.000 A 
ATOM     28  CD2 TRP A   1       6.122   5.355  17.609  0.00  0.00    +0.000 A 
ATOM     29  HE1 TRP A   1       6.136   7.114  14.937  0.00  0.00    +0.000 HD
ENDBRANCH  19  20
ENDBRANCH   1  19
TORSDOF 6
ENDMDL
MODEL 9
REMARK VINA RESULT:      -7.7      1.558      2.519
REMARK  Name = 
REMARK  6 active torsions:
REMARK  status: ('A' for Active; 'I' for Inactive)
REMARK    1  A    between atoms: C_2  and  C_18
REMARK    2  A    between atoms: N_3  and  CA_4
REMARK    3  A    between atoms: CA_4  and  CB_5
REMARK    4  A    between atoms: CA_4  and  C_15
REMARK    5  A    between atoms: CB_5  and  CG_6
REMARK    6  A    between atoms: C_15  and  OXT_17
REMARK                            x       y       z     vdW  Elec       q    Type
REMARK                         _______ _______ _______ _____ _____    ______ ____
ROOT
ATOM      1  CA  TRP A   1       2.949   4.711  18.566  0.00  0.00    +0.000 C 
ENDROOT
BRANCH   1   4
ATOM      2  O   UNK A   0       3.396   7.445  17.753  0.00  0.00    +0.000 OA
ATOM      3  C   UNK A   0       2.609   7.195  18.658  0.00  0.00    +0.000 C 
ATOM      4  N   TRP A   1       2.337   5.924  19.097  0.00  0.00    +0.000 N 
ATOM      5  H   TRP A   1       1.588   5.774  19.770  0.00  0.00    +0.000 HD
BRANCH   3   6
ATOM      6  C   UNK A   0       1.831   8.270  19.332  0.00  0.00    +0.000 A 
ATOM      7  C   UNK A   0       1.475   8.173  20.700  0.00  0.00    +0.000 A 
ATOM      8  C   UNK A   0       0.615   9.110  21.277  0.00  0.00    +0.000 A 
ATOM      9  C   UNK A   0       0.140  10.118  20.468  0.00  0.00    +0.000 A 
ATOM     10  C   UNK A   0       0.530  10.243  19.154  0.00  0.00    +0.000 A 
ATOM     11  C   UNK A   0       1.393   9.349  18.558  0.00  0.00    +0.000 A 
ATOM     12  O   UNK A   0      -0.064  11.301  18.537  0.00  0.00    +0.000 OA
ATOM     13  C   UNK A   0      -0.941  11.765  19.584  0.00  0.00    +0.000 C 
ATOM     14  O   UNK A   0      -0.753  11.074  20.837  0.00  0.00    +0.000 OA
ENDBRANCH   3   6
ENDBRANCH   1   4
BRANCH   1  15
ATOM     15  C   TRP A   1       1.839   3.644  18.597  0.00  0.00    +0.000 C 
ATOM     16  O   TRP A   1       0.969   3.600  19.462  0.00  0.00    +0.000 OA
BRANCH  15  17
ATOM     17  OXT TRP A   1       1.837   2.780  17.557  0.00  0.00    +0.000 OA
ATOM     18  HXT TRP A   1       2.443   3.012  16.830  0.00  0.00    +0.000 HD
ENDBRANCH  15  17
ENDBRANCH   1  15
BRANCH   1  19
ATOM     19  CB  TRP A   1       4.224   4.271  19.316  0.00  0.00    +0.000 C 
BRANCH  19  20
ATOM     20  CG  TRP A   1       5.486   4.682  18.620  0.00  0.00    +0.000 A 
ATOM     21  CD1 TRP A   1       6.526   5.402  19.175  0.00  0.00    +0.000 A 
ATOM     22  NE1 TRP A   1       7.400   5.726  18.172  0.00  0.00    +0.000 N 
ATOM     23  CE2 TRP A   1       6.948   5.235  16.970  0.00  0.00    +0.000 A 
ATOM     24  CZ2 TRP A   1       7.454   5.405  15.677  0.00  0.00    +0.000 A 
ATOM     25  CH2 TRP A   1       6.769   4.785  14.626  0.00  0.00    +0.000 A 
ATOM     26  CZ3 TRP A   1       5.663   3.978  14.870  0.00  0.00    +0.000 A 
ATOM     27  CE3 TRP A   1       5.184   3.803  16.172  0.00  0.00    +0.000 A 
ATOM     28  CD2 TRP A   1       5.803   4.487  17.239  0.00  0.00    +0.000 A 
ATOM     29  HE1 TRP A   1       8.231   6.290  18.283  0.00  0.00    +0.000 HD
ENDBRANCH  19  20
ENDBRANCH   1  19
TORSDOF 6
ENDMDL
