MODEL 1
REMARK VINA RESULT:      -8.6      0.000      0.000
REMARK  Name = 
REMARK  6 active torsions:
REMARK  status: ('A' for Active; 'I' for Inactive)
REMARK    1  A    between atoms: C_1  and  C_2
REMARK    2  A    between atoms: C_2  and  N_3
REMARK    3  A    between atoms: C_7  and  C_8
REMARK    4  A    between atoms: C_8  and  C_9
REMARK    5  A    between atoms: C_13  and  N_14
REMARK    6  A    between atoms: C_22  and  C_23
REMARK                            x       y       z     vdW  Elec       q    Type
REMARK                         _______ _______ _______ _____ _____    ______ ____
ROOT
ATOM      1  N   UNL     1       4.018   4.641  19.262  0.00  0.00    +0.000 N 
ATOM      2  C   UNL     1       5.388   5.201  19.348  0.00  0.00    +0.000 C 
ATOM      3  C   UNL     1       5.879   5.034  17.937  0.00  0.00    +0.000 A 
ATOM      4  C   UNL     1       5.205   3.935  17.390  0.00  0.00    +0.000 A 
ATOM      5  C   UNL     1       5.283   3.588  16.054  0.00  0.00    +0.000 A 
ATOM      6  C   UNL     1       6.063   4.402  15.247  0.00  0.00    +0.000 A 
ATOM      7  F   UNL     1       6.105   4.174  13.928  0.00  0.00    +0.000 F 
ATOM      8  C   UNL     1       6.734   5.522  15.762  0.00  0.00    +0.000 A 
ATOM      9  C   UNL     1       6.650   5.864  17.128  0.00  0.00    +0.000 A 
ATOM     10  C   UNL     1       4.109   3.577  18.322  0.00  0.00    +0.000 C 
ATOM     11  O   UNL     1       3.331   2.661  18.130  0.00  0.00    +0.000 OA
ENDROOT
BRANCH   1  16
ATOM     12  C   UNL     1       1.894   7.591  19.892  0.00  0.00    +0.000 A 
ATOM     13  C   UNL     1       2.386   8.391  18.850  0.00  0.00    +0.000 A 
ATOM     14  C   UNL     1       3.036   7.815  17.767  0.00  0.00    +0.000 A 
ATOM     15  C   UNL     1       3.294   6.453  17.757  0.00  0.00    +0.000 A 
ATOM     16  C   UNL     1       3.075   5.701  18.919  0.00  0.00    +0.000 A 
ATOM     17  C   UNL     1       2.253   6.231  19.923  0.00  0.00    +0.000 A 
BRANCH  12  18
ATOM     18  C   UNL     1       0.926   8.204  20.877  0.00  0.00    +0.000 C 
BRANCH  18  23
ATOM     19  N   UNL     1      -0.015  10.428  20.050  0.00  0.00    +0.000 N 
ATOM     20  C   UNL     1       0.097  11.723  20.474  0.00  0.00    +0.000 A 
ATOM     21  N   UNL     1       0.955  11.784  21.460  0.00  0.00    +0.000 NA
ATOM     22  N   UNL     1       1.408  10.509  21.701  0.00  0.00    +0.000 NA
ATOM     23  C   UNL     1       0.814   9.694  20.856  0.00  0.00    +0.000 A 
BRANCH  19  25
ATOM     24  C   UNL     1      -1.627  11.166  18.341  0.00  0.00    +0.000 C 
ATOM     25  C   UNL     1      -0.889  10.003  18.978  0.00  0.00    +0.000 C 
ENDBRANCH  19  25
ENDBRANCH  18  23
ENDBRANCH  12  18
ENDBRANCH   1  16
BRANCH   9  26
ATOM     26  C   UNL     1       7.279   7.149  17.595  0.00  0.00    +0.000 C 
ATOM     27  F   UNL     1       8.163   7.696  16.720  0.00  0.00    +0.000 F 
ATOM     28  F   UNL     1       6.352   8.116  17.838  0.00  0.00    +0.000 F 
ATOM     29  F   UNL     1       7.963   6.989  18.762  0.00  0.00    +0.000 F 
ENDBRANCH   9  26
TORSDOF 5
ENDMDL
MODEL 2
REMARK VINA RESULT:      -8.6      5.549      8.662
REMARK  Name = 
REMARK  6 active torsions:
REMARK  status: ('A' for Active; 'I' for Inactive)
REMARK    1  A    between atoms: C_1  and  C_2
REMARK    2  A    between atoms: C_2  and  N_3
REMARK    3  A    between atoms: C_7  and  C_8
REMARK    4  A    between atoms: C_8  and  C_9
REMARK    5  A    between atoms: C_13  and  N_14
REMARK    6  A    between atoms: C_22  and  C_23
REMARK                            x       y       z     vdW  Elec       q    Type
REMARK                         _______ _______ _______ _____ _____    ______ ____
ROOT
ATOM      1  N   UNL     1      -1.579  12.510  18.906  0.00  0.00    +0.000 N 
ATOM      2  C   UNL     1      -0.200  12.074  18.579  0.00  0.00    +0.000 C 
ATOM      3  C   UNL     1       0.125  11.178  19.741  0.00  0.00    +0.000 A 
ATOM      4  C   UNL     1      -0.623  11.630  20.836  0.00  0.00    +0.000 A 
ATOM      5  C   UNL     1      -0.704  10.943  22.033  0.00  0.00    +0.000 A 
ATOM      6  C   UNL     1      -0.009   9.745  22.108  0.00  0.00    +0.000 A 
ATOM      7  F   UNL     1      -0.120   8.988  23.206  0.00  0.00    +0.000 F 
ATOM      8  C   UNL     1       0.734   9.257  21.021  0.00  0.00    +0.000 A 
ATOM      9  C   UNL     1       0.810   9.969  19.806  0.00  0.00    +0.000 A 
ATOM     10  C   UNL     1      -1.611  12.610  20.325  0.00  0.00    +0.000 C 
ATOM     11  O   UNL     1      -2.420  13.185  21.030  0.00  0.00    +0.000 OA
ENDROOT
BRANCH   1  16
ATOM     12  C   UNL     1      -4.856  11.431  17.600  0.00  0.00    +0.000 A 
ATOM     13  C   UNL     1      -4.405  10.948  16.363  0.00  0.00    +0.000 A 
ATOM     14  C   UNL     1      -3.072  10.601  16.186  0.00  0.00    +0.000 A 
ATOM     15  C   UNL     1      -2.156  10.826  17.203  0.00  0.00    +0.000 A 
ATOM     16  C   UNL     1      -2.539  11.579  18.321  0.00  0.00    +0.000 A 
ATOM     17  C   UNL     1      -3.904  11.754  18.585  0.00  0.00    +0.000 A 
BRANCH  12  18
ATOM     18  C   UNL     1      -6.345  11.492  17.851  0.00  0.00    +0.000 C 
BRANCH  18  23
ATOM     19  N   UNL     1      -7.417  11.497  20.167  0.00  0.00    +0.000 N 
ATOM     20  C   UNL     1      -7.839  10.515  21.020  0.00  0.00    +0.000 A 
ATOM     21  N   UNL     1      -7.513   9.346  20.532  0.00  0.00    +0.000 NA
ATOM     22  N   UNL     1      -6.877   9.556  19.332  0.00  0.00    +0.000 NA
ATOM     23  C   UNL     1      -6.830  10.852  19.111  0.00  0.00    +0.000 A 
BRANCH  19  25
ATOM     24  C   UNL     1      -7.909  13.221  21.856  0.00  0.00    +0.000 C 
ATOM     25  C   UNL     1      -7.626  12.911  20.397  0.00  0.00    +0.000 C 
ENDBRANCH  19  25
ENDBRANCH  18  23
ENDBRANCH  12  18
ENDBRANCH   1  16
BRANCH   9  26
ATOM     26  C   UNL     1       1.508   9.332  18.635  0.00  0.00    +0.000 C 
ATOM     27  F   UNL     1       0.686   8.985  17.609  0.00  0.00    +0.000 F 
ATOM     28  F   UNL     1       2.451  10.150  18.092  0.00  0.00    +0.000 F 
ATOM     29  F   UNL     1       2.163   8.192  18.987  0.00  0.00    +0.000 F 
ENDBRANCH   9  26
TORSDOF 5
ENDMDL
MODEL 3
REMARK VINA RESULT:      -8.4      6.750      9.187
REMARK  Name = 
REMARK  6 active torsions:
REMARK  status: ('A' for Active; 'I' for Inactive)
REMARK    1  A    between atoms: C_1  and  C_2
REMARK    2  A    between atoms: C_2  and  N_3
REMARK    3  A    between atoms: C_7  and  C_8
REMARK    4  A    between atoms: C_8  and  C_9
REMARK    5  A    between atoms: C_13  and  N_14
REMARK    6  A    between atoms: C_22  and  C_23
REMARK                            x       y       z     vdW  Elec       q    Type
REMARK                         _______ _______ _______ _____ _____    ______ ____
ROOT
ATOM      1  N   UNL     1      -0.267  11.696  18.614  0.00  0.00    +0.000 N 
ATOM      2  C   UNL     1       0.517  10.875  19.566  0.00  0.00    +0.000 C 
ATOM      3  C   UNL     1       0.017  11.376  20.892  0.00  0.00    +0.000 A 
ATOM      4  C   UNL     1      -0.390  12.704  20.707  0.00  0.00    +0.000 A 
ATOM      5  C   UNL     1      -1.060  13.431  21.673  0.00  0.00    +0.000 A 
ATOM      6  C   UNL     1      -1.337  12.774  22.863  0.00  0.00    +0.000 A 
ATOM      7  F   UNL     1      -2.062  13.393  23.802  0.00  0.00    +0.000 F 
ATOM      8  C   UNL     1      -0.959  11.438  23.070  0.00  0.00    +0.000 A 
ATOM      9  C   UNL     1      -0.273  10.707  22.077  0.00  0.00    +0.000 A 
ATOM     10  C   UNL     1      -0.416  12.961  19.247  0.00  0.00    +0.000 C 
ATOM     11  O   UNL     1      -0.735  14.028  18.755  0.00  0.00    +0.000 OA
ENDROOT
BRANCH   1  16
ATOM     12  C   UNL     1      -3.824  11.444  17.664  0.00  0.00    +0.000 A 
ATOM     13  C   UNL     1      -3.655  10.586  16.568  0.00  0.00    +0.000 A 
ATOM     14  C   UNL     1      -2.510   9.808  16.452  0.00  0.00    +0.000 A 
ATOM     15  C   UNL     1      -1.479   9.950  17.368  0.00  0.00    +0.000 A 
ATOM     16  C   UNL     1      -1.513  11.010  18.284  0.00  0.00    +0.000 A 
ATOM     17  C   UNL     1      -2.732  11.659  18.526  0.00  0.00    +0.000 A 
BRANCH  12  18
ATOM     18  C   UNL     1      -5.195  12.022  17.923  0.00  0.00    +0.000 C 
BRANCH  18  23
ATOM     19  N   UNL     1      -6.371  11.835  20.181  0.00  0.00    +0.000 N 
ATOM     20  C   UNL     1      -7.249  10.938  20.723  0.00  0.00    +0.000 A 
ATOM     21  N   UNL     1      -7.411   9.936  19.897  0.00  0.00    +0.000 NA
ATOM     22  N   UNL     1      -6.638  10.180  18.787  0.00  0.00    +0.000 NA
ATOM     23  C   UNL     1      -6.021  11.329  18.957  0.00  0.00    +0.000 A 
BRANCH  19  25
ATOM     24  C   UNL     1      -4.760  12.887  21.719  0.00  0.00    +0.000 C 
ATOM     25  C   UNL     1      -5.975  13.068  20.827  0.00  0.00    +0.000 C 
ENDBRANCH  19  25
ENDBRANCH  18  23
ENDBRANCH  12  18
ENDBRANCH   1  16
BRANCH   9  26
ATOM     26  C   UNL     1      -0.014   9.243  22.303  0.00  0.00    +0.000 C 
ATOM     27  F   UNL     1      -0.762   8.411  21.531  0.00  0.00    +0.000 F 
ATOM     28  F   UNL     1       1.282   8.906  22.060  0.00  0.00    +0.000 F 
ATOM     29  F   UNL     1      -0.259   8.872  23.590  0.00  0.00    +0.000 F 
ENDBRANCH   9  26
TORSDOF 5
ENDMDL
MODEL 4
REMARK VINA RESULT:      -8.4      4.462      8.361
REMARK  Name = 
REMARK  6 active torsions:
REMARK  status: ('A' for Active; 'I' for Inactive)
REMARK    1  A    between atoms: C_1  and  C_2
REMARK    2  A    between atoms: C_2  and  N_3
REMARK    3  A    between atoms: C_7  and  C_8
REMARK    4  A    between atoms: C_8  and  C_9
REMARK    5  A    between atoms: C_13  and  N_14
REMARK    6  A    between atoms: C_22  and  C_23
REMARK                            x       y       z     vdW  Elec       q    Type
REMARK                         _______ _______ _______ _____ _____    ______ ____
ROOT
ATOM      1  N   UNL     1       0.030   9.363  20.796  0.00  0.00    +0.000 N 
ATOM      2  C   UNL     1      -1.163   9.253  19.925  0.00  0.00    +0.000 C 
ATOM      3  C   UNL     1      -1.247  10.634  19.339  0.00  0.00    +0.000 A 
ATOM      4  C   UNL     1      -0.677  11.514  20.268  0.00  0.00    +0.000 A 
ATOM      5  C   UNL     1      -0.431  12.847  19.995  0.00  0.00    +0.000 A 
ATOM      6  C   UNL     1      -0.763  13.291  18.724  0.00  0.00    +0.000 A 
ATOM      7  F   UNL     1      -0.465  14.546  18.367  0.00  0.00    +0.000 F 
ATOM      8  C   UNL     1      -1.317  12.428  17.765  0.00  0.00    +0.000 A 
ATOM      9  C   UNL     1      -1.566  11.071  18.056  0.00  0.00    +0.000 A 
ATOM     10  C   UNL     1       0.006  10.694  21.297  0.00  0.00    +0.000 C 
ATOM     11  O   UNL     1       0.606  11.163  22.246  0.00  0.00    +0.000 OA
ENDROOT
BRANCH   1  16
ATOM     12  C   UNL     1       2.460   7.064  19.239  0.00  0.00    +0.000 A 
ATOM     13  C   UNL     1       2.436   7.624  17.953  0.00  0.00    +0.000 A 
ATOM     14  C   UNL     1       1.996   8.927  17.760  0.00  0.00    +0.000 A 
ATOM     15  C   UNL     1       1.480   9.649  18.825  0.00  0.00    +0.000 A 
ATOM     16  C   UNL     1       1.225   8.999  20.040  0.00  0.00    +0.000 A 
ATOM     17  C   UNL     1       1.839   7.764  20.290  0.00  0.00    +0.000 A 
BRANCH  12  18
ATOM     18  C   UNL     1       3.233   5.784  19.454  0.00  0.00    +0.000 C 
BRANCH  18  23
ATOM     19  N   UNL     1       1.712   3.740  19.300  0.00  0.00    +0.000 N 
ATOM     20  C   UNL     1       1.416   2.850  18.306  0.00  0.00    +0.000 A 
ATOM     21  N   UNL     1       2.173   3.092  17.267  0.00  0.00    +0.000 NA
ATOM     22  N   UNL     1       2.973   4.166  17.573  0.00  0.00    +0.000 NA
ATOM     23  C   UNL     1       2.685   4.560  18.795  0.00  0.00    +0.000 A 
BRANCH  19  25
ATOM     24  C   UNL     1       1.759   2.899  21.614  0.00  0.00    +0.000 C 
ATOM     25  C   UNL     1       1.050   3.763  20.587  0.00  0.00    +0.000 C 
ENDBRANCH  19  25
ENDBRANCH  18  23
ENDBRANCH  12  18
ENDBRANCH   1  16
BRANCH   9  26
ATOM     26  C   UNL     1      -2.033  10.165  16.950  0.00  0.00    +0.000 C 
ATOM     27  F   UNL     1      -2.315  10.798  15.781  0.00  0.00    +0.000 F 
ATOM     28  F   UNL     1      -1.110   9.212  16.641  0.00  0.00    +0.000 F 
ATOM     29  F   UNL     1      -3.166   9.487  17.287  0.00  0.00    +0.000 F 
ENDBRANCH   9  26
TORSDOF 5
ENDMDL
MODEL 5
REMARK VINA RESULT:      -8.3      0.844      1.555
REMARK  Name = 
REMARK  6 active torsions:
REMARK  status: ('A' for Active; 'I' for Inactive)
REMARK    1  A    between atoms: C_1  and  C_2
REMARK    2  A    between atoms: C_2  and  N_3
REMARK    3  A    between atoms: C_7  and  C_8
REMARK    4  A    between atoms: C_8  and  C_9
REMARK    5  A    between atoms: C_13  and  N_14
REMARK    6  A    between atoms: C_22  and  C_23
REMARK                            x       y       z     vdW  Elec       q    Type
REMARK                         _______ _______ _______ _____ _____    ______ ____
ROOT
ATOM      1  N   UNL     1       4.082   4.492  19.145  0.00  0.00    +0.000 N 
ATOM      2  C   UNL     1       5.447   5.057  19.268  0.00  0.00    +0.000 C 
ATOM      3  C   UNL     1       5.950   4.961  17.855  0.00  0.00    +0.000 A 
ATOM      4  C   UNL     1       5.288   3.885  17.251  0.00  0.00    +0.000 A 
ATOM      5  C   UNL     1       5.377   3.603  15.900  0.00  0.00    +0.000 A 
ATOM      6  C   UNL     1       6.157   4.460  15.139  0.00  0.00    +0.000 A 
ATOM      7  F   UNL     1       6.211   4.296  13.812  0.00  0.00    +0.000 F 
ATOM      8  C   UNL     1       6.816   5.559  15.712  0.00  0.00    +0.000 A 
ATOM      9  C   UNL     1       6.720   5.835  17.092  0.00  0.00    +0.000 A 
ATOM     10  C   UNL     1       4.188   3.475  18.157  0.00  0.00    +0.000 C 
ATOM     11  O   UNL     1       3.418   2.563  17.915  0.00  0.00    +0.000 OA
ENDROOT
BRANCH   1  16
ATOM     12  C   UNL     1       2.082   7.512  19.847  0.00  0.00    +0.000 A 
ATOM     13  C   UNL     1       2.495   8.261  18.735  0.00  0.00    +0.000 A 
ATOM     14  C   UNL     1       3.034   7.631  17.622  0.00  0.00    +0.000 A 
ATOM     15  C   UNL     1       3.263   6.264  17.642  0.00  0.00    +0.000 A 
ATOM     16  C   UNL     1       3.133   5.561  18.847  0.00  0.00    +0.000 A 
ATOM     17  C   UNL     1       2.415   6.146  19.899  0.00  0.00    +0.000 A 
BRANCH  12  18
ATOM     18  C   UNL     1       1.219   8.183  20.889  0.00  0.00    +0.000 C 
BRANCH  18  23
ATOM     19  N   UNL     1      -0.176  10.292  21.240  0.00  0.00    +0.000 N 
ATOM     20  C   UNL     1      -0.646  11.269  20.407  0.00  0.00    +0.000 A 
ATOM     21  N   UNL     1      -0.370  10.953  19.168  0.00  0.00    +0.000 NA
ATOM     22  N   UNL     1       0.304   9.756  19.182  0.00  0.00    +0.000 NA
ATOM     23  C   UNL     1       0.427   9.366  20.432  0.00  0.00    +0.000 A 
BRANCH  19  25
ATOM     24  C   UNL     1      -1.464  11.196  23.134  0.00  0.00    +0.000 C 
ATOM     25  C   UNL     1      -0.303  10.330  22.681  0.00  0.00    +0.000 C 
ENDBRANCH  19  25
ENDBRANCH  18  23
ENDBRANCH  12  18
ENDBRANCH   1  16
BRANCH   9  26
ATOM     26  C   UNL     1       7.335   7.099  17.625  0.00  0.00    +0.000 C 
ATOM     27  F   UNL     1       8.063   6.938  18.762  0.00  0.00    +0.000 F 
ATOM     28  F   UNL     1       8.178   7.679  16.727  0.00  0.00    +0.000 F 
ATOM     29  F   UNL     1       6.398   8.043  17.916  0.00  0.00    +0.000 F 
ENDBRANCH   9  26
TORSDOF 5
ENDMDL
MODEL 6
REMARK VINA RESULT:      -8.2      4.466      8.240
REMARK  Name = 
REMARK  6 active torsions:
REMARK  status: ('A' for Active; 'I' for Inactive)
REMARK    1  A    between atoms: C_1  and  C_2
REMARK    2  A    between atoms: C_2  and  N_3
REMARK    3  A    between atoms: C_7  and  C_8
REMARK    4  A    between atoms: C_8  and  C_9
REMARK    5  A    between atoms: C_13  and  N_14
REMARK    6  A    between atoms: C_22  and  C_23
REMARK                            x       y       z     vdW  Elec       q    Type
REMARK                         _______ _______ _______ _____ _____    ______ ____
ROOT
ATOM      1  N   UNL     1      -0.008   9.313  20.846  0.00  0.00    +0.000 N 
ATOM      2  C   UNL     1      -1.198   9.218  19.967  0.00  0.00    +0.000 C 
ATOM      3  C   UNL     1      -1.246  10.592  19.362  0.00  0.00    +0.000 A 
ATOM      4  C   UNL     1      -0.663  11.473  20.283  0.00  0.00    +0.000 A 
ATOM      5  C   UNL     1      -0.385  12.796  19.994  0.00  0.00    +0.000 A 
ATOM      6  C   UNL     1      -0.697  13.229  18.714  0.00  0.00    +0.000 A 
ATOM      7  F   UNL     1      -0.369  14.473  18.343  0.00  0.00    +0.000 F 
ATOM      8  C   UNL     1      -1.264  12.366  17.763  0.00  0.00    +0.000 A 
ATOM      9  C   UNL     1      -1.546  11.019  18.071  0.00  0.00    +0.000 A 
ATOM     10  C   UNL     1      -0.006  10.651  21.328  0.00  0.00    +0.000 C 
ATOM     11  O   UNL     1       0.597  11.120  22.275  0.00  0.00    +0.000 OA
ENDROOT
BRANCH   1  16
ATOM     12  C   UNL     1       2.425   6.941  19.409  0.00  0.00    +0.000 A 
ATOM     13  C   UNL     1       2.388   7.424  18.092  0.00  0.00    +0.000 A 
ATOM     14  C   UNL     1       1.939   8.710  17.826  0.00  0.00    +0.000 A 
ATOM     15  C   UNL     1       1.426   9.491  18.850  0.00  0.00    +0.000 A 
ATOM     16  C   UNL     1       1.184   8.913  20.103  0.00  0.00    +0.000 A 
ATOM     17  C   UNL     1       1.807   7.698  20.421  0.00  0.00    +0.000 A 
BRANCH  12  18
ATOM     18  C   UNL     1       3.208   5.680  19.693  0.00  0.00    +0.000 C 
BRANCH  18  23
ATOM     19  N   UNL     1       1.711   3.613  19.703  0.00  0.00    +0.000 N 
ATOM     20  C   UNL     1       1.337   2.715  20.664  0.00  0.00    +0.000 A 
ATOM     21  N   UNL     1       1.802   3.103  21.824  0.00  0.00    +0.000 NA
ATOM     22  N   UNL     1       2.504   4.268  21.625  0.00  0.00    +0.000 NA
ATOM     23  C   UNL     1       2.455   4.566  20.345  0.00  0.00    +0.000 A 
BRANCH  19  25
ATOM     24  C   UNL     1       2.477   2.814  17.503  0.00  0.00    +0.000 C 
ATOM     25  C   UNL     1       1.373   3.482  18.301  0.00  0.00    +0.000 C 
ENDBRANCH  19  25
ENDBRANCH  18  23
ENDBRANCH  12  18
ENDBRANCH   1  16
BRANCH   9  26
ATOM     26  C   UNL     1      -2.025  10.108  16.974  0.00  0.00    +0.000 C 
ATOM     27  F   UNL     1      -1.139   9.142  16.614  0.00  0.00    +0.000 F 
ATOM     28  F   UNL     1      -3.169   9.453  17.312  0.00  0.00    +0.000 F 
ATOM     29  F   UNL     1      -2.313  10.791  15.831  0.00  0.00    +0.000 F 
ENDBRANCH   9  26
TORSDOF 5
ENDMDL
MODEL 7
REMARK VINA RESULT:      -8.2      3.364      4.563
REMARK  Name = 
REMARK  6 active torsions:
REMARK  status: ('A' for Active; 'I' for Inactive)
REMARK    1  A    between atoms: C_1  and  C_2
REMARK    2  A    between atoms: C_2  and  N_3
REMARK    3  A    between atoms: C_7  and  C_8
REMARK    4  A    between atoms: C_8  and  C_9
REMARK    5  A    between atoms: C_13  and  N_14
REMARK    6  A    between atoms: C_22  and  C_23
REMARK                            x       y       z     vdW  Elec       q    Type
REMARK                         _______ _______ _______ _____ _____    ______ ____
ROOT
ATOM      1  N   UNL     1       2.869   5.686  17.345  0.00  0.00    +0.000 N 
ATOM      2  C   UNL     1       1.820   4.696  17.687  0.00  0.00    +0.000 C 
ATOM      3  C   UNL     1       2.564   3.759  18.597  0.00  0.00    +0.000 A 
ATOM      4  C   UNL     1       3.914   3.802  18.223  0.00  0.00    +0.000 A 
ATOM      5  C   UNL     1       4.921   3.193  18.949  0.00  0.00    +0.000 A 
ATOM      6  C   UNL     1       4.536   2.530  20.105  0.00  0.00    +0.000 A 
ATOM      7  F   UNL     1       5.472   1.998  20.900  0.00  0.00    +0.000 F 
ATOM      8  C   UNL     1       3.194   2.486  20.516  0.00  0.00    +0.000 A 
ATOM      9  C   UNL     1       2.176   3.110  19.765  0.00  0.00    +0.000 A 
ATOM     10  C   UNL     1       4.080   4.942  17.289  0.00  0.00    +0.000 C 
ATOM     11  O   UNL     1       5.143   5.252  16.784  0.00  0.00    +0.000 OA
ENDROOT
BRANCH   1  16
ATOM     12  C   UNL     1       1.868   8.970  18.695  0.00  0.00    +0.000 A 
ATOM     13  C   UNL     1       1.444   8.523  19.955  0.00  0.00    +0.000 A 
ATOM     14  C   UNL     1       1.886   7.306  20.456  0.00  0.00    +0.000 A 
ATOM     15  C   UNL     1       2.670   6.476  19.670  0.00  0.00    +0.000 A 
ATOM     16  C   UNL     1       2.848   6.778  18.313  0.00  0.00    +0.000 A 
ATOM     17  C   UNL     1       2.574   8.078  17.867  0.00  0.00    +0.000 A 
BRANCH  12  18
ATOM     18  C   UNL     1       1.633  10.416  18.326  0.00  0.00    +0.000 C 
BRANCH  18  23
ATOM     19  N   UNL     1      -0.889  10.772  18.500  0.00  0.00    +0.000 N 
ATOM     20  C   UNL     1      -1.693  11.457  19.368  0.00  0.00    +0.000 A 
ATOM     21  N   UNL     1      -0.950  12.128  20.210  0.00  0.00    +0.000 NA
ATOM     22  N   UNL     1       0.365  11.873  19.904  0.00  0.00    +0.000 NA
ATOM     23  C   UNL     1       0.398  11.048  18.880  0.00  0.00    +0.000 A 
BRANCH  19  25
ATOM     24  C   UNL     1      -2.876  10.090  17.215  0.00  0.00    +0.000 C 
ATOM     25  C   UNL     1      -1.385   9.917  17.443  0.00  0.00    +0.000 C 
ENDBRANCH  19  25
ENDBRANCH  18  23
ENDBRANCH  12  18
ENDBRANCH   1  16
BRANCH   9  26
ATOM     26  C   UNL     1       0.780   3.145  20.324  0.00  0.00    +0.000 C 
ATOM     27  F   UNL     1       0.268   4.393  20.488  0.00  0.00    +0.000 F 
ATOM     28  F   UNL     1      -0.108   2.483  19.531  0.00  0.00    +0.000 F 
ATOM     29  F   UNL     1       0.702   2.548  21.546  0.00  0.00    +0.000 F 
ENDBRANCH   9  26
TORSDOF 5
ENDMDL
MODEL 8
REMARK VINA RESULT:      -8.1      1.044      1.734
REMARK  Name = 
REMARK  6 active torsions:
REMARK  status: ('A' for Active; 'I' for Inactive)
REMARK    1  A    between atoms: C_1  and  C_2
REMARK    2  A    between atoms: C_2  and  N_3
REMARK    3  A    between atoms: C_7  and  C_8
REMARK    4  A    between atoms: C_8  and  C_9
REMARK    5  A    between atoms: C_13  and  N_14
REMARK    6  A    between atoms: C_22  and  C_23
REMARK                            x       y       z     vdW  Elec       q    Type
REMARK                         _______ _______ _______ _____ _____    ______ ____
ROOT
ATOM      1  N   UNL     1       3.603   5.051  19.376  0.00  0.00    +0.000 N 
ATOM      2  C   UNL     1       5.013   5.499  19.463  0.00  0.00    +0.000 C 
ATOM      3  C   UNL     1       5.541   5.126  18.107  0.00  0.00    +0.000 A 
ATOM      4  C   UNL     1       4.792   4.030  17.657  0.00  0.00    +0.000 A 
ATOM      5  C   UNL     1       4.889   3.522  16.375  0.00  0.00    +0.000 A 
ATOM      6  C   UNL     1       5.769   4.166  15.518  0.00  0.00    +0.000 A 
ATOM      7  F   UNL     1       5.842   3.781  14.238  0.00  0.00    +0.000 F 
ATOM      8  C   UNL     1       6.518   5.279  15.934  0.00  0.00    +0.000 A 
ATOM      9  C   UNL     1       6.413   5.786  17.246  0.00  0.00    +0.000 A 
ATOM     10  C   UNL     1       3.634   3.879  18.570  0.00  0.00    +0.000 C 
ATOM     11  O   UNL     1       2.785   3.015  18.446  0.00  0.00    +0.000 OA
ENDROOT
BRANCH   1  16
ATOM     12  C   UNL     1       1.912   8.328  19.486  0.00  0.00    +0.000 A 
ATOM     13  C   UNL     1       2.414   8.828  18.276  0.00  0.00    +0.000 A 
ATOM     14  C   UNL     1       2.901   7.964  17.304  0.00  0.00    +0.000 A 
ATOM     15  C   UNL     1       2.989   6.605  17.566  0.00  0.00    +0.000 A 
ATOM     16  C   UNL     1       2.772   6.139  18.870  0.00  0.00    +0.000 A 
ATOM     17  C   UNL     1       2.103   6.965  19.782  0.00  0.00    +0.000 A 
BRANCH  12  18
ATOM     18  C   UNL     1       1.107   9.251  20.370  0.00  0.00    +0.000 C 
BRANCH  18  23
ATOM     19  N   UNL     1       0.420  11.477  19.326  0.00  0.00    +0.000 N 
ATOM     20  C   UNL     1      -0.651  11.886  18.581  0.00  0.00    +0.000 A 
ATOM     21  N   UNL     1      -1.518  10.910  18.496  0.00  0.00    +0.000 NA
ATOM     22  N   UNL     1      -1.008   9.836  19.184  0.00  0.00    +0.000 NA
ATOM     23  C   UNL     1       0.163  10.178  19.675  0.00  0.00    +0.000 A 
BRANCH  19  25
ATOM     24  C   UNL     1       2.417  12.559  18.374  0.00  0.00    +0.000 C 
ATOM     25  C   UNL     1       1.571  12.308  19.609  0.00  0.00    +0.000 C 
ENDBRANCH  19  25
ENDBRANCH  18  23
ENDBRANCH  12  18
ENDBRANCH   1  16
BRANCH   9  26
ATOM     26  C   UNL     1       7.136   7.058  17.593  0.00  0.00    +0.000 C 
ATOM     27  F   UNL     1       6.327   8.134  17.783  0.00  0.00    +0.000 F 
ATOM     28  F   UNL     1       7.867   6.939  18.735  0.00  0.00    +0.000 F 
ATOM     29  F   UNL     1       8.020   7.426  16.624  0.00  0.00    +0.000 F 
ENDBRANCH   9  26
TORSDOF 5
ENDMDL
MODEL 9
REMARK VINA RESULT:      -8.1      3.828      8.073
REMARK  Name = 
REMARK  6 active torsions:
REMARK  status: ('A' for Active; 'I' for Inactive)
REMARK    1  A    between atoms: C_1  and  C_2
REMARK    2  A    between atoms: C_2  and  N_3
REMARK    3  A    between atoms: C_7  and  C_8
REMARK    4  A    between atoms: C_8  and  C_9
REMARK    5  A    between atoms: C_13  and  N_14
REMARK    6  A    between atoms: C_22  and  C_23
REMARK                            x       y       z     vdW  Elec       q    Type
REMARK                         _______ _______ _______ _____ _____    ______ ____
ROOT
ATOM      1  N   UNL     1       0.802   8.291  21.177  0.00  0.00    +0.000 N 
ATOM      2  C   UNL     1      -0.473   8.582  20.480  0.00  0.00    +0.000 C 
ATOM      3  C   UNL     1      -0.349  10.055  20.211  0.00  0.00    +0.000 A 
ATOM      4  C   UNL     1       0.469  10.593  21.214  0.00  0.00    +0.000 A 
ATOM      5  C   UNL     1       0.938  11.894  21.192  0.00  0.00    +0.000 A 
ATOM      6  C   UNL     1       0.570  12.666  20.100  0.00  0.00    +0.000 A 
ATOM      7  F   UNL     1       1.065  13.903  19.974  0.00  0.00    +0.000 F 
ATOM      8  C   UNL     1      -0.232  12.150  19.071  0.00  0.00    +0.000 A 
ATOM      9  C   UNL     1      -0.706  10.822  19.105  0.00  0.00    +0.000 A 
ATOM     10  C   UNL     1       1.083   9.457  21.942  0.00  0.00    +0.000 C 
ATOM     11  O   UNL     1       1.854   9.590  22.874  0.00  0.00    +0.000 OA
ENDROOT
BRANCH   1  16
ATOM     12  C   UNL     1       2.756   5.988  19.058  0.00  0.00    +0.000 A 
ATOM     13  C   UNL     1       2.560   6.656  17.841  0.00  0.00    +0.000 A 
ATOM     14  C   UNL     1       2.194   7.996  17.824  0.00  0.00    +0.000 A 
ATOM     15  C   UNL     1       1.920   8.655  19.012  0.00  0.00    +0.000 A 
ATOM     16  C   UNL     1       1.822   7.920  20.202  0.00  0.00    +0.000 A 
ATOM     17  C   UNL     1       2.374   6.633  20.250  0.00  0.00    +0.000 A 
BRANCH  12  18
ATOM     18  C   UNL     1       3.455   4.649  19.042  0.00  0.00    +0.000 C 
BRANCH  18  23
ATOM     19  N   UNL     1       5.529   4.492  17.563  0.00  0.00    +0.000 N 
ATOM     20  C   UNL     1       6.857   4.749  17.760  0.00  0.00    +0.000 A 
ATOM     21  N   UNL     1       7.060   5.045  19.019  0.00  0.00    +0.000 NA
ATOM     22  N   UNL     1       5.846   4.996  19.661  0.00  0.00    +0.000 NA
ATOM     23  C   UNL     1       4.925   4.672  18.779  0.00  0.00    +0.000 A 
BRANCH  19  25
ATOM     24  C   UNL     1       5.593   4.911  15.137  0.00  0.00    +0.000 C 
ATOM     25  C   UNL     1       4.956   4.142  16.281  0.00  0.00    +0.000 C 
ENDBRANCH  19  25
ENDBRANCH  18  23
ENDBRANCH  12  18
ENDBRANCH   1  16
BRANCH   9  26
ATOM     26  C   UNL     1      -1.447  10.284  17.912  0.00  0.00    +0.000 C 
ATOM     27  F   UNL     1      -2.585   9.604  18.212  0.00  0.00    +0.000 F 
ATOM     28  F   UNL     1      -1.822  11.270  17.052  0.00  0.00    +0.000 F 
ATOM     29  F   UNL     1      -0.685   9.424  17.180  0.00  0.00    +0.000 F 
ENDBRANCH   9  26
TORSDOF 5
ENDMDL
