MODEL 1
REMARK VINA RESULT:      -9.3      0.000      0.000
REMARK  Name = 
REMARK  9 active torsions:
REMARK  status: ('A' for Active; 'I' for Inactive)
REMARK    1  A    between atoms: C_1  and  C_2
REMARK    2  A    between atoms: N_4  and  C_5
REMARK    3  A    between atoms: C_5  and  C_6
REMARK    4  A    between atoms: C_10  and  C_11
REMARK    5  A    between atoms: C_11  and  C_12
REMARK    6  A    between atoms: N_17  and  C_18
REMARK    7  A    between atoms: C_22  and  C_23
REMARK    8  A    between atoms: C_23  and  C_24
REMARK    9  A    between atoms: N_28  and  C_29
REMARK                            x       y       z     vdW  Elec       q    Type
REMARK                         _______ _______ _______ _____ _____    ______ ____
ROOT
ATOM      1  C   UNL     1       4.431   4.634  17.656  0.00  0.00    +0.000 A 
ATOM      2  C   UNL     1       3.999   5.958  17.568  0.00  0.00    +0.000 A 
ATOM      3  C   UNL     1       3.143   6.424  18.539  0.00  0.00    +0.000 A 
ATOM      4  C   UNL     1       2.676   5.647  19.595  0.00  0.00    +0.000 A 
ATOM      5  C   UNL     1       3.065   4.314  19.698  0.00  0.00    +0.000 A 
ATOM      6  C   UNL     1       3.953   3.819  18.710  0.00  0.00    +0.000 A 
ATOM      7  C   UNL     1       1.783   6.484  20.458  0.00  0.00    +0.000 C 
ATOM      8  N   UNL     1       1.772   7.779  19.783  0.00  0.00    +0.000 N 
ATOM      9  C   UNL     1       2.569   7.762  18.638  0.00  0.00    +0.000 C 
ATOM     10  O   UNL     1       2.793   8.609  17.792  0.00  0.00    +0.000 OA
ENDROOT
BRANCH   8  11
ATOM     11  C   UNL     1       0.989   8.879  20.223  0.00  0.00    +0.000 A 
ATOM     12  C   UNL     1       0.797   9.128  21.588  0.00  0.00    +0.000 A 
ATOM     13  C   UNL     1       0.097  10.249  22.031  0.00  0.00    +0.000 A 
ATOM     14  C   UNL     1      -0.412  11.156  21.110  0.00  0.00    +0.000 A 
ATOM     15  C   UNL     1      -0.254  10.933  19.739  0.00  0.00    +0.000 A 
ATOM     16  C   UNL     1       0.417   9.774  19.306  0.00  0.00    +0.000 A 
BRANCH  15  17
ATOM     17  C   UNL     1      -0.750  11.947  18.735  0.00  0.00    +0.000 C 
BRANCH  17  18
ATOM     18  C   UNL     1      -2.095  11.606  18.135  0.00  0.00    +0.000 C 
ATOM     19  N   UNL     1      -2.174  11.043  16.952  0.00  0.00    +0.000 NA
ATOM     20  C   UNL     1      -3.639  10.981  16.673  0.00  0.00    +0.000 C 
ATOM     21  C   UNL     1      -4.359  11.259  17.996  0.00  0.00    +0.000 C 
ATOM     22  N   UNL     1      -3.293  11.855  18.758  0.00  0.00    +0.000 N 
ATOM     23  C   UNL     1      -3.540  12.593  19.962  0.00  0.00    +0.000 C 
ENDBRANCH  17  18
ENDBRANCH  15  17
ENDBRANCH   8  11
BRANCH   5  24
ATOM     24  C   UNL     1       2.561   3.414  20.802  0.00  0.00    +0.000 C 
ATOM     25  C   UNL     1       1.175   2.869  20.489  0.00  0.00    +0.000 C 
ATOM     26  F   UNL     1       3.387   2.350  21.021  0.00  0.00    +0.000 F 
ATOM     27  F   UNL     1       2.487   4.063  22.001  0.00  0.00    +0.000 F 
ENDBRANCH   5  24
BRANCH   1  28
ATOM     28  C   UNL     1       5.414   4.107  16.629  0.00  0.00    +0.000 C 
BRANCH  28  32
ATOM     29  C   UNL     1       6.736   3.936  12.423  0.00  0.00    +0.000 C 
ATOM     30  C   UNL     1       6.337   3.838  13.880  0.00  0.00    +0.000 C 
ATOM     31  C   UNL     1       4.978   4.452  14.276  0.00  0.00    +0.000 C 
ATOM     32  N   UNL     1       5.601   5.026  15.496  0.00  0.00    +0.000 NA
ATOM     33  C   UNL     1       6.935   4.868  14.860  0.00  0.00    +0.000 C 
ENDBRANCH  28  32
ENDBRANCH   1  28
TORSDOF 6
ENDMDL
MODEL 2
REMARK VINA RESULT:      -9.2      0.973      1.505
REMARK  Name = 
REMARK  9 active torsions:
REMARK  status: ('A' for Active; 'I' for Inactive)
REMARK    1  A    between atoms: C_1  and  C_2
REMARK    2  A    between atoms: N_4  and  C_5
REMARK    3  A    between atoms: C_5  and  C_6
REMARK    4  A    between atoms: C_10  and  C_11
REMARK    5  A    between atoms: C_11  and  C_12
REMARK    6  A    between atoms: N_17  and  C_18
REMARK    7  A    between atoms: C_22  and  C_23
REMARK    8  A    between atoms: C_23  and  C_24
REMARK    9  A    between atoms: N_28  and  C_29
REMARK                            x       y       z     vdW  Elec       q    Type
REMARK                         _______ _______ _______ _____ _____    ______ ____
ROOT
ATOM      1  C   UNL     1       4.400   4.387  17.165  0.00  0.00    +0.000 A 
ATOM      2  C   UNL     1       4.139   5.750  17.316  0.00  0.00    +0.000 A 
ATOM      3  C   UNL     1       3.246   6.132  18.291  0.00  0.00    +0.000 A 
ATOM      4  C   UNL     1       2.581   5.237  19.123  0.00  0.00    +0.000 A 
ATOM      5  C   UNL     1       2.797   3.868  18.981  0.00  0.00    +0.000 A 
ATOM      6  C   UNL     1       3.719   3.457  17.987  0.00  0.00    +0.000 A 
ATOM      7  C   UNL     1       1.706   6.005  20.066  0.00  0.00    +0.000 C 
ATOM      8  N   UNL     1       1.921   7.396  19.673  0.00  0.00    +0.000 N 
ATOM      9  C   UNL     1       2.826   7.492  18.616  0.00  0.00    +0.000 C 
ATOM     10  O   UNL     1       3.238   8.447  17.983  0.00  0.00    +0.000 OA
ENDROOT
BRANCH   8  11
ATOM     11  C   UNL     1       1.231   8.486  20.265  0.00  0.00    +0.000 A 
ATOM     12  C   UNL     1       1.147   8.617  21.657  0.00  0.00    +0.000 A 
ATOM     13  C   UNL     1       0.540   9.724  22.249  0.00  0.00    +0.000 A 
ATOM     14  C   UNL     1       0.020  10.736  21.452  0.00  0.00    +0.000 A 
ATOM     15  C   UNL     1       0.071  10.634  20.058  0.00  0.00    +0.000 A 
ATOM     16  C   UNL     1       0.646   9.489  19.476  0.00  0.00    +0.000 A 
BRANCH  15  17
ATOM     17  C   UNL     1      -0.438  11.758  19.188  0.00  0.00    +0.000 C 
BRANCH  17  18
ATOM     18  C   UNL     1      -1.941  11.913  19.205  0.00  0.00    +0.000 C 
ATOM     19  N   UNL     1      -2.513  12.774  20.014  0.00  0.00    +0.000 NA
ATOM     20  C   UNL     1      -3.976  12.543  19.820  0.00  0.00    +0.000 C 
ATOM     21  C   UNL     1      -4.130  11.696  18.553  0.00  0.00    +0.000 C 
ATOM     22  N   UNL     1      -2.792  11.187  18.409  0.00  0.00    +0.000 N 
ATOM     23  C   UNL     1      -2.490  10.076  17.555  0.00  0.00    +0.000 C 
ENDBRANCH  17  18
ENDBRANCH  15  17
ENDBRANCH   8  11
BRANCH   5  24
ATOM     24  C   UNL     1       2.076   2.849  19.832  0.00  0.00    +0.000 C 
ATOM     25  C   UNL     1       2.652   2.789  21.239  0.00  0.00    +0.000 C 
ATOM     26  F   UNL     1       0.741   3.116  19.939  0.00  0.00    +0.000 F 
ATOM     27  F   UNL     1       2.149   1.593  19.303  0.00  0.00    +0.000 F 
ENDBRANCH   5  24
BRANCH   1  28
ATOM     28  C   UNL     1       5.417   3.939  16.134  0.00  0.00    +0.000 C 
BRANCH  28  32
ATOM     29  C   UNL     1       6.967   3.904  12.002  0.00  0.00    +0.000 C 
ATOM     30  C   UNL     1       6.515   3.772  13.442  0.00  0.00    +0.000 C 
ATOM     31  C   UNL     1       5.050   4.142  13.752  0.00  0.00    +0.000 C 
ATOM     32  N   UNL     1       5.496   4.849  14.980  0.00  0.00    +0.000 NA
ATOM     33  C   UNL     1       6.868   4.918  14.413  0.00  0.00    +0.000 C 
ENDBRANCH  28  32
ENDBRANCH   1  28
TORSDOF 6
ENDMDL
MODEL 3
REMARK VINA RESULT:      -9.0      3.005      8.666
REMARK  Name = 
REMARK  9 active torsions:
REMARK  status: ('A' for Active; 'I' for Inactive)
REMARK    1  A    between atoms: C_1  and  C_2
REMARK    2  A    between atoms: N_4  and  C_5
REMARK    3  A    between atoms: C_5  and  C_6
REMARK    4  A    between atoms: C_10  and  C_11
REMARK    5  A    between atoms: C_11  and  C_12
REMARK    6  A    between atoms: N_17  and  C_18
REMARK    7  A    between atoms: C_22  and  C_23
REMARK    8  A    between atoms: C_23  and  C_24
REMARK    9  A    between atoms: N_28  and  C_29
REMARK                            x       y       z     vdW  Elec       q    Type
REMARK                         _______ _______ _______ _____ _____    ______ ____
ROOT
ATOM      1  C   UNL     1       0.724  11.484  19.447  0.00  0.00    +0.000 A 
ATOM      2  C   UNL     1       1.401  10.449  18.801  0.00  0.00    +0.000 A 
ATOM      3  C   UNL     1       1.466   9.227  19.432  0.00  0.00    +0.000 A 
ATOM      4  C   UNL     1       0.906   8.971  20.679  0.00  0.00    +0.000 A 
ATOM      5  C   UNL     1       0.247   9.989  21.364  0.00  0.00    +0.000 A 
ATOM      6  C   UNL     1       0.164  11.252  20.726  0.00  0.00    +0.000 A 
ATOM      7  C   UNL     1       1.157   7.540  21.042  0.00  0.00    +0.000 C 
ATOM      8  N   UNL     1       1.923   7.030  19.907  0.00  0.00    +0.000 N 
ATOM      9  C   UNL     1       2.122   8.018  18.943  0.00  0.00    +0.000 C 
ATOM     10  O   UNL     1       2.729   8.013  17.888  0.00  0.00    +0.000 OA
ENDROOT
BRANCH   8  11
ATOM     11  C   UNL     1       2.441   5.709  19.849  0.00  0.00    +0.000 A 
ATOM     12  C   UNL     1       1.736   4.632  20.401  0.00  0.00    +0.000 A 
ATOM     13  C   UNL     1       2.198   3.322  20.281  0.00  0.00    +0.000 A 
ATOM     14  C   UNL     1       3.372   3.063  19.586  0.00  0.00    +0.000 A 
ATOM     15  C   UNL     1       4.112   4.114  19.034  0.00  0.00    +0.000 A 
ATOM     16  C   UNL     1       3.656   5.435  19.202  0.00  0.00    +0.000 A 
BRANCH  15  17
ATOM     17  C   UNL     1       5.356   3.834  18.224  0.00  0.00    +0.000 C 
BRANCH  17  18
ATOM     18  C   UNL     1       6.322   4.994  18.167  0.00  0.00    +0.000 C 
ATOM     19  N   UNL     1       7.214   5.166  19.115  0.00  0.00    +0.000 NA
ATOM     20  C   UNL     1       7.878   6.457  18.764  0.00  0.00    +0.000 C 
ATOM     21  C   UNL     1       7.478   6.788  17.322  0.00  0.00    +0.000 C 
ATOM     22  N   UNL     1       6.336   5.927  17.160  0.00  0.00    +0.000 N 
ATOM     23  C   UNL     1       5.400   6.102  16.088  0.00  0.00    +0.000 C 
ENDBRANCH  17  18
ENDBRANCH  15  17
ENDBRANCH   8  11
BRANCH   5  24
ATOM     24  C   UNL     1      -0.348   9.778  22.737  0.00  0.00    +0.000 C 
ATOM     25  C   UNL     1      -1.207  10.960  23.160  0.00  0.00    +0.000 C 
ATOM     26  F   UNL     1      -1.122   8.656  22.799  0.00  0.00    +0.000 F 
ATOM     27  F   UNL     1       0.612   9.604  23.692  0.00  0.00    +0.000 F 
ENDBRANCH   5  24
BRANCH   1  28
ATOM     28  C   UNL     1       0.593  12.826  18.755  0.00  0.00    +0.000 C 
BRANCH  28  32
ATOM     29  C   UNL     1       3.768  15.792  17.982  0.00  0.00    +0.000 C 
ATOM     30  C   UNL     1       2.721  14.704  18.103  0.00  0.00    +0.000 C 
ATOM     31  C   UNL     1       1.331  15.125  18.623  0.00  0.00    +0.000 C 
ATOM     32  N   UNL     1       1.288  13.907  19.472  0.00  0.00    +0.000 NA
ATOM     33  C   UNL     1       2.765  13.800  19.353  0.00  0.00    +0.000 C 
ENDBRANCH  28  32
ENDBRANCH   1  28
TORSDOF 6
ENDMDL
MODEL 4
REMARK VINA RESULT:      -9.0      0.833      1.015
REMARK  Name = 
REMARK  9 active torsions:
REMARK  status: ('A' for Active; 'I' for Inactive)
REMARK    1  A    between atoms: C_1  and  C_2
REMARK    2  A    between atoms: N_4  and  C_5
REMARK    3  A    between atoms: C_5  and  C_6
REMARK    4  A    between atoms: C_10  and  C_11
REMARK    5  A    between atoms: C_11  and  C_12
REMARK    6  A    between atoms: N_17  and  C_18
REMARK    7  A    between atoms: C_22  and  C_23
REMARK    8  A    between atoms: C_23  and  C_24
REMARK    9  A    between atoms: N_28  and  C_29
REMARK                            x       y       z     vdW  Elec       q    Type
REMARK                         _______ _______ _______ _____ _____    ______ ____
ROOT
ATOM      1  C   UNL     1       4.618   4.473  17.224  0.00  0.00    +0.000 A 
ATOM      2  C   UNL     1       4.321   5.830  17.355  0.00  0.00    +0.000 A 
ATOM      3  C   UNL     1       3.377   6.198  18.287  0.00  0.00    +0.000 A 
ATOM      4  C   UNL     1       2.696   5.293  19.096  0.00  0.00    +0.000 A 
ATOM      5  C   UNL     1       2.948   3.929  18.971  0.00  0.00    +0.000 A 
ATOM      6  C   UNL     1       3.922   3.533  18.022  0.00  0.00    +0.000 A 
ATOM      7  C   UNL     1       1.764   6.047  19.993  0.00  0.00    +0.000 C 
ATOM      8  N   UNL     1       1.965   7.440  19.601  0.00  0.00    +0.000 N 
ATOM      9  C   UNL     1       2.914   7.550  18.585  0.00  0.00    +0.000 C 
ATOM     10  O   UNL     1       3.332   8.510  17.964  0.00  0.00    +0.000 OA
ENDROOT
BRANCH   8  11
ATOM     11  C   UNL     1       1.226   8.518  20.155  0.00  0.00    +0.000 A 
ATOM     12  C   UNL     1       1.059   8.642  21.540  0.00  0.00    +0.000 A 
ATOM     13  C   UNL     1       0.403   9.738  22.099  0.00  0.00    +0.000 A 
ATOM     14  C   UNL     1      -0.085  10.745  21.276  0.00  0.00    +0.000 A 
ATOM     15  C   UNL     1       0.048  10.649  19.887  0.00  0.00    +0.000 A 
ATOM     16  C   UNL     1       0.673   9.515  19.337  0.00  0.00    +0.000 A 
BRANCH  15  17
ATOM     17  C   UNL     1      -0.425  11.770  18.992  0.00  0.00    +0.000 C 
BRANCH  17  18
ATOM     18  C   UNL     1      -1.834  11.587  18.477  0.00  0.00    +0.000 C 
ATOM     19  N   UNL     1      -2.051  11.000  17.323  0.00  0.00    +0.000 NA
ATOM     20  C   UNL     1      -3.526  11.121  17.122  0.00  0.00    +0.000 C 
ATOM     21  C   UNL     1      -4.128  11.535  18.469  0.00  0.00    +0.000 C 
ATOM     22  N   UNL     1      -2.953  12.013  19.149  0.00  0.00    +0.000 N 
ATOM     23  C   UNL     1      -3.035  12.817  20.333  0.00  0.00    +0.000 C 
ENDBRANCH  17  18
ENDBRANCH  15  17
ENDBRANCH   8  11
BRANCH   5  24
ATOM     24  C   UNL     1       2.212   2.899  19.797  0.00  0.00    +0.000 C 
ATOM     25  C   UNL     1       2.713   2.873  21.233  0.00  0.00    +0.000 C 
ATOM     26  F   UNL     1       0.867   3.127  19.829  0.00  0.00    +0.000 F 
ATOM     27  F   UNL     1       2.350   1.639  19.289  0.00  0.00    +0.000 F 
ENDBRANCH   5  24
BRANCH   1  28
ATOM     28  C   UNL     1       5.688   4.042  16.242  0.00  0.00    +0.000 C 
BRANCH  28  32
ATOM     29  C   UNL     1       6.795   3.721  11.982  0.00  0.00    +0.000 C 
ATOM     30  C   UNL     1       6.481   3.679  13.463  0.00  0.00    +0.000 C 
ATOM     31  C   UNL     1       5.106   4.224  13.902  0.00  0.00    +0.000 C 
ATOM     32  N   UNL     1       5.752   4.906  15.053  0.00  0.00    +0.000 NA
ATOM     33  C   UNL     1       7.058   4.801  14.352  0.00  0.00    +0.000 C 
ENDBRANCH  28  32
ENDBRANCH   1  28
TORSDOF 6
ENDMDL
MODEL 5
REMARK VINA RESULT:      -9.0      1.904      2.831
REMARK  Name = 
REMARK  9 active torsions:
REMARK  status: ('A' for Active; 'I' for Inactive)
REMARK    1  A    between atoms: C_1  and  C_2
REMARK    2  A    between atoms: N_4  and  C_5
REMARK    3  A    between atoms: C_5  and  C_6
REMARK    4  A    between atoms: C_10  and  C_11
REMARK    5  A    between atoms: C_11  and  C_12
REMARK    6  A    between atoms: N_17  and  C_18
REMARK    7  A    between atoms: C_22  and  C_23
REMARK    8  A    between atoms: C_23  and  C_24
REMARK    9  A    between atoms: N_28  and  C_29
REMARK                            x       y       z     vdW  Elec       q    Type
REMARK                         _______ _______ _______ _____ _____    ______ ____
ROOT
ATOM      1  C   UNL     1       4.841   5.411  17.551  0.00  0.00    +0.000 A 
ATOM      2  C   UNL     1       4.328   6.695  17.360  0.00  0.00    +0.000 A 
ATOM      3  C   UNL     1       3.311   7.114  18.188  0.00  0.00    +0.000 A 
ATOM      4  C   UNL     1       2.760   6.326  19.194  0.00  0.00    +0.000 A 
ATOM      5  C   UNL     1       3.229   5.030  19.393  0.00  0.00    +0.000 A 
ATOM      6  C   UNL     1       4.280   4.585  18.555  0.00  0.00    +0.000 A 
ATOM      7  C   UNL     1       1.694   7.109  19.897  0.00  0.00    +0.000 C 
ATOM      8  N   UNL     1       1.682   8.384  19.184  0.00  0.00    +0.000 N 
ATOM      9  C   UNL     1       2.631   8.405  18.162  0.00  0.00    +0.000 C 
ATOM     10  O   UNL     1       2.908   9.247  17.328  0.00  0.00    +0.000 OA
ENDROOT
BRANCH   8  11
ATOM     11  C   UNL     1       0.765   9.429  19.475  0.00  0.00    +0.000 A 
ATOM     12  C   UNL     1       0.007  10.027  18.460  0.00  0.00    +0.000 A 
ATOM     13  C   UNL     1      -0.951  10.999  18.745  0.00  0.00    +0.000 A 
ATOM     14  C   UNL     1      -1.183  11.378  20.061  0.00  0.00    +0.000 A 
ATOM     15  C   UNL     1      -0.435  10.814  21.100  0.00  0.00    +0.000 A 
ATOM     16  C   UNL     1       0.559   9.868  20.792  0.00  0.00    +0.000 A 
BRANCH  15  17
ATOM     17  C   UNL     1      -0.725  11.176  22.538  0.00  0.00    +0.000 C 
BRANCH  17  18
ATOM     18  C   UNL     1      -0.986  12.648  22.757  0.00  0.00    +0.000 C 
ATOM     19  N   UNL     1      -0.032  13.529  22.569  0.00  0.00    +0.000 NA
ATOM     20  C   UNL     1      -0.640  14.824  22.996  0.00  0.00    +0.000 C 
ATOM     21  C   UNL     1      -2.151  14.594  23.108  0.00  0.00    +0.000 C 
ATOM     22  N   UNL     1      -2.196  13.156  23.160  0.00  0.00    +0.000 N 
ATOM     23  C   UNL     1      -3.365  12.449  23.596  0.00  0.00    +0.000 C 
ENDBRANCH  17  18
ENDBRANCH  15  17
ENDBRANCH   8  11
BRANCH   5  24
ATOM     24  C   UNL     1       2.642   4.117  20.445  0.00  0.00    +0.000 C 
ATOM     25  C   UNL     1       1.246   3.650  20.063  0.00  0.00    +0.000 C 
ATOM     26  F   UNL     1       3.410   3.009  20.655  0.00  0.00    +0.000 F 
ATOM     27  F   UNL     1       2.553   4.728  21.663  0.00  0.00    +0.000 F 
ENDBRANCH   5  24
BRANCH   1  28
ATOM     28  C   UNL     1       5.995   4.940  16.688  0.00  0.00    +0.000 C 
BRANCH  28  32
ATOM     29  C   UNL     1       6.248   3.457  12.540  0.00  0.00    +0.000 C 
ATOM     30  C   UNL     1       6.210   3.814  14.011  0.00  0.00    +0.000 C 
ATOM     31  C   UNL     1       5.016   4.663  14.494  0.00  0.00    +0.000 C 
ATOM     32  N   UNL     1       5.941   5.481  15.321  0.00  0.00    +0.000 NA
ATOM     33  C   UNL     1       7.072   5.004  14.484  0.00  0.00    +0.000 C 
ENDBRANCH  28  32
ENDBRANCH   1  28
TORSDOF 6
ENDMDL
MODEL 6
REMARK VINA RESULT:      -8.9      1.441      2.148
REMARK  Name = 
REMARK  9 active torsions:
REMARK  status: ('A' for Active; 'I' for Inactive)
REMARK    1  A    between atoms: C_1  and  C_2
REMARK    2  A    between atoms: N_4  and  C_5
REMARK    3  A    between atoms: C_5  and  C_6
REMARK    4  A    between atoms: C_10  and  C_11
REMARK    5  A    between atoms: C_11  and  C_12
REMARK    6  A    between atoms: N_17  and  C_18
REMARK    7  A    between atoms: C_22  and  C_23
REMARK    8  A    between atoms: C_23  and  C_24
REMARK    9  A    between atoms: N_28  and  C_29
REMARK                            x       y       z     vdW  Elec       q    Type
REMARK                         _______ _______ _______ _____ _____    ______ ____
ROOT
ATOM      1  C   UNL     1       3.961   5.129  17.697  0.00  0.00    +0.000 A 
ATOM      2  C   UNL     1       3.538   6.452  17.561  0.00  0.00    +0.000 A 
ATOM      3  C   UNL     1       2.710   6.969  18.532  0.00  0.00    +0.000 A 
ATOM      4  C   UNL     1       2.264   6.243  19.632  0.00  0.00    +0.000 A 
ATOM      5  C   UNL     1       2.645   4.913  19.784  0.00  0.00    +0.000 A 
ATOM      6  C   UNL     1       3.502   4.366  18.798  0.00  0.00    +0.000 A 
ATOM      7  C   UNL     1       1.399   7.126  20.479  0.00  0.00    +0.000 C 
ATOM      8  N   UNL     1       1.383   8.391  19.747  0.00  0.00    +0.000 N 
ATOM      9  C   UNL     1       2.150   8.315  18.585  0.00  0.00    +0.000 C 
ATOM     10  O   UNL     1       2.360   9.121  17.697  0.00  0.00    +0.000 OA
ENDROOT
BRANCH   8  11
ATOM     11  C   UNL     1       0.620   9.516  20.157  0.00  0.00    +0.000 A 
ATOM     12  C   UNL     1       0.632   9.949  21.489  0.00  0.00    +0.000 A 
ATOM     13  C   UNL     1      -0.050  11.099  21.886  0.00  0.00    +0.000 A 
ATOM     14  C   UNL     1      -0.745  11.850  20.947  0.00  0.00    +0.000 A 
ATOM     15  C   UNL     1      -0.793  11.440  19.611  0.00  0.00    +0.000 A 
ATOM     16  C   UNL     1      -0.137  10.254  19.235  0.00  0.00    +0.000 A 
BRANCH  15  17
ATOM     17  C   UNL     1      -1.495  12.286  18.574  0.00  0.00    +0.000 C 
BRANCH  17  18
ATOM     18  C   UNL     1      -2.925  11.872  18.315  0.00  0.00    +0.000 C 
ATOM     19  N   UNL     1      -3.858  12.098  19.211  0.00  0.00    +0.000 NA
ATOM     20  C   UNL     1      -5.077  11.449  18.643  0.00  0.00    +0.000 C 
ATOM     21  C   UNL     1      -4.777  11.145  17.171  0.00  0.00    +0.000 C 
ATOM     22  N   UNL     1      -3.341  11.244  17.167  0.00  0.00    +0.000 N 
ATOM     23  C   UNL     1      -2.548  10.723  16.092  0.00  0.00    +0.000 C 
ENDBRANCH  17  18
ENDBRANCH  15  17
ENDBRANCH   8  11
BRANCH   5  24
ATOM     24  C   UNL     1       2.161   4.067  20.939  0.00  0.00    +0.000 C 
ATOM     25  C   UNL     1       2.789   2.682  20.919  0.00  0.00    +0.000 C 
ATOM     26  F   UNL     1       2.440   4.634  22.149  0.00  0.00    +0.000 F 
ATOM     27  F   UNL     1       0.805   3.904  20.924  0.00  0.00    +0.000 F 
ENDBRANCH   5  24
BRANCH   1  28
ATOM     28  C   UNL     1       4.913   4.548  16.671  0.00  0.00    +0.000 C 
BRANCH  28  32
ATOM     29  C   UNL     1       7.926   7.587  17.747  0.00  0.00    +0.000 C 
ATOM     30  C   UNL     1       6.797   6.670  17.324  0.00  0.00    +0.000 C 
ATOM     31  C   UNL     1       6.449   5.505  18.274  0.00  0.00    +0.000 C 
ATOM     32  N   UNL     1       6.318   4.599  17.103  0.00  0.00    +0.000 NA
ATOM     33  C   UNL     1       7.118   5.561  16.300  0.00  0.00    +0.000 C 
ENDBRANCH  28  32
ENDBRANCH   1  28
TORSDOF 6
ENDMDL
MODEL 7
REMARK VINA RESULT:      -8.9      1.261      1.763
REMARK  Name = 
REMARK  9 active torsions:
REMARK  status: ('A' for Active; 'I' for Inactive)
REMARK    1  A    between atoms: C_1  and  C_2
REMARK    2  A    between atoms: N_4  and  C_5
REMARK    3  A    between atoms: C_5  and  C_6
REMARK    4  A    between atoms: C_10  and  C_11
REMARK    5  A    between atoms: C_11  and  C_12
REMARK    6  A    between atoms: N_17  and  C_18
REMARK    7  A    between atoms: C_22  and  C_23
REMARK    8  A    between atoms: C_23  and  C_24
REMARK    9  A    between atoms: N_28  and  C_29
REMARK                            x       y       z     vdW  Elec       q    Type
REMARK                         _______ _______ _______ _____ _____    ______ ____
ROOT
ATOM      1  C   UNL     1       3.932   4.967  17.799  0.00  0.00    +0.000 A 
ATOM      2  C   UNL     1       3.457   6.279  17.813  0.00  0.00    +0.000 A 
ATOM      3  C   UNL     1       2.688   6.676  18.884  0.00  0.00    +0.000 A 
ATOM      4  C   UNL     1       2.350   5.840  19.944  0.00  0.00    +0.000 A 
ATOM      5  C   UNL     1       2.784   4.517  19.947  0.00  0.00    +0.000 A 
ATOM      6  C   UNL     1       3.582   4.093  18.857  0.00  0.00    +0.000 A 
ATOM      7  C   UNL     1       1.523   6.611  20.927  0.00  0.00    +0.000 C 
ATOM      8  N   UNL     1       1.410   7.933  20.315  0.00  0.00    +0.000 N 
ATOM      9  C   UNL     1       2.090   7.990  19.099  0.00  0.00    +0.000 C 
ATOM     10  O   UNL     1       2.207   8.878  18.274  0.00  0.00    +0.000 OA
ENDROOT
BRANCH   8  11
ATOM     11  C   UNL     1       0.645   8.988  20.878  0.00  0.00    +0.000 A 
ATOM     12  C   UNL     1       0.453   9.080  22.263  0.00  0.00    +0.000 A 
ATOM     13  C   UNL     1      -0.231  10.154  22.832  0.00  0.00    +0.000 A 
ATOM     14  C   UNL     1      -0.721  11.170  22.022  0.00  0.00    +0.000 A 
ATOM     15  C   UNL     1      -0.563  11.105  20.634  0.00  0.00    +0.000 A 
ATOM     16  C   UNL     1       0.090   9.993  20.071  0.00  0.00    +0.000 A 
BRANCH  15  17
ATOM     17  C   UNL     1      -1.039  12.236  19.754  0.00  0.00    +0.000 C 
BRANCH  17  18
ATOM     18  C   UNL     1      -2.368  11.973  19.085  0.00  0.00    +0.000 C 
ATOM     19  N   UNL     1      -2.419  11.389  17.910  0.00  0.00    +0.000 NA
ATOM     20  C   UNL     1      -3.868  11.420  17.549  0.00  0.00    +0.000 C 
ATOM     21  C   UNL     1      -4.639  11.776  18.824  0.00  0.00    +0.000 C 
ATOM     22  N   UNL     1      -3.579  12.317  19.633  0.00  0.00    +0.000 N 
ATOM     23  C   UNL     1      -3.842  13.097  20.807  0.00  0.00    +0.000 C 
ENDBRANCH  17  18
ENDBRANCH  15  17
ENDBRANCH   8  11
BRANCH   5  24
ATOM     24  C   UNL     1       2.416   3.555  21.054  0.00  0.00    +0.000 C 
ATOM     25  C   UNL     1       1.037   2.951  20.832  0.00  0.00    +0.000 C 
ATOM     26  F   UNL     1       3.308   2.529  21.165  0.00  0.00    +0.000 F 
ATOM     27  F   UNL     1       2.408   4.159  22.279  0.00  0.00    +0.000 F 
ENDBRANCH   5  24
BRANCH   1  28
ATOM     28  C   UNL     1       4.822   4.515  16.658  0.00  0.00    +0.000 C 
BRANCH  28  32
ATOM     29  C   UNL     1       7.932   7.447  17.755  0.00  0.00    +0.000 C 
ATOM     30  C   UNL     1       6.769   6.571  17.339  0.00  0.00    +0.000 C 
ATOM     31  C   UNL     1       6.460   5.350  18.230  0.00  0.00    +0.000 C 
ATOM     32  N   UNL     1       6.250   4.524  17.013  0.00  0.00    +0.000 NA
ATOM     33  C   UNL     1       7.016   5.528  16.229  0.00  0.00    +0.000 C 
ENDBRANCH  28  32
ENDBRANCH   1  28
TORSDOF 6
ENDMDL
MODEL 8
REMARK VINA RESULT:      -8.9      1.677      2.288
REMARK  Name = 
REMARK  9 active torsions:
REMARK  status: ('A' for Active; 'I' for Inactive)
REMARK    1  A    between atoms: C_1  and  C_2
REMARK    2  A    between atoms: N_4  and  C_5
REMARK    3  A    between atoms: C_5  and  C_6
REMARK    4  A    between atoms: C_10  and  C_11
REMARK    5  A    between atoms: C_11  and  C_12
REMARK    6  A    between atoms: N_17  and  C_18
REMARK    7  A    between atoms: C_22  and  C_23
REMARK    8  A    between atoms: C_23  and  C_24
REMARK    9  A    between atoms: N_28  and  C_29
REMARK                            x       y       z     vdW  Elec       q    Type
REMARK                         _______ _______ _______ _____ _____    ______ ____
ROOT
ATOM      1  C   UNL     1       4.170   4.482  17.699  0.00  0.00    +0.000 A 
ATOM      2  C   UNL     1       3.773   5.815  17.579  0.00  0.00    +0.000 A 
ATOM      3  C   UNL     1       2.989   6.348  18.576  0.00  0.00    +0.000 A 
ATOM      4  C   UNL     1       2.561   5.630  19.689  0.00  0.00    +0.000 A 
ATOM      5  C   UNL     1       2.915   4.291  19.826  0.00  0.00    +0.000 A 
ATOM      6  C   UNL     1       3.728   3.727  18.812  0.00  0.00    +0.000 A 
ATOM      7  C   UNL     1       1.744   6.530  20.565  0.00  0.00    +0.000 C 
ATOM      8  N   UNL     1       1.734   7.797  19.836  0.00  0.00    +0.000 N 
ATOM      9  C   UNL     1       2.462   7.707  18.650  0.00  0.00    +0.000 C 
ATOM     10  O   UNL     1       2.662   8.511  17.758  0.00  0.00    +0.000 OA
ENDROOT
BRANCH   8  11
ATOM     11  C   UNL     1       1.011   8.939  20.272  0.00  0.00    +0.000 A 
ATOM     12  C   UNL     1       0.758   9.156  21.633  0.00  0.00    +0.000 A 
ATOM     13  C   UNL     1       0.118  10.312  22.078  0.00  0.00    +0.000 A 
ATOM     14  C   UNL     1      -0.266  11.286  21.165  0.00  0.00    +0.000 A 
ATOM     15  C   UNL     1      -0.044  11.097  19.797  0.00  0.00    +0.000 A 
ATOM     16  C   UNL     1       0.562   9.905  19.360  0.00  0.00    +0.000 A 
BRANCH  15  17
ATOM     17  C   UNL     1      -0.403  12.179  18.805  0.00  0.00    +0.000 C 
BRANCH  17  18
ATOM     18  C   UNL     1       0.595  13.313  18.750  0.00  0.00    +0.000 C 
ATOM     19  N   UNL     1       1.797  13.119  18.259  0.00  0.00    +0.000 NA
ATOM     20  C   UNL     1       2.499  14.417  18.489  0.00  0.00    +0.000 C 
ATOM     21  C   UNL     1       1.426  15.449  18.848  0.00  0.00    +0.000 C 
ATOM     22  N   UNL     1       0.332  14.583  19.200  0.00  0.00    +0.000 N 
ATOM     23  C   UNL     1      -0.811  15.058  19.924  0.00  0.00    +0.000 C 
ENDBRANCH  17  18
ENDBRANCH  15  17
ENDBRANCH   8  11
BRANCH   5  24
ATOM     24  C   UNL     1       2.448   3.453  20.994  0.00  0.00    +0.000 C 
ATOM     25  C   UNL     1       1.049   2.902  20.762  0.00  0.00    +0.000 C 
ATOM     26  F   UNL     1       3.277   2.397  21.238  0.00  0.00    +0.000 F 
ATOM     27  F   UNL     1       2.422   4.165  22.159  0.00  0.00    +0.000 F 
ENDBRANCH   5  24
BRANCH   1  28
ATOM     28  C   UNL     1       5.075   3.882  16.642  0.00  0.00    +0.000 C 
BRANCH  28  32
ATOM     29  C   UNL     1       6.888   4.042  12.622  0.00  0.00    +0.000 C 
ATOM     30  C   UNL     1       6.280   3.822  13.991  0.00  0.00    +0.000 C 
ATOM     31  C   UNL     1       5.056   4.684  14.360  0.00  0.00    +0.000 C 
ATOM     32  N   UNL     1       5.619   4.891  15.719  0.00  0.00    +0.000 NA
ATOM     33  C   UNL     1       6.957   4.509  15.196  0.00  0.00    +0.000 C 
ENDBRANCH  28  32
ENDBRANCH   1  28
TORSDOF 6
ENDMDL
MODEL 9
REMARK VINA RESULT:      -8.9      1.282      2.038
REMARK  Name = 
REMARK  9 active torsions:
REMARK  status: ('A' for Active; 'I' for Inactive)
REMARK    1  A    between atoms: C_1  and  C_2
REMARK    2  A    between atoms: N_4  and  C_5
REMARK    3  A    between atoms: C_5  and  C_6
REMARK    4  A    between atoms: C_10  and  C_11
REMARK    5  A    between atoms: C_11  and  C_12
REMARK    6  A    between atoms: N_17  and  C_18
REMARK    7  A    between atoms: C_22  and  C_23
REMARK    8  A    between atoms: C_23  and  C_24
REMARK    9  A    between atoms: N_28  and  C_29
REMARK                            x       y       z     vdW  Elec       q    Type
REMARK                         _______ _______ _______ _____ _____    ______ ____
ROOT
ATOM      1  C   UNL     1       4.010   4.894  17.760  0.00  0.00    +0.000 A 
ATOM      2  C   UNL     1       3.552   6.212  17.795  0.00  0.00    +0.000 A 
ATOM      3  C   UNL     1       2.755   6.591  18.851  0.00  0.00    +0.000 A 
ATOM      4  C   UNL     1       2.372   5.732  19.876  0.00  0.00    +0.000 A 
ATOM      5  C   UNL     1       2.788   4.403  19.858  0.00  0.00    +0.000 A 
ATOM      6  C   UNL     1       3.615   3.998  18.782  0.00  0.00    +0.000 A 
ATOM      7  C   UNL     1       1.524   6.487  20.854  0.00  0.00    +0.000 C 
ATOM      8  N   UNL     1       1.448   7.827  20.275  0.00  0.00    +0.000 N 
ATOM      9  C   UNL     1       2.167   7.907  19.083  0.00  0.00    +0.000 C 
ATOM     10  O   UNL     1       2.321   8.815  18.286  0.00  0.00    +0.000 OA
ENDROOT
BRANCH   8  11
ATOM     11  C   UNL     1       0.679   8.876  20.843  0.00  0.00    +0.000 A 
ATOM     12  C   UNL     1       0.485   8.962  22.227  0.00  0.00    +0.000 A 
ATOM     13  C   UNL     1      -0.202  10.030  22.801  0.00  0.00    +0.000 A 
ATOM     14  C   UNL     1      -0.694  11.049  21.995  0.00  0.00    +0.000 A 
ATOM     15  C   UNL     1      -0.534  10.991  20.607  0.00  0.00    +0.000 A 
ATOM     16  C   UNL     1       0.123   9.884  20.040  0.00  0.00    +0.000 A 
BRANCH  15  17
ATOM     17  C   UNL     1      -1.012  12.126  19.732  0.00  0.00    +0.000 C 
BRANCH  17  18
ATOM     18  C   UNL     1      -2.501  12.115  19.477  0.00  0.00    +0.000 C 
ATOM     19  N   UNL     1      -3.319  12.758  20.277  0.00  0.00    +0.000 NA
ATOM     20  C   UNL     1      -4.679  12.409  19.767  0.00  0.00    +0.000 C 
ATOM     21  C   UNL     1      -4.490  11.783  18.382  0.00  0.00    +0.000 C 
ATOM     22  N   UNL     1      -3.091  11.450  18.430  0.00  0.00    +0.000 N 
ATOM     23  C   UNL     1      -2.494  10.542  17.495  0.00  0.00    +0.000 C 
ENDBRANCH  17  18
ENDBRANCH  15  17
ENDBRANCH   8  11
BRANCH   5  24
ATOM     24  C   UNL     1       2.372   3.417  20.925  0.00  0.00    +0.000 C 
ATOM     25  C   UNL     1       1.010   2.812  20.625  0.00  0.00    +0.000 C 
ATOM     26  F   UNL     1       3.264   2.393  21.059  0.00  0.00    +0.000 F 
ATOM     27  F   UNL     1       2.303   3.996  22.160  0.00  0.00    +0.000 F 
ENDBRANCH   5  24
BRANCH   1  28
ATOM     28  C   UNL     1       4.930   4.461  16.636  0.00  0.00    +0.000 C 
BRANCH  28  32
ATOM     29  C   UNL     1       7.846   7.597  17.703  0.00  0.00    +0.000 C 
ATOM     30  C   UNL     1       6.742   6.644  17.296  0.00  0.00    +0.000 C 
ATOM     31  C   UNL     1       6.507   5.417  18.201  0.00  0.00    +0.000 C 
ATOM     32  N   UNL     1       6.353   4.565  16.993  0.00  0.00    +0.000 NA
ATOM     33  C   UNL     1       7.057   5.605  16.199  0.00  0.00    +0.000 C 
ENDBRANCH  28  32
ENDBRANCH   1  28
TORSDOF 6
ENDMDL
