MODEL 1
REMARK VINA RESULT:      -8.3      0.000      0.000
REMARK  Name = 
REMARK  6 active torsions:
REMARK  status: ('A' for Active; 'I' for Inactive)
REMARK    1  A    between atoms: C_2  and  C_3
REMARK    2  A    between atoms: C_3  and  O_4
REMARK    3  A    between atoms: O_4  and  C_5
REMARK    4  A    between atoms: C_5  and  C_7
REMARK    5  A    between atoms: C_16  and  O_17
REMARK    6  A    between atoms: N_18  and  C_19
REMARK                            x       y       z     vdW  Elec       q    Type
REMARK                         _______ _______ _______ _____ _____    ______ ____
ROOT
ATOM      1  O   UNL     1       1.181   4.963  19.429  0.00  0.00    +0.000 OA
ATOM      2  C   UNL     1       1.975   5.329  20.296  0.00  0.00    +0.000 C 
ATOM      3  N   UNL     1       2.331   6.640  20.569  0.00  0.00    +0.000 N 
ATOM      4  H   UNL     1       3.115   6.774  21.202  0.00  0.00    +0.000 HD
ENDROOT
BRANCH   3   5
ATOM      5  C   UNL     1       1.784   7.806  19.976  0.00  0.00    +0.000 A 
ATOM      6  C   UNL     1       0.837   8.590  20.649  0.00  0.00    +0.000 A 
ATOM      7  C   UNL     1       0.365   9.712  20.011  0.00  0.00    +0.000 A 
ATOM      8  N   UNL     1      -0.596  10.622  20.433  0.00  0.00    +0.000 N 
ATOM      9  C   UNL     1      -0.770  11.589  19.437  0.00  0.00    +0.000 A 
ATOM     10  O   UNL     1      -1.550  12.521  19.453  0.00  0.00    +0.000 OA
ATOM     11  N   UNL     1       0.127  11.263  18.404  0.00  0.00    +0.000 N 
ATOM     12  C   UNL     1       0.810  10.102  18.754  0.00  0.00    +0.000 A 
ATOM     13  C   UNL     1       1.745   9.375  18.058  0.00  0.00    +0.000 A 
ATOM     14  C   UNL     1       2.225   8.209  18.679  0.00  0.00    +0.000 A 
ATOM     15 BR   UNL     1       3.449   7.134  17.690  0.00  0.00    +0.000 Br
ATOM     16  H   UNL     1      -1.130  10.585  21.287  0.00  0.00    +0.000 HD
ATOM     17  H   UNL     1       0.204  11.792  17.551  0.00  0.00    +0.000 HD
ENDBRANCH   3   5
BRANCH   2  18
ATOM     18  C   UNL     1       2.589   4.312  21.254  0.00  0.00    +0.000 C 
BRANCH  18  19
ATOM     19  O   UNL     1       2.738   3.005  20.711  0.00  0.00    +0.000 OA
BRANCH  19  20
ATOM     20  C   UNL     1       4.021   2.678  20.420  0.00  0.00    +0.000 C 
ATOM     21  O   UNL     1       4.757   1.992  21.109  0.00  0.00    +0.000 OA
BRANCH  20  22
ATOM     22  C   UNL     1       4.395   3.153  19.071  0.00  0.00    +0.000 A 
ATOM     23  C   UNL     1       3.668   2.623  18.003  0.00  0.00    +0.000 A 
ATOM     24  C   UNL     1       3.962   3.009  16.699  0.00  0.00    +0.000 A 
ATOM     25  C   UNL     1       4.997   3.918  16.434  0.00  0.00    +0.000 A 
ATOM     26  C   UNL     1       5.275   4.276  15.108  0.00  0.00    +0.000 A 
ATOM     27  C   UNL     1       6.306   5.162  14.805  0.00  0.00    +0.000 A 
ATOM     28  C   UNL     1       7.076   5.695  15.828  0.00  0.00    +0.000 A 
ATOM     29  C   UNL     1       6.817   5.347  17.156  0.00  0.00    +0.000 A 
ATOM     30  C   UNL     1       5.766   4.456  17.498  0.00  0.00    +0.000 A 
ATOM     31  C   UNL     1       5.443   4.057  18.825  0.00  0.00    +0.000 A 
BRANCH  31  32
ATOM     32  O   UNL     1       6.168   4.507  19.902  0.00  0.00    +0.000 OA
ATOM     33  H   UNL     1       6.829   3.848  20.158  0.00  0.00    +0.000 HD
ENDBRANCH  31  32
ENDBRANCH  20  22
ENDBRANCH  19  20
ENDBRANCH  18  19
ENDBRANCH   2  18
TORSDOF 6
ENDMDL
MODEL 2
REMARK VINA RESULT:      -8.1      6.446      7.591
REMARK  Name = 
REMARK  6 active torsions:
REMARK  status: ('A' for Active; 'I' for Inactive)
REMARK    1  A    between atoms: C_2  and  C_3
REMARK    2  A    between atoms: C_3  and  O_4
REMARK    3  A    between atoms: O_4  and  C_5
REMARK    4  A    between atoms: C_5  and  C_7
REMARK    5  A    between atoms: C_16  and  O_17
REMARK    6  A    between atoms: N_18  and  C_19
REMARK                            x       y       z     vdW  Elec       q    Type
REMARK                         _______ _______ _______ _____ _____    ______ ____
ROOT
ATOM      1  O   UNL     1       7.961  10.550  17.738  0.00  0.00    +0.000 OA
ATOM      2  C   UNL     1       8.532   9.694  18.413  0.00  0.00    +0.000 C 
ATOM      3  N   UNL     1       9.321   9.932  19.528  0.00  0.00    +0.000 N 
ATOM      4  H   UNL     1       9.854   9.143  19.882  0.00  0.00    +0.000 HD
ENDROOT
BRANCH   3   5
ATOM      5  C   UNL     1       9.541  11.184  20.156  0.00  0.00    +0.000 A 
ATOM      6  C   UNL     1       8.826  11.559  21.302  0.00  0.00    +0.000 A 
ATOM      7  C   UNL     1       9.106  12.784  21.859  0.00  0.00    +0.000 A 
ATOM      8  N   UNL     1       8.519  13.405  22.953  0.00  0.00    +0.000 N 
ATOM      9  C   UNL     1       9.113  14.659  23.133  0.00  0.00    +0.000 A 
ATOM     10  O   UNL     1       8.828  15.487  23.977  0.00  0.00    +0.000 OA
ATOM     11  N   UNL     1      10.098  14.780  22.136  0.00  0.00    +0.000 N 
ATOM     12  C   UNL     1      10.079  13.634  21.347  0.00  0.00    +0.000 A 
ATOM     13  C   UNL     1      10.815  13.308  20.234  0.00  0.00    +0.000 A 
ATOM     14  C   UNL     1      10.529  12.071  19.631  0.00  0.00    +0.000 A 
ATOM     15 BR   UNL     1      11.469  11.642  18.030  0.00  0.00    +0.000 Br
ATOM     16  H   UNL     1       7.755  13.054  23.509  0.00  0.00    +0.000 HD
ATOM     17  H   UNL     1      10.675  15.598  22.026  0.00  0.00    +0.000 HD
ENDBRANCH   3   5
BRANCH   2  18
ATOM     18  C   UNL     1       8.324   8.212  18.112  0.00  0.00    +0.000 C 
BRANCH  18  19
ATOM     19  O   UNL     1       6.963   7.829  17.950  0.00  0.00    +0.000 OA
BRANCH  19  20
ATOM     20  C   UNL     1       6.781   6.824  17.060  0.00  0.00    +0.000 C 
ATOM     21  O   UNL     1       7.594   6.445  16.234  0.00  0.00    +0.000 OA
BRANCH  20  22
ATOM     22  C   UNL     1       5.496   6.133  17.297  0.00  0.00    +0.000 A 
ATOM     23  C   UNL     1       4.380   6.949  17.496  0.00  0.00    +0.000 A 
ATOM     24  C   UNL     1       3.133   6.380  17.736  0.00  0.00    +0.000 A 
ATOM     25  C   UNL     1       2.978   4.988  17.798  0.00  0.00    +0.000 A 
ATOM     26  C   UNL     1       1.710   4.448  18.053  0.00  0.00    +0.000 A 
ATOM     27  C   UNL     1       1.520   3.071  18.138  0.00  0.00    +0.000 A 
ATOM     28  C   UNL     1       2.601   2.218  17.977  0.00  0.00    +0.000 A 
ATOM     29  C   UNL     1       3.873   2.737  17.725  0.00  0.00    +0.000 A 
ATOM     30  C   UNL     1       4.097   4.134  17.620  0.00  0.00    +0.000 A 
ATOM     31  C   UNL     1       5.362   4.735  17.366  0.00  0.00    +0.000 A 
BRANCH  31  32
ATOM     32  O   UNL     1       6.497   3.975  17.221  0.00  0.00    +0.000 OA
ATOM     33  H   UNL     1       6.316   3.056  17.467  0.00  0.00    +0.000 HD
ENDBRANCH  31  32
ENDBRANCH  20  22
ENDBRANCH  19  20
ENDBRANCH  18  19
ENDBRANCH   2  18
TORSDOF 6
ENDMDL
MODEL 3
REMARK VINA RESULT:      -7.9      1.058      1.750
REMARK  Name = 
REMARK  6 active torsions:
REMARK  status: ('A' for Active; 'I' for Inactive)
REMARK    1  A    between atoms: C_2  and  C_3
REMARK    2  A    between atoms: C_3  and  O_4
REMARK    3  A    between atoms: O_4  and  C_5
REMARK    4  A    between atoms: C_5  and  C_7
REMARK    5  A    between atoms: C_16  and  O_17
REMARK    6  A    between atoms: N_18  and  C_19
REMARK                            x       y       z     vdW  Elec       q    Type
REMARK                         _______ _______ _______ _____ _____    ______ ____
ROOT
ATOM      1  O   UNL     1       0.470   4.751  20.283  0.00  0.00    +0.000 OA
ATOM      2  C   UNL     1       1.581   4.956  20.769  0.00  0.00    +0.000 C 
ATOM      3  N   UNL     1       2.248   6.170  20.790  0.00  0.00    +0.000 N 
ATOM      4  H   UNL     1       3.222   6.148  21.081  0.00  0.00    +0.000 HD
ENDROOT
BRANCH   3   5
ATOM      5  C   UNL     1       1.743   7.419  20.347  0.00  0.00    +0.000 A 
ATOM      6  C   UNL     1       0.884   8.183  21.150  0.00  0.00    +0.000 A 
ATOM      7  C   UNL     1       0.449   9.389  20.654  0.00  0.00    +0.000 A 
ATOM      8  N   UNL     1      -0.430  10.304  21.220  0.00  0.00    +0.000 N 
ATOM      9  C   UNL     1      -0.597  11.375  20.335  0.00  0.00    +0.000 A 
ATOM     10  O   UNL     1      -1.316  12.343  20.490  0.00  0.00    +0.000 OA
ATOM     11  N   UNL     1       0.221  11.105  19.223  0.00  0.00    +0.000 N 
ATOM     12  C   UNL     1       0.849   9.878  19.417  0.00  0.00    +0.000 A 
ATOM     13  C   UNL     1       1.697   9.174  18.598  0.00  0.00    +0.000 A 
ATOM     14  C   UNL     1       2.137   7.926  19.072  0.00  0.00    +0.000 A 
ATOM     15 BR   UNL     1       3.237   6.889  17.911  0.00  0.00    +0.000 Br
ATOM     16  H   UNL     1      -0.918  10.210  22.097  0.00  0.00    +0.000 HD
ATOM     17  H   UNL     1       0.284  11.712  18.423  0.00  0.00    +0.000 HD
ENDBRANCH   3   5
BRANCH   2  18
ATOM     18  C   UNL     1       2.311   3.841  21.514  0.00  0.00    +0.000 C 
BRANCH  18  19
ATOM     19  O   UNL     1       3.540   3.440  20.919  0.00  0.00    +0.000 OA
BRANCH  19  20
ATOM     20  C   UNL     1       3.393   2.832  19.716  0.00  0.00    +0.000 C 
ATOM     21  O   UNL     1       2.535   2.014  19.431  0.00  0.00    +0.000 OA
BRANCH  20  22
ATOM     22  C   UNL     1       4.337   3.387  18.723  0.00  0.00    +0.000 A 
ATOM     23  C   UNL     1       5.453   4.054  19.234  0.00  0.00    +0.000 A 
ATOM     24  C   UNL     1       6.387   4.615  18.368  0.00  0.00    +0.000 A 
ATOM     25  C   UNL     1       6.217   4.536  16.978  0.00  0.00    +0.000 A 
ATOM     26  C   UNL     1       7.171   5.122  16.135  0.00  0.00    +0.000 A 
ATOM     27  C   UNL     1       7.027   5.079  14.750  0.00  0.00    +0.000 A 
ATOM     28  C   UNL     1       5.921   4.454  14.193  0.00  0.00    +0.000 A 
ATOM     29  C   UNL     1       4.958   3.867  15.018  0.00  0.00    +0.000 A 
ATOM     30  C   UNL     1       5.082   3.883  16.432  0.00  0.00    +0.000 A 
ATOM     31  C   UNL     1       4.143   3.307  17.333  0.00  0.00    +0.000 A 
BRANCH  31  32
ATOM     32  O   UNL     1       3.002   2.692  16.879  0.00  0.00    +0.000 OA
ATOM     33  H   UNL     1       2.649   2.101  17.560  0.00  0.00    +0.000 HD
ENDBRANCH  31  32
ENDBRANCH  20  22
ENDBRANCH  19  20
ENDBRANCH  18  19
ENDBRANCH   2  18
TORSDOF 6
ENDMDL
MODEL 4
REMARK VINA RESULT:      -7.8      6.200      7.687
REMARK  Name = 
REMARK  6 active torsions:
REMARK  status: ('A' for Active; 'I' for Inactive)
REMARK    1  A    between atoms: C_2  and  C_3
REMARK    2  A    between atoms: C_3  and  O_4
REMARK    3  A    between atoms: O_4  and  C_5
REMARK    4  A    between atoms: C_5  and  C_7
REMARK    5  A    between atoms: C_16  and  O_17
REMARK    6  A    between atoms: N_18  and  C_19
REMARK                            x       y       z     vdW  Elec       q    Type
REMARK                         _______ _______ _______ _____ _____    ______ ____
ROOT
ATOM      1  O   UNL     1       7.857   9.267  17.215  0.00  0.00    +0.000 OA
ATOM      2  C   UNL     1       8.420   8.824  18.215  0.00  0.00    +0.000 C 
ATOM      3  N   UNL     1       9.267   9.533  19.052  0.00  0.00    +0.000 N 
ATOM      4  H   UNL     1       9.781   8.991  19.742  0.00  0.00    +0.000 HD
ENDROOT
BRANCH   3   5
ATOM      5  C   UNL     1       9.567  10.917  18.975  0.00  0.00    +0.000 A 
ATOM      6  C   UNL     1      10.023  11.498  17.783  0.00  0.00    +0.000 A 
ATOM      7  C   UNL     1      10.280  12.847  17.787  0.00  0.00    +0.000 A 
ATOM      8  N   UNL     1      10.775  13.648  16.766  0.00  0.00    +0.000 N 
ATOM      9  C   UNL     1      10.898  14.960  17.240  0.00  0.00    +0.000 A 
ATOM     10  O   UNL     1      11.326  15.919  16.629  0.00  0.00    +0.000 OA
ATOM     11  N   UNL     1      10.442  14.946  18.571  0.00  0.00    +0.000 N 
ATOM     12  C   UNL     1      10.078  13.645  18.906  0.00  0.00    +0.000 A 
ATOM     13  C   UNL     1       9.622  13.128  20.094  0.00  0.00    +0.000 A 
ATOM     14  C   UNL     1       9.376  11.743  20.123  0.00  0.00    +0.000 A 
ATOM     15 BR   UNL     1       8.836  10.988  21.787  0.00  0.00    +0.000 Br
ATOM     16  H   UNL     1      11.056  13.350  15.845  0.00  0.00    +0.000 HD
ATOM     17  H   UNL     1      10.431  15.762  19.160  0.00  0.00    +0.000 HD
ENDBRANCH   3   5
BRANCH   2  18
ATOM     18  C   UNL     1       8.136   7.401  18.690  0.00  0.00    +0.000 C 
BRANCH  18  19
ATOM     19  O   UNL     1       6.924   6.844  18.193  0.00  0.00    +0.000 OA
BRANCH  19  20
ATOM     20  C   UNL     1       6.825   5.504  18.372  0.00  0.00    +0.000 C 
ATOM     21  O   UNL     1       7.742   4.751  18.651  0.00  0.00    +0.000 OA
BRANCH  20  22
ATOM     22  C   UNL     1       5.414   5.066  18.314  0.00  0.00    +0.000 A 
ATOM     23  C   UNL     1       4.523   5.925  17.668  0.00  0.00    +0.000 A 
ATOM     24  C   UNL     1       3.175   5.594  17.577  0.00  0.00    +0.000 A 
ATOM     25  C   UNL     1       2.687   4.407  18.144  0.00  0.00    +0.000 A 
ATOM     26  C   UNL     1       1.321   4.109  18.045  0.00  0.00    +0.000 A 
ATOM     27  C   UNL     1       0.797   2.949  18.610  0.00  0.00    +0.000 A 
ATOM     28  C   UNL     1       1.635   2.076  19.288  0.00  0.00    +0.000 A 
ATOM     29  C   UNL     1       2.999   2.358  19.400  0.00  0.00    +0.000 A 
ATOM     30  C   UNL     1       3.566   3.525  18.825  0.00  0.00    +0.000 A 
ATOM     31  C   UNL     1       4.942   3.877  18.898  0.00  0.00    +0.000 A 
BRANCH  31  32
ATOM     32  O   UNL     1       5.845   3.092  19.573  0.00  0.00    +0.000 OA
ATOM     33  H   UNL     1       6.742   3.435  19.450  0.00  0.00    +0.000 HD
ENDBRANCH  31  32
ENDBRANCH  20  22
ENDBRANCH  19  20
ENDBRANCH  18  19
ENDBRANCH   2  18
TORSDOF 6
ENDMDL
MODEL 5
REMARK VINA RESULT:      -7.8      3.588      9.817
REMARK  Name = 
REMARK  6 active torsions:
REMARK  status: ('A' for Active; 'I' for Inactive)
REMARK    1  A    between atoms: C_2  and  C_3
REMARK    2  A    between atoms: C_3  and  O_4
REMARK    3  A    between atoms: O_4  and  C_5
REMARK    4  A    between atoms: C_5  and  C_7
REMARK    5  A    between atoms: C_16  and  O_17
REMARK    6  A    between atoms: N_18  and  C_19
REMARK                            x       y       z     vdW  Elec       q    Type
REMARK                         _______ _______ _______ _____ _____    ______ ____
ROOT
ATOM      1  O   UNL     1       2.005   8.992  17.630  0.00  0.00    +0.000 OA
ATOM      2  C   UNL     1       1.868   8.380  18.689  0.00  0.00    +0.000 C 
ATOM      3  N   UNL     1       2.379   7.124  18.974  0.00  0.00    +0.000 N 
ATOM      4  H   UNL     1       2.049   6.683  19.828  0.00  0.00    +0.000 HD
ENDROOT
BRANCH   3   5
ATOM      5  C   UNL     1       3.230   6.350  18.145  0.00  0.00    +0.000 A 
ATOM      6  C   UNL     1       4.305   6.932  17.459  0.00  0.00    +0.000 A 
ATOM      7  C   UNL     1       5.090   6.112  16.685  0.00  0.00    +0.000 A 
ATOM      8  N   UNL     1       6.174   6.438  15.880  0.00  0.00    +0.000 N 
ATOM      9  C   UNL     1       6.643   5.275  15.260  0.00  0.00    +0.000 A 
ATOM     10  O   UNL     1       7.559   5.190  14.466  0.00  0.00    +0.000 OA
ATOM     11  N   UNL     1       5.834   4.222  15.725  0.00  0.00    +0.000 N 
ATOM     12  C   UNL     1       4.873   4.742  16.587  0.00  0.00    +0.000 A 
ATOM     13  C   UNL     1       3.842   4.122  17.248  0.00  0.00    +0.000 A 
ATOM     14  C   UNL     1       3.009   4.945  18.026  0.00  0.00    +0.000 A 
ATOM     15 BR   UNL     1       1.514   4.120  18.874  0.00  0.00    +0.000 Br
ATOM     16  H   UNL     1       6.547   7.360  15.714  0.00  0.00    +0.000 HD
ATOM     17  H   UNL     1       5.945   3.267  15.427  0.00  0.00    +0.000 HD
ENDBRANCH   3   5
BRANCH   2  18
ATOM     18  C   UNL     1       1.165   9.041  19.873  0.00  0.00    +0.000 C 
BRANCH  18  19
ATOM     19  O   UNL     1       0.331  10.140  19.524  0.00  0.00    +0.000 OA
BRANCH  19  20
ATOM     20  C   UNL     1       0.440  11.197  20.365  0.00  0.00    +0.000 C 
ATOM     21  O   UNL     1       1.476  11.766  20.665  0.00  0.00    +0.000 OA
BRANCH  20  22
ATOM     22  C   UNL     1      -0.893  11.677  20.789  0.00  0.00    +0.000 A 
ATOM     23  C   UNL     1      -1.726  12.163  19.779  0.00  0.00    +0.000 A 
ATOM     24  C   UNL     1      -2.994  12.643  20.092  0.00  0.00    +0.000 A 
ATOM     25  C   UNL     1      -3.448  12.662  21.419  0.00  0.00    +0.000 A 
ATOM     26  C   UNL     1      -4.726  13.163  21.701  0.00  0.00    +0.000 A 
ATOM     27  C   UNL     1      -5.205  13.214  23.008  0.00  0.00    +0.000 A 
ATOM     28  C   UNL     1      -4.406  12.769  24.050  0.00  0.00    +0.000 A 
ATOM     29  C   UNL     1      -3.127  12.269  23.789  0.00  0.00    +0.000 A 
ATOM     30  C   UNL     1      -2.615  12.193  22.467  0.00  0.00    +0.000 A 
ATOM     31  C   UNL     1      -1.326  11.697  22.126  0.00  0.00    +0.000 A 
BRANCH  31  32
ATOM     32  O   UNL     1      -0.450  11.262  23.090  0.00  0.00    +0.000 OA
ATOM     33  H   UNL     1      -0.017  12.018  23.513  0.00  0.00    +0.000 HD
ENDBRANCH  31  32
ENDBRANCH  20  22
ENDBRANCH  19  20
ENDBRANCH  18  19
ENDBRANCH   2  18
TORSDOF 6
ENDMDL
MODEL 6
REMARK VINA RESULT:      -7.8      3.443      9.586
REMARK  Name = 
REMARK  6 active torsions:
REMARK  status: ('A' for Active; 'I' for Inactive)
REMARK    1  A    between atoms: C_2  and  C_3
REMARK    2  A    between atoms: C_3  and  O_4
REMARK    3  A    between atoms: O_4  and  C_5
REMARK    4  A    between atoms: C_5  and  C_7
REMARK    5  A    between atoms: C_16  and  O_17
REMARK    6  A    between atoms: N_18  and  C_19
REMARK                            x       y       z     vdW  Elec       q    Type
REMARK                         _______ _______ _______ _____ _____    ______ ____
ROOT
ATOM      1  O   UNL     1       2.223   8.873  17.376  0.00  0.00    +0.000 OA
ATOM      2  C   UNL     1       2.116   8.297  18.458  0.00  0.00    +0.000 C 
ATOM      3  N   UNL     1       2.642   7.054  18.773  0.00  0.00    +0.000 N 
ATOM      4  H   UNL     1       2.335   6.641  19.650  0.00  0.00    +0.000 HD
ENDROOT
BRANCH   3   5
ATOM      5  C   UNL     1       3.477   6.257  17.950  0.00  0.00    +0.000 A 
ATOM      6  C   UNL     1       4.602   6.798  17.312  0.00  0.00    +0.000 A 
ATOM      7  C   UNL     1       5.368   5.957  16.542  0.00  0.00    +0.000 A 
ATOM      8  N   UNL     1       6.492   6.246  15.779  0.00  0.00    +0.000 N 
ATOM      9  C   UNL     1       6.920   5.074  15.143  0.00  0.00    +0.000 A 
ATOM     10  O   UNL     1       7.855   4.961  14.376  0.00  0.00    +0.000 OA
ATOM     11  N   UNL     1       6.043   4.054  15.557  0.00  0.00    +0.000 N 
ATOM     12  C   UNL     1       5.084   4.604  16.402  0.00  0.00    +0.000 A 
ATOM     13  C   UNL     1       4.001   4.022  17.016  0.00  0.00    +0.000 A 
ATOM     14  C   UNL     1       3.188   4.869  17.789  0.00  0.00    +0.000 A 
ATOM     15 BR   UNL     1       1.626   4.103  18.569  0.00  0.00    +0.000 Br
ATOM     16  H   UNL     1       6.917   7.150  15.648  0.00  0.00    +0.000 HD
ATOM     17  H   UNL     1       6.114   3.102  15.238  0.00  0.00    +0.000 HD
ENDBRANCH   3   5
BRANCH   2  18
ATOM     18  C   UNL     1       1.438   8.994  19.635  0.00  0.00    +0.000 C 
BRANCH  18  19
ATOM     19  O   UNL     1       0.161   9.548  19.335  0.00  0.00    +0.000 OA
BRANCH  19  20
ATOM     20  C   UNL     1       0.098  10.892  19.495  0.00  0.00    +0.000 C 
ATOM     21  O   UNL     1       1.052  11.644  19.602  0.00  0.00    +0.000 OA
BRANCH  20  22
ATOM     22  C   UNL     1      -1.297  11.373  19.392  0.00  0.00    +0.000 A 
ATOM     23  C   UNL     1      -1.814  12.020  20.516  0.00  0.00    +0.000 A 
ATOM     24  C   UNL     1      -3.122  12.495  20.508  0.00  0.00    +0.000 A 
ATOM     25  C   UNL     1      -3.943  12.319  19.385  0.00  0.00    +0.000 A 
ATOM     26  C   UNL     1      -5.259  12.799  19.414  0.00  0.00    +0.000 A 
ATOM     27  C   UNL     1      -6.110  12.628  18.324  0.00  0.00    +0.000 A 
ATOM     28  C   UNL     1      -5.654  11.966  17.194  0.00  0.00    +0.000 A 
ATOM     29  C   UNL     1      -4.346  11.477  17.148  0.00  0.00    +0.000 A 
ATOM     30  C   UNL     1      -3.451  11.646  18.236  0.00  0.00    +0.000 A 
ATOM     31  C   UNL     1      -2.108  11.177  18.261  0.00  0.00    +0.000 A 
BRANCH  31  32
ATOM     32  O   UNL     1      -1.574  10.484  17.201  0.00  0.00    +0.000 OA
ATOM     33  H   UNL     1      -0.975  11.055  16.699  0.00  0.00    +0.000 HD
ENDBRANCH  31  32
ENDBRANCH  20  22
ENDBRANCH  19  20
ENDBRANCH  18  19
ENDBRANCH   2  18
TORSDOF 6
ENDMDL
MODEL 7
REMARK VINA RESULT:      -7.7      6.662      8.216
REMARK  Name = 
REMARK  6 active torsions:
REMARK  status: ('A' for Active; 'I' for Inactive)
REMARK    1  A    between atoms: C_2  and  C_3
REMARK    2  A    between atoms: C_3  and  O_4
REMARK    3  A    between atoms: O_4  and  C_5
REMARK    4  A    between atoms: C_5  and  C_7
REMARK    5  A    between atoms: C_16  and  O_17
REMARK    6  A    between atoms: N_18  and  C_19
REMARK                            x       y       z     vdW  Elec       q    Type
REMARK                         _______ _______ _______ _____ _____    ______ ____
ROOT
ATOM      1  O   UNL     1       7.293  10.507  17.422  0.00  0.00    +0.000 OA
ATOM      2  C   UNL     1       8.223   9.788  17.788  0.00  0.00    +0.000 C 
ATOM      3  N   UNL     1       9.473  10.223  18.198  0.00  0.00    +0.000 N 
ATOM      4  H   UNL     1      10.185   9.507  18.316  0.00  0.00    +0.000 HD
ENDROOT
BRANCH   3   5
ATOM      5  C   UNL     1       9.886  11.569  18.367  0.00  0.00    +0.000 A 
ATOM      6  C   UNL     1      10.352  12.328  17.285  0.00  0.00    +0.000 A 
ATOM      7  C   UNL     1      10.722  13.629  17.529  0.00  0.00    +0.000 A 
ATOM      8  N   UNL     1      11.252  14.569  16.654  0.00  0.00    +0.000 N 
ATOM      9  C   UNL     1      11.500  15.753  17.359  0.00  0.00    +0.000 A 
ATOM     10  O   UNL     1      11.988  16.775  16.918  0.00  0.00    +0.000 OA
ATOM     11  N   UNL     1      11.085  15.522  18.683  0.00  0.00    +0.000 N 
ATOM     12  C   UNL     1      10.623  14.213  18.786  0.00  0.00    +0.000 A 
ATOM     13  C   UNL     1      10.162  13.516  19.876  0.00  0.00    +0.000 A 
ATOM     14  C   UNL     1       9.801  12.174  19.657  0.00  0.00    +0.000 A 
ATOM     15 BR   UNL     1       9.251  11.160  21.174  0.00  0.00    +0.000 Br
ATOM     16  H   UNL     1      11.477  14.430  15.681  0.00  0.00    +0.000 HD
ATOM     17  H   UNL     1      11.161  16.210  19.414  0.00  0.00    +0.000 HD
ENDBRANCH   3   5
BRANCH   2  18
ATOM     18  C   UNL     1       8.024   8.280  17.915  0.00  0.00    +0.000 C 
BRANCH  18  19
ATOM     19  O   UNL     1       7.005   7.747  17.076  0.00  0.00    +0.000 OA
BRANCH  19  20
ATOM     20  C   UNL     1       6.910   6.395  17.123  0.00  0.00    +0.000 C 
ATOM     21  O   UNL     1       7.795   5.607  16.834  0.00  0.00    +0.000 OA
BRANCH  20  22
ATOM     22  C   UNL     1       5.618   5.975  17.705  0.00  0.00    +0.000 A 
ATOM     23  C   UNL     1       4.539   6.840  17.508  0.00  0.00    +0.000 A 
ATOM     24  C   UNL     1       3.288   6.526  18.031  0.00  0.00    +0.000 A 
ATOM     25  C   UNL     1       3.094   5.351  18.773  0.00  0.00    +0.000 A 
ATOM     26  C   UNL     1       1.824   5.070  19.294  0.00  0.00    +0.000 A 
ATOM     27  C   UNL     1       1.596   3.923  20.050  0.00  0.00    +0.000 A 
ATOM     28  C   UNL     1       2.641   3.046  20.298  0.00  0.00    +0.000 A 
ATOM     29  C   UNL     1       3.915   3.310  19.789  0.00  0.00    +0.000 A 
ATOM     30  C   UNL     1       4.177   4.464  19.005  0.00  0.00    +0.000 A 
ATOM     31  C   UNL     1       5.445   4.798  18.454  0.00  0.00    +0.000 A 
BRANCH  31  32
ATOM     32  O   UNL     1       6.548   4.008  18.669  0.00  0.00    +0.000 OA
ATOM     33  H   UNL     1       6.481   3.195  18.147  0.00  0.00    +0.000 HD
ENDBRANCH  31  32
ENDBRANCH  20  22
ENDBRANCH  19  20
ENDBRANCH  18  19
ENDBRANCH   2  18
TORSDOF 6
ENDMDL
MODEL 8
REMARK VINA RESULT:      -7.7      3.271      7.210
REMARK  Name = 
REMARK  6 active torsions:
REMARK  status: ('A' for Active; 'I' for Inactive)
REMARK    1  A    between atoms: C_2  and  C_3
REMARK    2  A    between atoms: C_3  and  O_4
REMARK    3  A    between atoms: O_4  and  C_5
REMARK    4  A    between atoms: C_5  and  C_7
REMARK    5  A    between atoms: C_16  and  O_17
REMARK    6  A    between atoms: N_18  and  C_19
REMARK                            x       y       z     vdW  Elec       q    Type
REMARK                         _______ _______ _______ _____ _____    ______ ____
ROOT
ATOM      1  O   UNL     1       2.493   2.838  16.695  0.00  0.00    +0.000 OA
ATOM      2  C   UNL     1       3.042   2.978  17.787  0.00  0.00    +0.000 C 
ATOM      3  N   UNL     1       4.331   3.441  17.996  0.00  0.00    +0.000 N 
ATOM      4  H   UNL     1       4.699   3.349  18.939  0.00  0.00    +0.000 HD
ENDROOT
BRANCH   3   5
ATOM      5  C   UNL     1       5.223   3.930  17.008  0.00  0.00    +0.000 A 
ATOM      6  C   UNL     1       5.117   3.531  15.668  0.00  0.00    +0.000 A 
ATOM      7  C   UNL     1       6.011   4.060  14.770  0.00  0.00    +0.000 A 
ATOM      8  N   UNL     1       6.149   3.799  13.413  0.00  0.00    +0.000 N 
ATOM      9  C   UNL     1       7.219   4.553  12.914  0.00  0.00    +0.000 A 
ATOM     10  O   UNL     1       7.642   4.553  11.775  0.00  0.00    +0.000 OA
ATOM     11  N   UNL     1       7.717   5.301  13.996  0.00  0.00    +0.000 N 
ATOM     12  C   UNL     1       6.983   4.983  15.136  0.00  0.00    +0.000 A 
ATOM     13  C   UNL     1       7.122   5.416  16.432  0.00  0.00    +0.000 A 
ATOM     14  C   UNL     1       6.233   4.869  17.375  0.00  0.00    +0.000 A 
ATOM     15 BR   UNL     1       6.471   5.381  19.196  0.00  0.00    +0.000 Br
ATOM     16  H   UNL     1       5.614   3.143  12.865  0.00  0.00    +0.000 HD
ATOM     17  H   UNL     1       8.502   5.926  13.921  0.00  0.00    +0.000 HD
ENDBRANCH   3   5
BRANCH   2  18
ATOM     18  C   UNL     1       2.263   2.727  19.076  0.00  0.00    +0.000 C 
BRANCH  18  19
ATOM     19  O   UNL     1       1.522   3.848  19.545  0.00  0.00    +0.000 OA
BRANCH  19  20
ATOM     20  C   UNL     1       2.188   4.603  20.452  0.00  0.00    +0.000 C 
ATOM     21  O   UNL     1       3.000   4.192  21.264  0.00  0.00    +0.000 OA
BRANCH  20  22
ATOM     22  C   UNL     1       1.906   6.040  20.253  0.00  0.00    +0.000 A 
ATOM     23  C   UNL     1       1.185   6.677  21.266  0.00  0.00    +0.000 A 
ATOM     24  C   UNL     1       0.869   8.027  21.154  0.00  0.00    +0.000 A 
ATOM     25  C   UNL     1       1.251   8.764  20.024  0.00  0.00    +0.000 A 
ATOM     26  C   UNL     1       0.906  10.120  19.938  0.00  0.00    +0.000 A 
ATOM     27  C   UNL     1       1.253  10.879  18.823  0.00  0.00    +0.000 A 
ATOM     28  C   UNL     1       1.944  10.287  17.777  0.00  0.00    +0.000 A 
ATOM     29  C   UNL     1       2.294   8.936  17.843  0.00  0.00    +0.000 A 
ATOM     30  C   UNL     1       1.966   8.138  18.970  0.00  0.00    +0.000 A 
ATOM     31  C   UNL     1       2.289   6.759  19.108  0.00  0.00    +0.000 A 
BRANCH  31  32
ATOM     32  O   UNL     1       2.946   6.077  18.113  0.00  0.00    +0.000 OA
ATOM     33  H   UNL     1       2.333   5.866  17.393  0.00  0.00    +0.000 HD
ENDBRANCH  31  32
ENDBRANCH  20  22
ENDBRANCH  19  20
ENDBRANCH  18  19
ENDBRANCH   2  18
TORSDOF 6
ENDMDL
MODEL 9
REMARK VINA RESULT:      -7.7      3.426      9.358
REMARK  Name = 
REMARK  6 active torsions:
REMARK  status: ('A' for Active; 'I' for Inactive)
REMARK    1  A    between atoms: C_2  and  C_3
REMARK    2  A    between atoms: C_3  and  O_4
REMARK    3  A    between atoms: O_4  and  C_5
REMARK    4  A    between atoms: C_5  and  C_7
REMARK    5  A    between atoms: C_16  and  O_17
REMARK    6  A    between atoms: N_18  and  C_19
REMARK                            x       y       z     vdW  Elec       q    Type
REMARK                         _______ _______ _______ _____ _____    ______ ____
ROOT
ATOM      1  O   UNL     1       1.908   8.708  17.632  0.00  0.00    +0.000 OA
ATOM      2  C   UNL     1       2.030   8.187  18.739  0.00  0.00    +0.000 C 
ATOM      3  N   UNL     1       2.714   7.013  19.014  0.00  0.00    +0.000 N 
ATOM      4  H   UNL     1       2.592   6.625  19.946  0.00  0.00    +0.000 HD
ENDROOT
BRANCH   3   5
ATOM      5  C   UNL     1       3.478   6.246  18.099  0.00  0.00    +0.000 A 
ATOM      6  C   UNL     1       4.586   6.793  17.437  0.00  0.00    +0.000 A 
ATOM      7  C   UNL     1       5.282   5.980  16.575  0.00  0.00    +0.000 A 
ATOM      8  N   UNL     1       6.374   6.283  15.773  0.00  0.00    +0.000 N 
ATOM      9  C   UNL     1       6.728   5.144  15.041  0.00  0.00    +0.000 A 
ATOM     10  O   UNL     1       7.619   5.052  14.219  0.00  0.00    +0.000 OA
ATOM     11  N   UNL     1       5.839   4.127  15.434  0.00  0.00    +0.000 N 
ATOM     12  C   UNL     1       4.944   4.649  16.364  0.00  0.00    +0.000 A 
ATOM     13  C   UNL     1       3.875   4.062  16.996  0.00  0.00    +0.000 A 
ATOM     14  C   UNL     1       3.132   4.881  17.864  0.00  0.00    +0.000 A 
ATOM     15 BR   UNL     1       1.587   4.115  18.676  0.00  0.00    +0.000 Br
ATOM     16  H   UNL     1       6.824   7.181  15.677  0.00  0.00    +0.000 HD
ATOM     17  H   UNL     1       5.861   3.196  15.052  0.00  0.00    +0.000 HD
ENDBRANCH   3   5
BRANCH   2  18
ATOM     18  C   UNL     1       1.487   8.887  19.982  0.00  0.00    +0.000 C 
BRANCH  18  19
ATOM     19  O   UNL     1       0.113   9.250  19.902  0.00  0.00    +0.000 OA
BRANCH  19  20
ATOM     20  C   UNL     1      -0.094  10.582  19.767  0.00  0.00    +0.000 C 
ATOM     21  O   UNL     1       0.696  11.461  20.069  0.00  0.00    +0.000 OA
BRANCH  20  22
ATOM     22  C   UNL     1      -1.371  10.853  19.074  0.00  0.00    +0.000 A 
ATOM     23  C   UNL     1      -1.507  10.316  17.792  0.00  0.00    +0.000 A 
ATOM     24  C   UNL     1      -2.674  10.531  17.065  0.00  0.00    +0.000 A 
ATOM     25  C   UNL     1      -3.720  11.299  17.597  0.00  0.00    +0.000 A 
ATOM     26  C   UNL     1      -4.877  11.505  16.834  0.00  0.00    +0.000 A 
ATOM     27  C   UNL     1      -5.931  12.276  17.321  0.00  0.00    +0.000 A 
ATOM     28  C   UNL     1      -5.834  12.855  18.577  0.00  0.00    +0.000 A 
ATOM     29  C   UNL     1      -4.687  12.663  19.352  0.00  0.00    +0.000 A 
ATOM     30  C   UNL     1      -3.602  11.873  18.889  0.00  0.00    +0.000 A 
ATOM     31  C   UNL     1      -2.405  11.634  19.620  0.00  0.00    +0.000 A 
BRANCH  31  32
ATOM     32  O   UNL     1      -2.203  12.188  20.860  0.00  0.00    +0.000 OA
ATOM     33  H   UNL     1      -3.051  12.441  21.254  0.00  0.00    +0.000 HD
ENDBRANCH  31  32
ENDBRANCH  20  22
ENDBRANCH  19  20
ENDBRANCH  18  19
ENDBRANCH   2  18
TORSDOF 6
ENDMDL
