MODEL 1
REMARK VINA RESULT:      -8.2      0.000      0.000
REMARK  Name = 
REMARK  4 active torsions:
REMARK  status: ('A' for Active; 'I' for Inactive)
REMARK    1  A    between atoms: C_2  and  C_18
REMARK    2  A    between atoms: N_3  and  C_4
REMARK    3  A    between atoms: C_4  and  C_5
REMARK    4  A    between atoms: N_8  and  C_9
REMARK                            x       y       z     vdW  Elec       q    Type
REMARK                         _______ _______ _______ _____ _____    ______ ____
ROOT
ATOM      1  O   UNL     1       2.504   4.742  21.319  0.00  0.00    +0.000 OA
ATOM      2  C   UNL     1       1.909   5.122  20.321  0.00  0.00    +0.000 C 
ATOM      3  N   UNL     1       1.327   4.283  19.392  0.00  0.00    +0.000 N 
ATOM      4  H   UNL     1       1.157   4.670  18.472  0.00  0.00    +0.000 HD
ENDROOT
BRANCH   2   5
ATOM      5  C   UNL     1       1.790   6.577  20.030  0.00  0.00    +0.000 A 
ATOM      6  C   UNL     1       1.210   7.410  20.992  0.00  0.00    +0.000 A 
ATOM      7  C   UNL     1       1.033   8.783  20.766  0.00  0.00    +0.000 A 
ATOM      8  C   UNL     1       1.453   9.260  19.522  0.00  0.00    +0.000 A 
ATOM      9  N   UNL     1       1.419  10.492  18.929  0.00  0.00    +0.000 N 
ATOM     10  N   UNL     1       1.946  10.467  17.695  0.00  0.00    +0.000 NA
ATOM     11  N   UNL     1       2.324   9.218  17.447  0.00  0.00    +0.000 NA
ATOM     12  C   UNL     1       2.028   8.458  18.548  0.00  0.00    +0.000 A 
ATOM     13  C   UNL     1       2.206   7.089  18.788  0.00  0.00    +0.000 A 
ATOM     14  H   UNL     1       1.054  11.366  19.286  0.00  0.00    +0.000 HD
ENDBRANCH   2   5
BRANCH   3  15
ATOM     15  C   UNL     1       1.387   2.837  19.476  0.00  0.00    +0.000 C 
BRANCH  15  16
ATOM     16  C   UNL     1       2.224   2.168  18.378  0.00  0.00    +0.000 C 
ATOM     17  C   UNL     1       3.526   1.587  18.922  0.00  0.00    +0.000 C 
ATOM     18  C   UNL     1       4.467   2.784  18.951  0.00  0.00    +0.000 C 
ATOM     19  N   UNL     1       4.077   3.565  17.768  0.00  0.00    +0.000 N 
ATOM     20  C   UNL     1       2.736   3.143  17.311  0.00  0.00    +0.000 C 
BRANCH  19  21
ATOM     21  C   UNL     1       5.049   3.964  16.856  0.00  0.00    +0.000 A 
ATOM     22  C   UNL     1       6.199   4.680  17.246  0.00  0.00    +0.000 A 
ATOM     23  C   UNL     1       7.133   5.151  16.314  0.00  0.00    +0.000 A 
ATOM     24  C   UNL     1       6.955   4.880  14.968  0.00  0.00    +0.000 A 
ATOM     25  F   UNL     1       7.832   5.349  14.074  0.00  0.00    +0.000 F 
ATOM     26  C   UNL     1       5.872   4.117  14.560  0.00  0.00    +0.000 A 
ATOM     27  F   UNL     1       5.699   3.832  13.261  0.00  0.00    +0.000 F 
ATOM     28  C   UNL     1       4.943   3.652  15.490  0.00  0.00    +0.000 A 
ENDBRANCH  19  21
ENDBRANCH  15  16
ENDBRANCH   3  15
TORSDOF 4
ENDMDL
MODEL 2
REMARK VINA RESULT:      -8.2      0.608      1.331
REMARK  Name = 
REMARK  4 active torsions:
REMARK  status: ('A' for Active; 'I' for Inactive)
REMARK    1  A    between atoms: C_2  and  C_18
REMARK    2  A    between atoms: N_3  and  C_4
REMARK    3  A    between atoms: C_4  and  C_5
REMARK    4  A    between atoms: N_8  and  C_9
REMARK                            x       y       z     vdW  Elec       q    Type
REMARK                         _______ _______ _______ _____ _____    ______ ____
ROOT
ATOM      1  O   UNL     1       2.432   4.773  21.496  0.00  0.00    +0.000 OA
ATOM      2  C   UNL     1       1.884   5.125  20.461  0.00  0.00    +0.000 C 
ATOM      3  N   UNL     1       1.371   4.261  19.516  0.00  0.00    +0.000 N 
ATOM      4  H   UNL     1       1.242   4.630  18.582  0.00  0.00    +0.000 HD
ENDROOT
BRANCH   2   5
ATOM      5  C   UNL     1       1.750   6.573  20.142  0.00  0.00    +0.000 A 
ATOM      6  C   UNL     1       1.145   7.416  21.080  0.00  0.00    +0.000 A 
ATOM      7  C   UNL     1       0.953   8.782  20.827  0.00  0.00    +0.000 A 
ATOM      8  C   UNL     1       1.384   9.242  19.581  0.00  0.00    +0.000 A 
ATOM      9  N   UNL     1       1.342  10.461  18.965  0.00  0.00    +0.000 N 
ATOM     10  N   UNL     1       1.887  10.421  17.738  0.00  0.00    +0.000 NA
ATOM     11  N   UNL     1       2.285   9.174  17.518  0.00  0.00    +0.000 NA
ATOM     12  C   UNL     1       1.983   8.430  18.629  0.00  0.00    +0.000 A 
ATOM     13  C   UNL     1       2.177   7.068  18.896  0.00  0.00    +0.000 A 
ATOM     14  H   UNL     1       0.960  11.337  19.300  0.00  0.00    +0.000 HD
ENDBRANCH   2   5
BRANCH   3  15
ATOM     15  C   UNL     1       1.458   2.817  19.625  0.00  0.00    +0.000 C 
BRANCH  15  16
ATOM     16  C   UNL     1       2.407   2.156  18.618  0.00  0.00    +0.000 C 
ATOM     17  C   UNL     1       3.764   1.831  19.234  0.00  0.00    +0.000 C 
ATOM     18  C   UNL     1       4.526   3.146  19.134  0.00  0.00    +0.000 C 
ATOM     19  N   UNL     1       4.058   3.727  17.866  0.00  0.00    +0.000 N 
ATOM     20  C   UNL     1       2.801   3.069  17.450  0.00  0.00    +0.000 C 
BRANCH  19  21
ATOM     21  C   UNL     1       4.986   4.156  16.922  0.00  0.00    +0.000 A 
ATOM     22  C   UNL     1       5.078   3.577  15.640  0.00  0.00    +0.000 A 
ATOM     23  C   UNL     1       6.068   3.956  14.723  0.00  0.00    +0.000 A 
ATOM     24  C   UNL     1       6.967   4.954  15.058  0.00  0.00    +0.000 A 
ATOM     25  F   UNL     1       7.927   5.300  14.194  0.00  0.00    +0.000 F 
ATOM     26  C   UNL     1       6.858   5.592  16.284  0.00  0.00    +0.000 A 
ATOM     27  F   UNL     1       7.711   6.573  16.612  0.00  0.00    +0.000 F 
ATOM     28  C   UNL     1       5.873   5.211  17.194  0.00  0.00    +0.000 A 
ENDBRANCH  19  21
ENDBRANCH  15  16
ENDBRANCH   3  15
TORSDOF 4
ENDMDL
MODEL 3
REMARK VINA RESULT:      -8.0      0.693      1.381
REMARK  Name = 
REMARK  4 active torsions:
REMARK  status: ('A' for Active; 'I' for Inactive)
REMARK    1  A    between atoms: C_2  and  C_18
REMARK    2  A    between atoms: N_3  and  C_4
REMARK    3  A    between atoms: C_4  and  C_5
REMARK    4  A    between atoms: N_8  and  C_9
REMARK                            x       y       z     vdW  Elec       q    Type
REMARK                         _______ _______ _______ _____ _____    ______ ____
ROOT
ATOM      1  O   UNL     1       2.534   5.379  21.260  0.00  0.00    +0.000 OA
ATOM      2  C   UNL     1       2.043   5.540  20.152  0.00  0.00    +0.000 C 
ATOM      3  N   UNL     1       1.620   4.516  19.329  0.00  0.00    +0.000 N 
ATOM      4  H   UNL     1       1.540   4.728  18.342  0.00  0.00    +0.000 HD
ENDROOT
BRANCH   2   5
ATOM      5  C   UNL     1       1.883   6.912  19.598  0.00  0.00    +0.000 A 
ATOM      6  C   UNL     1       2.352   7.175  18.307  0.00  0.00    +0.000 A 
ATOM      7  C   UNL     1       2.268   8.455  17.739  0.00  0.00    +0.000 A 
ATOM      8  C   UNL     1       1.707   9.448  18.545  0.00  0.00    +0.000 A 
ATOM      9  N   UNL     1       1.489  10.786  18.370  0.00  0.00    +0.000 N 
ATOM     10  N   UNL     1       0.912  11.344  19.447  0.00  0.00    +0.000 NA
ATOM     11  N   UNL     1       0.752  10.388  20.354  0.00  0.00    +0.000 NA
ATOM     12  C   UNL     1       1.236   9.218  19.829  0.00  0.00    +0.000 A 
ATOM     13  C   UNL     1       1.319   7.934  20.383  0.00  0.00    +0.000 A 
ATOM     14  H   UNL     1       1.708  11.374  17.576  0.00  0.00    +0.000 HD
ENDBRANCH   2   5
BRANCH   3  15
ATOM     15  C   UNL     1       1.746   3.113  19.673  0.00  0.00    +0.000 C 
BRANCH  15  16
ATOM     16  C   UNL     1       2.767   2.338  18.830  0.00  0.00    +0.000 C 
ATOM     17  C   UNL     1       4.126   2.243  19.517  0.00  0.00    +0.000 C 
ATOM     18  C   UNL     1       4.796   3.565  19.166  0.00  0.00    +0.000 C 
ATOM     19  N   UNL     1       4.324   3.847  17.802  0.00  0.00    +0.000 N 
ATOM     20  C   UNL     1       3.128   3.028  17.509  0.00  0.00    +0.000 C 
BRANCH  19  21
ATOM     21  C   UNL     1       5.245   4.148  16.803  0.00  0.00    +0.000 A 
ATOM     22  C   UNL     1       6.458   4.814  17.074  0.00  0.00    +0.000 A 
ATOM     23  C   UNL     1       7.343   5.189  16.055  0.00  0.00    +0.000 A 
ATOM     24  C   UNL     1       7.050   4.868  14.740  0.00  0.00    +0.000 A 
ATOM     25  F   UNL     1       7.882   5.246  13.764  0.00  0.00    +0.000 F 
ATOM     26  C   UNL     1       5.900   4.152  14.449  0.00  0.00    +0.000 A 
ATOM     27  F   UNL     1       5.614   3.821  13.181  0.00  0.00    +0.000 F 
ATOM     28  C   UNL     1       5.020   3.783  15.465  0.00  0.00    +0.000 A 
ENDBRANCH  19  21
ENDBRANCH  15  16
ENDBRANCH   3  15
TORSDOF 4
ENDMDL
MODEL 4
REMARK VINA RESULT:      -8.0      3.540      6.674
REMARK  Name = 
REMARK  4 active torsions:
REMARK  status: ('A' for Active; 'I' for Inactive)
REMARK    1  A    between atoms: C_2  and  C_18
REMARK    2  A    between atoms: N_3  and  C_4
REMARK    3  A    between atoms: C_4  and  C_5
REMARK    4  A    between atoms: N_8  and  C_9
REMARK                            x       y       z     vdW  Elec       q    Type
REMARK                         _______ _______ _______ _____ _____    ______ ____
ROOT
ATOM      1  O   UNL     1       2.860   3.528  16.867  0.00  0.00    +0.000 OA
ATOM      2  C   UNL     1       4.019   3.510  17.254  0.00  0.00    +0.000 C 
ATOM      3  N   UNL     1       4.426   3.023  18.479  0.00  0.00    +0.000 N 
ATOM      4  H   UNL     1       5.323   3.344  18.823  0.00  0.00    +0.000 HD
ENDROOT
BRANCH   2   5
ATOM      5  C   UNL     1       5.104   4.054  16.391  0.00  0.00    +0.000 A 
ATOM      6  C   UNL     1       5.947   5.041  16.912  0.00  0.00    +0.000 A 
ATOM      7  C   UNL     1       6.963   5.623  16.141  0.00  0.00    +0.000 A 
ATOM      8  C   UNL     1       7.069   5.172  14.823  0.00  0.00    +0.000 A 
ATOM      9  N   UNL     1       7.884   5.508  13.778  0.00  0.00    +0.000 N 
ATOM     10  N   UNL     1       7.608   4.791  12.677  0.00  0.00    +0.000 NA
ATOM     11  N   UNL     1       6.599   3.980  12.972  0.00  0.00    +0.000 NA
ATOM     12  C   UNL     1       6.246   4.197  14.278  0.00  0.00    +0.000 A 
ATOM     13  C   UNL     1       5.239   3.617  15.061  0.00  0.00    +0.000 A 
ATOM     14  H   UNL     1       8.620   6.201  13.736  0.00  0.00    +0.000 HD
ENDBRANCH   2   5
BRANCH   3  15
ATOM     15  C   UNL     1       3.509   2.505  19.476  0.00  0.00    +0.000 C 
BRANCH  15  16
ATOM     16  C   UNL     1       3.139   3.501  20.583  0.00  0.00    +0.000 C 
ATOM     17  C   UNL     1       1.635   3.547  20.835  0.00  0.00    +0.000 C 
ATOM     18  C   UNL     1       1.124   4.503  19.764  0.00  0.00    +0.000 C 
ATOM     19  N   UNL     1       2.201   5.496  19.637  0.00  0.00    +0.000 N 
ATOM     20  C   UNL     1       3.445   4.961  20.228  0.00  0.00    +0.000 C 
BRANCH  19  21
ATOM     21  C   UNL     1       1.899   6.852  19.715  0.00  0.00    +0.000 A 
ATOM     22  C   UNL     1       1.425   7.451  20.900  0.00  0.00    +0.000 A 
ATOM     23  C   UNL     1       1.043   8.798  20.951  0.00  0.00    +0.000 A 
ATOM     24  C   UNL     1       1.166   9.588  19.821  0.00  0.00    +0.000 A 
ATOM     25  F   UNL     1       0.780  10.868  19.861  0.00  0.00    +0.000 F 
ATOM     26  C   UNL     1       1.695   9.047  18.660  0.00  0.00    +0.000 A 
ATOM     27  F   UNL     1       1.835   9.808  17.565  0.00  0.00    +0.000 F 
ATOM     28  C   UNL     1       2.071   7.706  18.612  0.00  0.00    +0.000 A 
ENDBRANCH  19  21
ENDBRANCH  15  16
ENDBRANCH   3  15
TORSDOF 4
ENDMDL
MODEL 5
REMARK VINA RESULT:      -7.9      6.191     10.282
REMARK  Name = 
REMARK  4 active torsions:
REMARK  status: ('A' for Active; 'I' for Inactive)
REMARK    1  A    between atoms: C_2  and  C_18
REMARK    2  A    between atoms: N_3  and  C_4
REMARK    3  A    between atoms: C_4  and  C_5
REMARK    4  A    between atoms: N_8  and  C_9
REMARK                            x       y       z     vdW  Elec       q    Type
REMARK                         _______ _______ _______ _____ _____    ______ ____
ROOT
ATOM      1  O   UNL     1       2.101   8.488  18.900  0.00  0.00    +0.000 OA
ATOM      2  C   UNL     1       2.118   7.520  19.646  0.00  0.00    +0.000 C 
ATOM      3  N   UNL     1       1.772   7.557  20.981  0.00  0.00    +0.000 N 
ATOM      4  H   UNL     1       2.124   6.808  21.565  0.00  0.00    +0.000 HD
ENDROOT
BRANCH   2   5
ATOM      5  C   UNL     1       2.550   6.190  19.135  0.00  0.00    +0.000 A 
ATOM      6  C   UNL     1       3.387   6.139  18.016  0.00  0.00    +0.000 A 
ATOM      7  C   UNL     1       3.799   4.919  17.460  0.00  0.00    +0.000 A 
ATOM      8  C   UNL     1       3.311   3.766  18.079  0.00  0.00    +0.000 A 
ATOM      9  N   UNL     1       3.452   2.431  17.821  0.00  0.00    +0.000 N 
ATOM     10  N   UNL     1       2.780   1.677  18.706  0.00  0.00    +0.000 NA
ATOM     11  N   UNL     1       2.173   2.500  19.553  0.00  0.00    +0.000 NA
ATOM     12  C   UNL     1       2.478   3.785  19.188  0.00  0.00    +0.000 A 
ATOM     13  C   UNL     1       2.078   5.011  19.739  0.00  0.00    +0.000 A 
ATOM     14  H   UNL     1       3.964   1.971  17.079  0.00  0.00    +0.000 HD
ENDBRANCH   2   5
BRANCH   3  15
ATOM     15  C   UNL     1       1.380   8.772  21.670  0.00  0.00    +0.000 C 
BRANCH  15  16
ATOM     16  C   UNL     1      -0.127   9.057  21.656  0.00  0.00    +0.000 C 
ATOM     17  C   UNL     1      -0.531   9.957  20.493  0.00  0.00    +0.000 C 
ATOM     18  C   UNL     1      -0.241  11.360  21.009  0.00  0.00    +0.000 C 
ATOM     19  N   UNL     1      -0.567  11.281  22.442  0.00  0.00    +0.000 N 
ATOM     20  C   UNL     1      -0.614   9.866  22.865  0.00  0.00    +0.000 C 
BRANCH  19  21
ATOM     21  C   UNL     1      -1.421  12.223  23.005  0.00  0.00    +0.000 A 
ATOM     22  C   UNL     1      -1.049  13.573  23.174  0.00  0.00    +0.000 A 
ATOM     23  C   UNL     1      -1.880  14.499  23.817  0.00  0.00    +0.000 A 
ATOM     24  C   UNL     1      -3.126  14.100  24.273  0.00  0.00    +0.000 A 
ATOM     25  F   UNL     1      -3.911  14.977  24.908  0.00  0.00    +0.000 F 
ATOM     26  C   UNL     1      -3.550  12.799  24.060  0.00  0.00    +0.000 A 
ATOM     27  F   UNL     1      -4.761  12.407  24.480  0.00  0.00    +0.000 F 
ATOM     28  C   UNL     1      -2.719  11.879  23.421  0.00  0.00    +0.000 A 
ENDBRANCH  19  21
ENDBRANCH  15  16
ENDBRANCH   3  15
TORSDOF 4
ENDMDL
MODEL 6
REMARK VINA RESULT:      -7.9      0.923      1.984
REMARK  Name = 
REMARK  4 active torsions:
REMARK  status: ('A' for Active; 'I' for Inactive)
REMARK    1  A    between atoms: C_2  and  C_18
REMARK    2  A    between atoms: N_3  and  C_4
REMARK    3  A    between atoms: C_4  and  C_5
REMARK    4  A    between atoms: N_8  and  C_9
REMARK                            x       y       z     vdW  Elec       q    Type
REMARK                         _______ _______ _______ _____ _____    ______ ____
ROOT
ATOM      1  O   UNL     1       2.452   4.720  21.429  0.00  0.00    +0.000 OA
ATOM      2  C   UNL     1       1.851   5.081  20.428  0.00  0.00    +0.000 C 
ATOM      3  N   UNL     1       1.308   4.226  19.491  0.00  0.00    +0.000 N 
ATOM      4  H   UNL     1       1.130   4.611  18.571  0.00  0.00    +0.000 HD
ENDROOT
BRANCH   2   5
ATOM      5  C   UNL     1       1.680   6.533  20.143  0.00  0.00    +0.000 A 
ATOM      6  C   UNL     1       2.152   7.040  18.928  0.00  0.00    +0.000 A 
ATOM      7  C   UNL     1       2.058   8.403  18.613  0.00  0.00    +0.000 A 
ATOM      8  C   UNL     1       1.483   9.221  19.589  0.00  0.00    +0.000 A 
ATOM      9  N   UNL     1       1.252  10.566  19.670  0.00  0.00    +0.000 N 
ATOM     10  N   UNL     1       0.664  10.904  20.830  0.00  0.00    +0.000 NA
ATOM     11  N   UNL     1       0.510   9.791  21.538  0.00  0.00    +0.000 NA
ATOM     12  C   UNL     1       1.008   8.747  20.804  0.00  0.00    +0.000 A 
ATOM     13  C   UNL     1       1.102   7.381  21.104  0.00  0.00    +0.000 A 
ATOM     14  H   UNL     1       1.469  11.296  19.004  0.00  0.00    +0.000 HD
ENDBRANCH   2   5
BRANCH   3  15
ATOM     15  C   UNL     1       1.422   2.783  19.568  0.00  0.00    +0.000 C 
BRANCH  15  16
ATOM     16  C   UNL     1       2.314   2.154  18.490  0.00  0.00    +0.000 C 
ATOM     17  C   UNL     1       3.666   1.718  19.045  0.00  0.00    +0.000 C 
ATOM     18  C   UNL     1       4.491   2.998  19.022  0.00  0.00    +0.000 C 
ATOM     19  N   UNL     1       4.025   3.695  17.814  0.00  0.00    +0.000 N 
ATOM     20  C   UNL     1       2.728   3.132  17.383  0.00  0.00    +0.000 C 
BRANCH  19  21
ATOM     21  C   UNL     1       4.952   4.147  16.880  0.00  0.00    +0.000 A 
ATOM     22  C   UNL     1       5.027   3.618  15.575  0.00  0.00    +0.000 A 
ATOM     23  C   UNL     1       6.015   4.018  14.667  0.00  0.00    +0.000 A 
ATOM     24  C   UNL     1       6.930   4.991  15.034  0.00  0.00    +0.000 A 
ATOM     25  F   UNL     1       7.889   5.357  14.176  0.00  0.00    +0.000 F 
ATOM     26  C   UNL     1       6.839   5.582  16.283  0.00  0.00    +0.000 A 
ATOM     27  F   UNL     1       7.708   6.538  16.643  0.00  0.00    +0.000 F 
ATOM     28  C   UNL     1       5.855   5.179  17.186  0.00  0.00    +0.000 A 
ENDBRANCH  19  21
ENDBRANCH  15  16
ENDBRANCH   3  15
TORSDOF 4
ENDMDL
MODEL 7
REMARK VINA RESULT:      -7.8      5.149      6.823
REMARK  Name = 
REMARK  4 active torsions:
REMARK  status: ('A' for Active; 'I' for Inactive)
REMARK    1  A    between atoms: C_2  and  C_18
REMARK    2  A    between atoms: N_3  and  C_4
REMARK    3  A    between atoms: C_4  and  C_5
REMARK    4  A    between atoms: N_8  and  C_9
REMARK                            x       y       z     vdW  Elec       q    Type
REMARK                         _______ _______ _______ _____ _____    ______ ____
ROOT
ATOM      1  O   UNL     1       8.586   7.260  18.998  0.00  0.00    +0.000 OA
ATOM      2  C   UNL     1       8.231   8.106  18.191  0.00  0.00    +0.000 C 
ATOM      3  N   UNL     1       7.512   7.839  17.044  0.00  0.00    +0.000 N 
ATOM      4  H   UNL     1       7.555   8.533  16.307  0.00  0.00    +0.000 HD
ENDROOT
BRANCH   2   5
ATOM      5  C   UNL     1       8.588   9.537  18.402  0.00  0.00    +0.000 A 
ATOM      6  C   UNL     1       9.430   9.869  19.469  0.00  0.00    +0.000 A 
ATOM      7  C   UNL     1       9.775  11.199  19.748  0.00  0.00    +0.000 A 
ATOM      8  C   UNL     1       9.214  12.167  18.910  0.00  0.00    +0.000 A 
ATOM      9  N   UNL     1       9.279  13.532  18.879  0.00  0.00    +0.000 N 
ATOM     10  N   UNL     1       8.556  14.044  17.870  0.00  0.00    +0.000 NA
ATOM     11  N   UNL     1       7.992  13.029  17.227  0.00  0.00    +0.000 NA
ATOM     12  C   UNL     1       8.375  11.868  17.847  0.00  0.00    +0.000 A 
ATOM     13  C   UNL     1       8.043  10.534  17.574  0.00  0.00    +0.000 A 
ATOM     14  H   UNL     1       9.769  14.166  19.498  0.00  0.00    +0.000 HD
ENDBRANCH   2   5
BRANCH   3  15
ATOM     15  C   UNL     1       7.122   6.502  16.640  0.00  0.00    +0.000 C 
BRANCH  15  16
ATOM     16  C   UNL     1       5.649   6.360  16.238  0.00  0.00    +0.000 C 
ATOM     17  C   UNL     1       4.731   7.214  17.108  0.00  0.00    +0.000 C 
ATOM     18  C   UNL     1       4.507   6.352  18.344  0.00  0.00    +0.000 C 
ATOM     19  N   UNL     1       4.479   4.980  17.814  0.00  0.00    +0.000 N 
ATOM     20  C   UNL     1       5.080   4.954  16.464  0.00  0.00    +0.000 C 
BRANCH  19  21
ATOM     21  C   UNL     1       3.420   4.139  18.141  0.00  0.00    +0.000 A 
ATOM     22  C   UNL     1       3.278   2.854  17.579  0.00  0.00    +0.000 A 
ATOM     23  C   UNL     1       2.166   2.044  17.847  0.00  0.00    +0.000 A 
ATOM     24  C   UNL     1       1.188   2.490  18.719  0.00  0.00    +0.000 A 
ATOM     25  F   UNL     1       0.115   1.729  18.958  0.00  0.00    +0.000 F 
ATOM     26  C   UNL     1       1.334   3.718  19.343  0.00  0.00    +0.000 A 
ATOM     27  F   UNL     1       0.402   4.153  20.204  0.00  0.00    +0.000 F 
ATOM     28  C   UNL     1       2.440   4.523  19.072  0.00  0.00    +0.000 A 
ENDBRANCH  19  21
ENDBRANCH  15  16
ENDBRANCH   3  15
TORSDOF 4
ENDMDL
MODEL 8
REMARK VINA RESULT:      -7.8      3.859      6.852
REMARK  Name = 
REMARK  4 active torsions:
REMARK  status: ('A' for Active; 'I' for Inactive)
REMARK    1  A    between atoms: C_2  and  C_18
REMARK    2  A    between atoms: N_3  and  C_4
REMARK    3  A    between atoms: C_4  and  C_5
REMARK    4  A    between atoms: N_8  and  C_9
REMARK                            x       y       z     vdW  Elec       q    Type
REMARK                         _______ _______ _______ _____ _____    ______ ____
ROOT
ATOM      1  O   UNL     1       2.912   3.400  16.876  0.00  0.00    +0.000 OA
ATOM      2  C   UNL     1       4.085   3.374  17.219  0.00  0.00    +0.000 C 
ATOM      3  N   UNL     1       4.540   2.843  18.409  0.00  0.00    +0.000 N 
ATOM      4  H   UNL     1       5.447   3.157  18.732  0.00  0.00    +0.000 HD
ENDROOT
BRANCH   2   5
ATOM      5  C   UNL     1       5.134   3.958  16.338  0.00  0.00    +0.000 A 
ATOM      6  C   UNL     1       5.954   4.971  16.849  0.00  0.00    +0.000 A 
ATOM      7  C   UNL     1       6.935   5.590  16.062  0.00  0.00    +0.000 A 
ATOM      8  C   UNL     1       7.031   5.149  14.740  0.00  0.00    +0.000 A 
ATOM      9  N   UNL     1       7.814   5.518  13.682  0.00  0.00    +0.000 N 
ATOM     10  N   UNL     1       7.541   4.797  12.582  0.00  0.00    +0.000 NA
ATOM     11  N   UNL     1       6.565   3.951  12.891  0.00  0.00    +0.000 NA
ATOM     12  C   UNL     1       6.231   4.150  14.205  0.00  0.00    +0.000 A 
ATOM     13  C   UNL     1       5.258   3.533  15.004  0.00  0.00    +0.000 A 
ATOM     14  H   UNL     1       8.525   6.236  13.629  0.00  0.00    +0.000 HD
ENDBRANCH   2   5
BRANCH   3  15
ATOM     15  C   UNL     1       3.662   2.281  19.417  0.00  0.00    +0.000 C 
BRANCH  15  16
ATOM     16  C   UNL     1       3.267   3.255  20.534  0.00  0.00    +0.000 C 
ATOM     17  C   UNL     1       1.766   3.237  20.807  0.00  0.00    +0.000 C 
ATOM     18  C   UNL     1       1.200   4.175  19.748  0.00  0.00    +0.000 C 
ATOM     19  N   UNL     1       2.232   5.214  19.611  0.00  0.00    +0.000 N 
ATOM     20  C   UNL     1       3.506   4.728  20.183  0.00  0.00    +0.000 C 
BRANCH  19  21
ATOM     21  C   UNL     1       1.875   6.555  19.701  0.00  0.00    +0.000 A 
ATOM     22  C   UNL     1       2.070   7.460  18.637  0.00  0.00    +0.000 A 
ATOM     23  C   UNL     1       1.785   8.826  18.761  0.00  0.00    +0.000 A 
ATOM     24  C   UNL     1       1.260   9.311  19.946  0.00  0.00    +0.000 A 
ATOM     25  F   UNL     1       1.010  10.619  20.075  0.00  0.00    +0.000 F 
ATOM     26  C   UNL     1       0.990   8.436  20.986  0.00  0.00    +0.000 A 
ATOM     27  F   UNL     1       0.464   8.892  22.132  0.00  0.00    +0.000 F 
ATOM     28  C   UNL     1       1.277   7.078  20.860  0.00  0.00    +0.000 A 
ENDBRANCH  19  21
ENDBRANCH  15  16
ENDBRANCH   3  15
TORSDOF 4
ENDMDL
MODEL 9
REMARK VINA RESULT:      -7.7      6.231     10.329
REMARK  Name = 
REMARK  4 active torsions:
REMARK  status: ('A' for Active; 'I' for Inactive)
REMARK    1  A    between atoms: C_2  and  C_18
REMARK    2  A    between atoms: N_3  and  C_4
REMARK    3  A    between atoms: C_4  and  C_5
REMARK    4  A    between atoms: N_8  and  C_9
REMARK                            x       y       z     vdW  Elec       q    Type
REMARK                         _______ _______ _______ _____ _____    ______ ____
ROOT
ATOM      1  O   UNL     1       2.347   7.942  18.988  0.00  0.00    +0.000 OA
ATOM      2  C   UNL     1       2.090   7.173  19.904  0.00  0.00    +0.000 C 
ATOM      3  N   UNL     1       1.563   7.555  21.120  0.00  0.00    +0.000 N 
ATOM      4  H   UNL     1       1.694   6.916  21.895  0.00  0.00    +0.000 HD
ENDROOT
BRANCH   2   5
ATOM      5  C   UNL     1       2.363   5.717  19.755  0.00  0.00    +0.000 A 
ATOM      6  C   UNL     1       2.181   4.882  20.862  0.00  0.00    +0.000 A 
ATOM      7  C   UNL     1       2.456   3.508  20.802  0.00  0.00    +0.000 A 
ATOM      8  C   UNL     1       2.937   3.032  19.580  0.00  0.00    +0.000 A 
ATOM      9  N   UNL     1       3.341   1.800  19.147  0.00  0.00    +0.000 N 
ATOM     10  N   UNL     1       3.736   1.826  17.863  0.00  0.00    +0.000 NA
ATOM     11  N   UNL     1       3.613   3.076  17.433  0.00  0.00    +0.000 NA
ATOM     12  C   UNL     1       3.131   3.836  18.466  0.00  0.00    +0.000 A 
ATOM     13  C   UNL     1       2.845   5.206  18.537  0.00  0.00    +0.000 A 
ATOM     14  H   UNL     1       3.386   0.924  19.652  0.00  0.00    +0.000 HD
ENDBRANCH   2   5
BRANCH   3  15
ATOM     15  C   UNL     1       1.284   8.935  21.470  0.00  0.00    +0.000 C 
BRANCH  15  16
ATOM     16  C   UNL     1      -0.197   9.326  21.394  0.00  0.00    +0.000 C 
ATOM     17  C   UNL     1      -0.460  10.376  20.318  0.00  0.00    +0.000 C 
ATOM     18  C   UNL     1      -0.118  11.689  21.010  0.00  0.00    +0.000 C 
ATOM     19  N   UNL     1      -0.549  11.476  22.400  0.00  0.00    +0.000 N 
ATOM     20  C   UNL     1      -0.716  10.030  22.654  0.00  0.00    +0.000 C 
BRANCH  19  21
ATOM     21  C   UNL     1      -1.379  12.409  23.013  0.00  0.00    +0.000 A 
ATOM     22  C   UNL     1      -0.978  13.742  23.237  0.00  0.00    +0.000 A 
ATOM     23  C   UNL     1      -1.784  14.655  23.929  0.00  0.00    +0.000 A 
ATOM     24  C   UNL     1      -3.033  14.262  24.379  0.00  0.00    +0.000 A 
ATOM     25  F   UNL     1      -3.795  15.124  25.060  0.00  0.00    +0.000 F 
ATOM     26  C   UNL     1      -3.486  12.980  24.112  0.00  0.00    +0.000 A 
ATOM     27  F   UNL     1      -4.701  12.593  24.527  0.00  0.00    +0.000 F 
ATOM     28  C   UNL     1      -2.679  12.073  23.426  0.00  0.00    +0.000 A 
ENDBRANCH  19  21
ENDBRANCH  15  16
ENDBRANCH   3  15
TORSDOF 4
ENDMDL
