MODEL 1
REMARK VINA RESULT:      -9.8      0.000      0.000
REMARK  Name = 
REMARK  4 active torsions:
REMARK  status: ('A' for Active; 'I' for Inactive)
REMARK    1  A    between atoms: C_2  and  C_16
REMARK    2  A    between atoms: C_7  and  C_8
REMARK    3  A    between atoms: C_20  and  S_21
REMARK    4  A    between atoms: S_21  and  N_24
REMARK                            x       y       z     vdW  Elec       q    Type
REMARK                         _______ _______ _______ _____ _____    ______ ____
ROOT
ATOM      1  O   UNL     1       1.949   8.634  18.582  0.00  0.00    +0.000 OA
ATOM      2  C   UNL     1       2.165   7.690  19.331  0.00  0.00    +0.000 C 
ATOM      3  N   UNL     1       1.895   7.657  20.679  0.00  0.00    +0.000 N 
ATOM      4  C   UNL     1       1.324   8.722  21.322  0.00  0.00    +0.000 A 
ATOM      5  N   UNL     1       1.502   9.026  22.583  0.00  0.00    +0.000 NA
ATOM      6  N   UNL     1       0.720  10.116  22.861  0.00  0.00    +0.000 NA
ATOM      7  C   UNL     1      -0.024  10.372  21.800  0.00  0.00    +0.000 A 
ATOM      8  N   UNL     1       0.415   9.580  20.769  0.00  0.00    +0.000 N 
ATOM      9  H   UNL     1       2.363   6.989  21.277  0.00  0.00    +0.000 HD
ATOM     10  H   UNL     1       0.029   9.513  19.841  0.00  0.00    +0.000 HD
ENDROOT
BRANCH   7  11
ATOM     11  C   UNL     1      -1.133  11.322  21.733  0.00  0.00    +0.000 A 
ATOM     12  C   UNL     1      -1.850  11.575  22.915  0.00  0.00    +0.000 A 
ATOM     13  C   UNL     1      -2.955  12.431  22.925  0.00  0.00    +0.000 A 
ATOM     14  C   UNL     1      -3.365  13.044  21.746  0.00  0.00    +0.000 A 
ATOM     15  C   UNL     1      -2.674  12.800  20.561  0.00  0.00    +0.000 A 
ATOM     16  C   UNL     1      -1.566  11.943  20.548  0.00  0.00    +0.000 A 
ATOM     17 BR   UNL     1      -0.764  11.631  18.850  0.00  0.00    +0.000 Br
ENDBRANCH   7  11
BRANCH   2  18
ATOM     18  C   UNL     1       2.835   6.469  18.821  0.00  0.00    +0.000 A 
ATOM     19  C   UNL     1       2.654   5.253  19.481  0.00  0.00    +0.000 A 
ATOM     20  C   UNL     1       3.309   4.107  19.020  0.00  0.00    +0.000 A 
ATOM     21  C   UNL     1       4.149   4.178  17.904  0.00  0.00    +0.000 A 
ATOM     22  C   UNL     1       4.315   5.398  17.240  0.00  0.00    +0.000 A 
ATOM     23  C   UNL     1       3.673   6.549  17.703  0.00  0.00    +0.000 A 
BRANCH  22  24
ATOM     24  S   UNL     1       5.490   5.542  15.899  0.00  0.00    +0.000 S 
ATOM     25  O   UNL     1       5.496   4.273  15.211  0.00  0.00    +0.000 OA
ATOM     26  O   UNL     1       5.186   6.777  15.200  0.00  0.00    +0.000 OA
BRANCH  24  27
ATOM     27  N   UNL     1       6.969   5.725  16.670  0.00  0.00    +0.000 NA
ATOM     28  C   UNL     1       7.477   4.695  17.584  0.00  0.00    +0.000 C 
ATOM     29  C   UNL     1       7.618   5.409  18.916  0.00  0.00    +0.000 C 
ATOM     30  C   UNL     1       7.903   6.859  18.559  0.00  0.00    +0.000 C 
ATOM     31  C   UNL     1       7.403   7.052  17.132  0.00  0.00    +0.000 C 
ENDBRANCH  24  27
ENDBRANCH  22  24
ENDBRANCH   2  18
TORSDOF 4
ENDMDL
MODEL 2
REMARK VINA RESULT:      -9.1      3.652      9.396
REMARK  Name = 
REMARK  4 active torsions:
REMARK  status: ('A' for Active; 'I' for Inactive)
REMARK    1  A    between atoms: C_2  and  C_16
REMARK    2  A    between atoms: C_7  and  C_8
REMARK    3  A    between atoms: C_20  and  S_21
REMARK    4  A    between atoms: S_21  and  N_24
REMARK                            x       y       z     vdW  Elec       q    Type
REMARK                         _______ _______ _______ _____ _____    ______ ____
ROOT
ATOM      1  O   UNL     1       1.601   8.527  18.718  0.00  0.00    +0.000 OA
ATOM      2  C   UNL     1       1.558   8.260  19.913  0.00  0.00    +0.000 C 
ATOM      3  N   UNL     1       2.059   7.121  20.498  0.00  0.00    +0.000 N 
ATOM      4  C   UNL     1       2.688   6.153  19.762  0.00  0.00    +0.000 A 
ATOM      5  N   UNL     1       2.720   4.878  20.061  0.00  0.00    +0.000 NA
ATOM      6  N   UNL     1       3.492   4.251  19.119  0.00  0.00    +0.000 NA
ATOM      7  C   UNL     1       4.029   5.176  18.342  0.00  0.00    +0.000 A 
ATOM      8  N   UNL     1       3.451   6.382  18.651  0.00  0.00    +0.000 N 
ATOM      9  H   UNL     1       1.731   6.828  21.409  0.00  0.00    +0.000 HD
ATOM     10  H   UNL     1       3.673   7.284  18.263  0.00  0.00    +0.000 HD
ENDROOT
BRANCH   7  11
ATOM     11  C   UNL     1       5.070   4.961  17.338  0.00  0.00    +0.000 A 
ATOM     12  C   UNL     1       4.669   4.535  16.061  0.00  0.00    +0.000 A 
ATOM     13  C   UNL     1       5.605   4.259  15.060  0.00  0.00    +0.000 A 
ATOM     14  C   UNL     1       6.963   4.399  15.326  0.00  0.00    +0.000 A 
ATOM     15  C   UNL     1       7.383   4.812  16.589  0.00  0.00    +0.000 A 
ATOM     16  C   UNL     1       6.446   5.090  17.594  0.00  0.00    +0.000 A 
ATOM     17 BR   UNL     1       7.156   5.563  19.296  0.00  0.00    +0.000 Br
ENDBRANCH   7  11
BRANCH   2  18
ATOM     18  C   UNL     1       0.861   9.165  20.858  0.00  0.00    +0.000 A 
ATOM     19  C   UNL     1       0.168   8.632  21.945  0.00  0.00    +0.000 A 
ATOM     20  C   UNL     1      -0.514   9.482  22.820  0.00  0.00    +0.000 A 
ATOM     21  C   UNL     1      -0.510  10.865  22.604  0.00  0.00    +0.000 A 
ATOM     22  C   UNL     1       0.197  11.393  21.520  0.00  0.00    +0.000 A 
ATOM     23  C   UNL     1       0.871  10.547  20.635  0.00  0.00    +0.000 A 
BRANCH  22  24
ATOM     24  S   UNL     1       0.102  13.139  21.145  0.00  0.00    +0.000 S 
ATOM     25  O   UNL     1      -0.486  13.781  22.296  0.00  0.00    +0.000 OA
ATOM     26  O   UNL     1       1.404  13.536  20.643  0.00  0.00    +0.000 OA
BRANCH  24  27
ATOM     27  N   UNL     1      -0.998  13.225  19.880  0.00  0.00    +0.000 NA
ATOM     28  C   UNL     1      -2.367  12.717  20.034  0.00  0.00    +0.000 C 
ATOM     29  C   UNL     1      -2.485  11.630  18.982  0.00  0.00    +0.000 C 
ATOM     30  C   UNL     1      -1.545  12.054  17.867  0.00  0.00    +0.000 C 
ATOM     31  C   UNL     1      -0.550  13.024  18.495  0.00  0.00    +0.000 C 
ENDBRANCH  24  27
ENDBRANCH  22  24
ENDBRANCH   2  18
TORSDOF 4
ENDMDL
MODEL 3
REMARK VINA RESULT:      -9.1      1.611      1.980
REMARK  Name = 
REMARK  4 active torsions:
REMARK  status: ('A' for Active; 'I' for Inactive)
REMARK    1  A    between atoms: C_2  and  C_16
REMARK    2  A    between atoms: C_7  and  C_8
REMARK    3  A    between atoms: C_20  and  S_21
REMARK    4  A    between atoms: S_21  and  N_24
REMARK                            x       y       z     vdW  Elec       q    Type
REMARK                         _______ _______ _______ _____ _____    ______ ____
ROOT
ATOM      1  O   UNL     1       1.588   6.907  20.665  0.00  0.00    +0.000 OA
ATOM      2  C   UNL     1       2.190   6.998  19.602  0.00  0.00    +0.000 C 
ATOM      3  N   UNL     1       2.107   8.050  18.721  0.00  0.00    +0.000 N 
ATOM      4  C   UNL     1       1.319   9.139  18.977  0.00  0.00    +0.000 A 
ATOM      5  N   UNL     1       0.754   9.893  18.066  0.00  0.00    +0.000 NA
ATOM      6  N   UNL     1       0.102  10.908  18.716  0.00  0.00    +0.000 NA
ATOM      7  C   UNL     1       0.394  10.832  20.002  0.00  0.00    +0.000 A 
ATOM      8  N   UNL     1       1.071   9.657  20.217  0.00  0.00    +0.000 N 
ATOM      9  H   UNL     1       2.380   7.929  17.754  0.00  0.00    +0.000 HD
ATOM     10  H   UNL     1       1.463   9.327  21.084  0.00  0.00    +0.000 HD
ENDROOT
BRANCH   7  11
ATOM     11  C   UNL     1       0.072  11.829  21.020  0.00  0.00    +0.000 A 
ATOM     12  C   UNL     1      -0.930  11.512  21.954  0.00  0.00    +0.000 A 
ATOM     13  C   UNL     1      -1.331  12.430  22.928  0.00  0.00    +0.000 A 
ATOM     14  C   UNL     1      -0.740  13.688  22.979  0.00  0.00    +0.000 A 
ATOM     15  C   UNL     1       0.248  14.026  22.058  0.00  0.00    +0.000 A 
ATOM     16  C   UNL     1       0.654  13.108  21.081  0.00  0.00    +0.000 A 
ATOM     17 BR   UNL     1       1.953  13.727  19.833  0.00  0.00    +0.000 Br
ENDBRANCH   7  11
BRANCH   2  18
ATOM     18  C   UNL     1       3.047   5.883  19.130  0.00  0.00    +0.000 A 
ATOM     19  C   UNL     1       3.099   4.694  19.857  0.00  0.00    +0.000 A 
ATOM     20  C   UNL     1       3.929   3.653  19.429  0.00  0.00    +0.000 A 
ATOM     21  C   UNL     1       4.713   3.805  18.280  0.00  0.00    +0.000 A 
ATOM     22  C   UNL     1       4.646   4.996  17.550  0.00  0.00    +0.000 A 
ATOM     23  C   UNL     1       3.827   6.043  17.979  0.00  0.00    +0.000 A 
BRANCH  22  24
ATOM     24  S   UNL     1       5.739   5.265  16.160  0.00  0.00    +0.000 S 
ATOM     25  O   UNL     1       5.893   3.991  15.498  0.00  0.00    +0.000 OA
ATOM     26  O   UNL     1       5.244   6.429  15.450  0.00  0.00    +0.000 OA
BRANCH  24  27
ATOM     27  N   UNL     1       7.207   5.666  16.868  0.00  0.00    +0.000 NA
ATOM     28  C   UNL     1       7.793   4.826  17.920  0.00  0.00    +0.000 C 
ATOM     29  C   UNL     1       7.892   5.746  19.124  0.00  0.00    +0.000 C 
ATOM     30  C   UNL     1       8.072   7.138  18.543  0.00  0.00    +0.000 C 
ATOM     31  C   UNL     1       7.551   7.074  17.113  0.00  0.00    +0.000 C 
ENDBRANCH  24  27
ENDBRANCH  22  24
ENDBRANCH   2  18
TORSDOF 4
ENDMDL
MODEL 4
REMARK VINA RESULT:      -9.0      3.816      9.232
REMARK  Name = 
REMARK  4 active torsions:
REMARK  status: ('A' for Active; 'I' for Inactive)
REMARK    1  A    between atoms: C_2  and  C_16
REMARK    2  A    between atoms: C_7  and  C_8
REMARK    3  A    between atoms: C_20  and  S_21
REMARK    4  A    between atoms: S_21  and  N_24
REMARK                            x       y       z     vdW  Elec       q    Type
REMARK                         _______ _______ _______ _____ _____    ______ ____
ROOT
ATOM      1  O   UNL     1       1.590   8.456  18.673  0.00  0.00    +0.000 OA
ATOM      2  C   UNL     1       1.559   8.196  19.869  0.00  0.00    +0.000 C 
ATOM      3  N   UNL     1       2.087   7.071  20.459  0.00  0.00    +0.000 N 
ATOM      4  C   UNL     1       2.732   6.112  19.726  0.00  0.00    +0.000 A 
ATOM      5  N   UNL     1       2.791   4.840  20.032  0.00  0.00    +0.000 NA
ATOM      6  N   UNL     1       3.570   4.223  19.090  0.00  0.00    +0.000 NA
ATOM      7  C   UNL     1       4.084   5.152  18.304  0.00  0.00    +0.000 A 
ATOM      8  N   UNL     1       3.483   6.348  18.609  0.00  0.00    +0.000 N 
ATOM      9  H   UNL     1       1.770   6.778  21.374  0.00  0.00    +0.000 HD
ATOM     10  H   UNL     1       3.684   7.252  18.213  0.00  0.00    +0.000 HD
ENDROOT
BRANCH   7  11
ATOM     11  C   UNL     1       5.123   4.952  17.295  0.00  0.00    +0.000 A 
ATOM     12  C   UNL     1       4.722   4.517  16.020  0.00  0.00    +0.000 A 
ATOM     13  C   UNL     1       5.658   4.255  15.016  0.00  0.00    +0.000 A 
ATOM     14  C   UNL     1       7.015   4.416  15.275  0.00  0.00    +0.000 A 
ATOM     15  C   UNL     1       7.434   4.838  16.535  0.00  0.00    +0.000 A 
ATOM     16  C   UNL     1       6.498   5.103  17.544  0.00  0.00    +0.000 A 
ATOM     17 BR   UNL     1       7.209   5.590  19.242  0.00  0.00    +0.000 Br
ENDBRANCH   7  11
BRANCH   2  18
ATOM     18  C   UNL     1       0.849   9.094  20.812  0.00  0.00    +0.000 A 
ATOM     19  C   UNL     1       0.860   8.811  22.178  0.00  0.00    +0.000 A 
ATOM     20  C   UNL     1       0.167   9.639  23.066  0.00  0.00    +0.000 A 
ATOM     21  C   UNL     1      -0.543  10.746  22.586  0.00  0.00    +0.000 A 
ATOM     22  C   UNL     1      -0.538  11.030  21.217  0.00  0.00    +0.000 A 
ATOM     23  C   UNL     1       0.143  10.199  20.324  0.00  0.00    +0.000 A 
BRANCH  22  24
ATOM     24  S   UNL     1      -1.549  12.354  20.567  0.00  0.00    +0.000 S 
ATOM     25  O   UNL     1      -2.276  11.812  19.444  0.00  0.00    +0.000 OA
ATOM     26  O   UNL     1      -2.240  12.953  21.694  0.00  0.00    +0.000 OA
BRANCH  24  27
ATOM     27  N   UNL     1      -0.437  13.466  19.981  0.00  0.00    +0.000 NA
ATOM     28  C   UNL     1      -0.137  13.550  18.547  0.00  0.00    +0.000 C 
ATOM     29  C   UNL     1       1.347  13.246  18.454  0.00  0.00    +0.000 C 
ATOM     30  C   UNL     1       1.932  13.726  19.771  0.00  0.00    +0.000 C 
ATOM     31  C   UNL     1       0.771  13.784  20.756  0.00  0.00    +0.000 C 
ENDBRANCH  24  27
ENDBRANCH  22  24
ENDBRANCH   2  18
TORSDOF 4
ENDMDL
MODEL 5
REMARK VINA RESULT:      -9.0      1.331      1.684
REMARK  Name = 
REMARK  4 active torsions:
REMARK  status: ('A' for Active; 'I' for Inactive)
REMARK    1  A    between atoms: C_2  and  C_16
REMARK    2  A    between atoms: C_7  and  C_8
REMARK    3  A    between atoms: C_20  and  S_21
REMARK    4  A    between atoms: S_21  and  N_24
REMARK                            x       y       z     vdW  Elec       q    Type
REMARK                         _______ _______ _______ _____ _____    ______ ____
ROOT
ATOM      1  O   UNL     1       2.818   8.638  18.001  0.00  0.00    +0.000 OA
ATOM      2  C   UNL     1       2.592   7.620  18.643  0.00  0.00    +0.000 C 
ATOM      3  N   UNL     1       1.972   7.567  19.870  0.00  0.00    +0.000 N 
ATOM      4  C   UNL     1       1.524   8.699  20.496  0.00  0.00    +0.000 A 
ATOM      5  N   UNL     1       1.426   8.856  21.793  0.00  0.00    +0.000 NA
ATOM      6  N   UNL     1       0.884  10.093  22.020  0.00  0.00    +0.000 NA
ATOM      7  C   UNL     1       0.535  10.612  20.857  0.00  0.00    +0.000 A 
ATOM      8  N   UNL     1       1.029   9.805  19.863  0.00  0.00    +0.000 N 
ATOM      9  H   UNL     1       2.089   6.759  20.466  0.00  0.00    +0.000 HD
ATOM     10  H   UNL     1       0.900   9.908  18.870  0.00  0.00    +0.000 HD
ENDROOT
BRANCH   7  11
ATOM     11  C   UNL     1      -0.255  11.826  20.656  0.00  0.00    +0.000 A 
ATOM     12  C   UNL     1       0.037  12.619  19.532  0.00  0.00    +0.000 A 
ATOM     13  C   UNL     1      -0.638  13.819  19.296  0.00  0.00    +0.000 A 
ATOM     14  C   UNL     1      -1.615  14.251  20.187  0.00  0.00    +0.000 A 
ATOM     15  C   UNL     1      -1.914  13.485  21.311  0.00  0.00    +0.000 A 
ATOM     16  C   UNL     1      -1.239  12.280  21.551  0.00  0.00    +0.000 A 
ATOM     17 BR   UNL     1      -1.684  11.375  23.166  0.00  0.00    +0.000 Br
ENDBRANCH   7  11
BRANCH   2  18
ATOM     18  C   UNL     1       3.061   6.303  18.149  0.00  0.00    +0.000 A 
ATOM     19  C   UNL     1       2.487   5.133  18.645  0.00  0.00    +0.000 A 
ATOM     20  C   UNL     1       2.947   3.890  18.202  0.00  0.00    +0.000 A 
ATOM     21  C   UNL     1       3.986   3.816  17.267  0.00  0.00    +0.000 A 
ATOM     22  C   UNL     1       4.548   4.994  16.764  0.00  0.00    +0.000 A 
ATOM     23  C   UNL     1       4.100   6.239  17.213  0.00  0.00    +0.000 A 
BRANCH  22  24
ATOM     24  S   UNL     1       5.966   4.925  15.677  0.00  0.00    +0.000 S 
ATOM     25  O   UNL     1       6.146   3.540  15.314  0.00  0.00    +0.000 OA
ATOM     26  O   UNL     1       5.778   5.951  14.668  0.00  0.00    +0.000 OA
BRANCH  24  27
ATOM     27  N   UNL     1       7.252   5.380  16.655  0.00  0.00    +0.000 NA
ATOM     28  C   UNL     1       7.612   4.596  17.843  0.00  0.00    +0.000 C 
ATOM     29  C   UNL     1       7.453   5.567  18.998  0.00  0.00    +0.000 C 
ATOM     30  C   UNL     1       7.739   6.936  18.406  0.00  0.00    +0.000 C 
ATOM     31  C   UNL     1       7.527   6.802  16.902  0.00  0.00    +0.000 C 
ENDBRANCH  24  27
ENDBRANCH  22  24
ENDBRANCH   2  18
TORSDOF 4
ENDMDL
MODEL 6
REMARK VINA RESULT:      -8.9      1.995      2.517
REMARK  Name = 
REMARK  4 active torsions:
REMARK  status: ('A' for Active; 'I' for Inactive)
REMARK    1  A    between atoms: C_2  and  C_16
REMARK    2  A    between atoms: C_7  and  C_8
REMARK    3  A    between atoms: C_20  and  S_21
REMARK    4  A    between atoms: S_21  and  N_24
REMARK                            x       y       z     vdW  Elec       q    Type
REMARK                         _______ _______ _______ _____ _____    ______ ____
ROOT
ATOM      1  O   UNL     1       2.130   7.816  20.461  0.00  0.00    +0.000 OA
ATOM      2  C   UNL     1       2.198   7.628  19.253  0.00  0.00    +0.000 C 
ATOM      3  N   UNL     1       1.631   8.423  18.285  0.00  0.00    +0.000 N 
ATOM      4  C   UNL     1       0.922   9.549  18.606  0.00  0.00    +0.000 A 
ATOM      5  N   UNL     1      -0.057  10.053  17.897  0.00  0.00    +0.000 NA
ATOM      6  N   UNL     1      -0.465  11.206  18.514  0.00  0.00    +0.000 NA
ATOM      7  C   UNL     1       0.363  11.455  19.513  0.00  0.00    +0.000 A 
ATOM      8  N   UNL     1       1.185  10.367  19.669  0.00  0.00    +0.000 N 
ATOM      9  H   UNL     1       1.468   8.058  17.355  0.00  0.00    +0.000 HD
ATOM     10  H   UNL     1       1.946  10.264  20.320  0.00  0.00    +0.000 HD
ENDROOT
BRANCH   7  11
ATOM     11  C   UNL     1       0.412  12.682  20.307  0.00  0.00    +0.000 A 
ATOM     12  C   UNL     1       1.155  13.761  19.800  0.00  0.00    +0.000 A 
ATOM     13  C   UNL     1       1.292  14.951  20.521  0.00  0.00    +0.000 A 
ATOM     14  C   UNL     1       0.691  15.077  21.769  0.00  0.00    +0.000 A 
ATOM     15  C   UNL     1      -0.042  14.016  22.294  0.00  0.00    +0.000 A 
ATOM     16  C   UNL     1      -0.183  12.822  21.574  0.00  0.00    +0.000 A 
ATOM     17 BR   UNL     1      -1.139  11.423  22.443  0.00  0.00    +0.000 Br
ENDBRANCH   7  11
BRANCH   2  18
ATOM     18  C   UNL     1       2.877   6.422  18.720  0.00  0.00    +0.000 A 
ATOM     19  C   UNL     1       2.677   5.186  19.334  0.00  0.00    +0.000 A 
ATOM     20  C   UNL     1       3.339   4.053  18.851  0.00  0.00    +0.000 A 
ATOM     21  C   UNL     1       4.207   4.159  17.759  0.00  0.00    +0.000 A 
ATOM     22  C   UNL     1       4.393   5.399  17.141  0.00  0.00    +0.000 A 
ATOM     23  C   UNL     1       3.743   6.536  17.626  0.00  0.00    +0.000 A 
BRANCH  22  24
ATOM     24  S   UNL     1       5.601   5.584  15.835  0.00  0.00    +0.000 S 
ATOM     25  O   UNL     1       5.641   4.328  15.123  0.00  0.00    +0.000 OA
ATOM     26  O   UNL     1       5.300   6.828  15.152  0.00  0.00    +0.000 OA
BRANCH  24  27
ATOM     27  N   UNL     1       7.057   5.769  16.649  0.00  0.00    +0.000 NA
ATOM     28  C   UNL     1       7.546   4.733  17.567  0.00  0.00    +0.000 C 
ATOM     29  C   UNL     1       7.645   5.435  18.909  0.00  0.00    +0.000 C 
ATOM     30  C   UNL     1       7.930   6.890  18.574  0.00  0.00    +0.000 C 
ATOM     31  C   UNL     1       7.469   7.094  17.136  0.00  0.00    +0.000 C 
ENDBRANCH  24  27
ENDBRANCH  22  24
ENDBRANCH   2  18
TORSDOF 4
ENDMDL
MODEL 7
REMARK VINA RESULT:      -8.7      3.749      9.169
REMARK  Name = 
REMARK  4 active torsions:
REMARK  status: ('A' for Active; 'I' for Inactive)
REMARK    1  A    between atoms: C_2  and  C_16
REMARK    2  A    between atoms: C_7  and  C_8
REMARK    3  A    between atoms: C_20  and  S_21
REMARK    4  A    between atoms: S_21  and  N_24
REMARK                            x       y       z     vdW  Elec       q    Type
REMARK                         _______ _______ _______ _____ _____    ______ ____
ROOT
ATOM      1  O   UNL     1       1.581   8.749  19.266  0.00  0.00    +0.000 OA
ATOM      2  C   UNL     1       1.247   8.509  20.420  0.00  0.00    +0.000 C 
ATOM      3  N   UNL     1       1.541   7.361  21.117  0.00  0.00    +0.000 N 
ATOM      4  C   UNL     1       2.276   6.350  20.558  0.00  0.00    +0.000 A 
ATOM      5  N   UNL     1       2.174   5.082  20.867  0.00  0.00    +0.000 NA
ATOM      6  N   UNL     1       3.114   4.401  20.138  0.00  0.00    +0.000 NA
ATOM      7  C   UNL     1       3.863   5.284  19.501  0.00  0.00    +0.000 A 
ATOM      8  N   UNL     1       3.288   6.521  19.655  0.00  0.00    +0.000 N 
ATOM      9  H   UNL     1       0.994   7.101  21.928  0.00  0.00    +0.000 HD
ATOM     10  H   UNL     1       3.639   7.404  19.321  0.00  0.00    +0.000 HD
ENDROOT
BRANCH   7  11
ATOM     11  C   UNL     1       5.098   5.001  18.772  0.00  0.00    +0.000 A 
ATOM     12  C   UNL     1       6.296   5.524  19.286  0.00  0.00    +0.000 A 
ATOM     13  C   UNL     1       7.512   5.341  18.622  0.00  0.00    +0.000 A 
ATOM     14  C   UNL     1       7.547   4.635  17.424  0.00  0.00    +0.000 A 
ATOM     15  C   UNL     1       6.369   4.117  16.892  0.00  0.00    +0.000 A 
ATOM     16  C   UNL     1       5.148   4.297  17.556  0.00  0.00    +0.000 A 
ATOM     17 BR   UNL     1       3.604   3.611  16.678  0.00  0.00    +0.000 Br
ENDBRANCH   7  11
BRANCH   2  18
ATOM     18  C   UNL     1       0.393   9.465  21.166  0.00  0.00    +0.000 A 
ATOM     19  C   UNL     1       0.191   9.289  22.535  0.00  0.00    +0.000 A 
ATOM     20  C   UNL     1      -0.637  10.171  23.235  0.00  0.00    +0.000 A 
ATOM     21  C   UNL     1      -1.268  11.225  22.565  0.00  0.00    +0.000 A 
ATOM     22  C   UNL     1      -1.051  11.402  21.195  0.00  0.00    +0.000 A 
ATOM     23  C   UNL     1      -0.234  10.516  20.488  0.00  0.00    +0.000 A 
BRANCH  22  24
ATOM     24  S   UNL     1      -1.954  12.654  20.292  0.00  0.00    +0.000 S 
ATOM     25  O   UNL     1      -2.507  12.009  19.125  0.00  0.00    +0.000 OA
ATOM     26  O   UNL     1      -2.803  13.338  21.250  0.00  0.00    +0.000 OA
BRANCH  24  27
ATOM     27  N   UNL     1      -0.767  13.725  19.782  0.00  0.00    +0.000 NA
ATOM     28  C   UNL     1      -0.260  13.693  18.405  0.00  0.00    +0.000 C 
ATOM     29  C   UNL     1       1.221  13.398  18.555  0.00  0.00    +0.000 C 
ATOM     30  C   UNL     1       1.608  13.993  19.899  0.00  0.00    +0.000 C 
ATOM     31  C   UNL     1       0.315  14.120  20.696  0.00  0.00    +0.000 C 
ENDBRANCH  24  27
ENDBRANCH  22  24
ENDBRANCH   2  18
TORSDOF 4
ENDMDL
MODEL 8
REMARK VINA RESULT:      -8.7      2.201      2.880
REMARK  Name = 
REMARK  4 active torsions:
REMARK  status: ('A' for Active; 'I' for Inactive)
REMARK    1  A    between atoms: C_2  and  C_16
REMARK    2  A    between atoms: C_7  and  C_8
REMARK    3  A    between atoms: C_20  and  S_21
REMARK    4  A    between atoms: S_21  and  N_24
REMARK                            x       y       z     vdW  Elec       q    Type
REMARK                         _______ _______ _______ _____ _____    ______ ____
ROOT
ATOM      1  O   UNL     1       1.864   6.491  20.454  0.00  0.00    +0.000 OA
ATOM      2  C   UNL     1       2.551   6.674  19.456  0.00  0.00    +0.000 C 
ATOM      3  N   UNL     1       2.488   7.771  18.630  0.00  0.00    +0.000 N 
ATOM      4  C   UNL     1       1.622   8.803  18.873  0.00  0.00    +0.000 A 
ATOM      5  N   UNL     1       1.099   9.582  17.959  0.00  0.00    +0.000 NA
ATOM      6  N   UNL     1       0.338  10.523  18.602  0.00  0.00    +0.000 NA
ATOM      7  C   UNL     1       0.522  10.384  19.903  0.00  0.00    +0.000 A 
ATOM      8  N   UNL     1       1.239   9.233  20.113  0.00  0.00    +0.000 N 
ATOM      9  H   UNL     1       2.849   7.721  17.686  0.00  0.00    +0.000 HD
ATOM     10  H   UNL     1       1.572   8.872  20.992  0.00  0.00    +0.000 HD
ENDROOT
BRANCH   7  11
ATOM     11  C   UNL     1       0.058  11.303  20.941  0.00  0.00    +0.000 A 
ATOM     12  C   UNL     1      -0.850  10.810  21.894  0.00  0.00    +0.000 A 
ATOM     13  C   UNL     1      -1.379  11.636  22.889  0.00  0.00    +0.000 A 
ATOM     14  C   UNL     1      -1.011  12.977  22.943  0.00  0.00    +0.000 A 
ATOM     15  C   UNL     1      -0.118  13.488  22.003  0.00  0.00    +0.000 A 
ATOM     16  C   UNL     1       0.414  12.662  21.005  0.00  0.00    +0.000 A 
ATOM     17 BR   UNL     1       1.556  13.505  19.735  0.00  0.00    +0.000 Br
ENDBRANCH   7  11
BRANCH   2  18
ATOM     18  C   UNL     1       3.505   5.633  19.003  0.00  0.00    +0.000 A 
ATOM     19  C   UNL     1       3.313   4.305  19.383  0.00  0.00    +0.000 A 
ATOM     20  C   UNL     1       4.228   3.327  18.981  0.00  0.00    +0.000 A 
ATOM     21  C   UNL     1       5.338   3.679  18.205  0.00  0.00    +0.000 A 
ATOM     22  C   UNL     1       5.516   5.010  17.817  0.00  0.00    +0.000 A 
ATOM     23  C   UNL     1       4.612   5.994  18.226  0.00  0.00    +0.000 A 
BRANCH  22  24
ATOM     24  S   UNL     1       6.997   5.505  16.945  0.00  0.00    +0.000 S 
ATOM     25  O   UNL     1       7.279   6.864  17.340  0.00  0.00    +0.000 OA
ATOM     26  O   UNL     1       7.972   4.448  17.131  0.00  0.00    +0.000 OA
BRANCH  24  27
ATOM     27  N   UNL     1       6.535   5.516  15.331  0.00  0.00    +0.000 NA
ATOM     28  C   UNL     1       5.179   5.121  14.930  0.00  0.00    +0.000 C 
ATOM     29  C   UNL     1       5.390   3.929  14.015  0.00  0.00    +0.000 C 
ATOM     30  C   UNL     1       6.747   4.158  13.373  0.00  0.00    +0.000 C 
ATOM     31  C   UNL     1       7.491   5.127  14.285  0.00  0.00    +0.000 C 
ENDBRANCH  24  27
ENDBRANCH  22  24
ENDBRANCH   2  18
TORSDOF 4
ENDMDL
MODEL 9
REMARK VINA RESULT:      -8.7      2.288      3.595
REMARK  Name = 
REMARK  4 active torsions:
REMARK  status: ('A' for Active; 'I' for Inactive)
REMARK    1  A    between atoms: C_2  and  C_16
REMARK    2  A    between atoms: C_7  and  C_8
REMARK    3  A    between atoms: C_20  and  S_21
REMARK    4  A    between atoms: S_21  and  N_24
REMARK                            x       y       z     vdW  Elec       q    Type
REMARK                         _______ _______ _______ _____ _____    ______ ____
ROOT
ATOM      1  O   UNL     1       2.600   8.571  17.659  0.00  0.00    +0.000 OA
ATOM      2  C   UNL     1       2.693   7.591  18.388  0.00  0.00    +0.000 C 
ATOM      3  N   UNL     1       2.192   7.492  19.665  0.00  0.00    +0.000 N 
ATOM      4  C   UNL     1       1.506   8.523  20.249  0.00  0.00    +0.000 A 
ATOM      5  N   UNL     1       1.457   8.766  21.535  0.00  0.00    +0.000 NA
ATOM      6  N   UNL     1       0.627   9.839  21.723  0.00  0.00    +0.000 NA
ATOM      7  C   UNL     1       0.077  10.145  20.561  0.00  0.00    +0.000 A 
ATOM      8  N   UNL     1       0.698   9.404  19.586  0.00  0.00    +0.000 N 
ATOM      9  H   UNL     1       2.555   6.797  20.304  0.00  0.00    +0.000 HD
ATOM     10  H   UNL     1       0.480   9.382  18.603  0.00  0.00    +0.000 HD
ENDROOT
BRANCH   7  11
ATOM     11  C   UNL     1      -1.014  11.094  20.346  0.00  0.00    +0.000 A 
ATOM     12  C   UNL     1      -1.374  11.931  21.416  0.00  0.00    +0.000 A 
ATOM     13  C   UNL     1      -2.439  12.830  21.308  0.00  0.00    +0.000 A 
ATOM     14  C   UNL     1      -3.167  12.901  20.125  0.00  0.00    +0.000 A 
ATOM     15  C   UNL     1      -2.833  12.074  19.056  0.00  0.00    +0.000 A 
ATOM     16  C   UNL     1      -1.766  11.172  19.160  0.00  0.00    +0.000 A 
ATOM     17 BR   UNL     1      -1.469  10.043  17.656  0.00  0.00    +0.000 Br
ENDBRANCH   7  11
BRANCH   2  18
ATOM     18  C   UNL     1       3.455   6.398  17.947  0.00  0.00    +0.000 A 
ATOM     19  C   UNL     1       4.655   6.560  17.254  0.00  0.00    +0.000 A 
ATOM     20  C   UNL     1       5.360   5.437  16.811  0.00  0.00    +0.000 A 
ATOM     21  C   UNL     1       4.862   4.153  17.055  0.00  0.00    +0.000 A 
ATOM     22  C   UNL     1       3.665   3.998  17.762  0.00  0.00    +0.000 A 
ATOM     23  C   UNL     1       2.950   5.117  18.196  0.00  0.00    +0.000 A 
BRANCH  22  24
ATOM     24  S   UNL     1       2.940   2.376  17.964  0.00  0.00    +0.000 S 
ATOM     25  O   UNL     1       1.785   2.324  17.100  0.00  0.00    +0.000 OA
ATOM     26  O   UNL     1       4.017   1.412  17.842  0.00  0.00    +0.000 OA
BRANCH  24  27
ATOM     27  N   UNL     1       2.402   2.365  19.554  0.00  0.00    +0.000 NA
ATOM     28  C   UNL     1       1.000   2.651  19.880  0.00  0.00    +0.000 C 
ATOM     29  C   UNL     1       1.063   3.879  20.769  0.00  0.00    +0.000 C 
ATOM     30  C   UNL     1       2.403   3.784  21.480  0.00  0.00    +0.000 C 
ATOM     31  C   UNL     1       3.270   2.861  20.632  0.00  0.00    +0.000 C 
ENDBRANCH  24  27
ENDBRANCH  22  24
ENDBRANCH   2  18
TORSDOF 4
ENDMDL
