MODEL 1
REMARK VINA RESULT:      -9.0      0.000      0.000
REMARK  Name = 
REMARK  7 active torsions:
REMARK  status: ('A' for Active; 'I' for Inactive)
REMARK    1  A    between atoms: C_1  and  C_2
REMARK    2  A    between atoms: C_9  and  N_10
REMARK    3  A    between atoms: C_11  and  C_13
REMARK    4  A    between atoms: C_14  and  C_15
REMARK    5  A    between atoms: N_17  and  C_18
REMARK    6  A    between atoms: C_18  and  C_19
REMARK    7  A    between atoms: C_25  and  N_26
REMARK                            x       y       z     vdW  Elec       q    Type
REMARK                         _______ _______ _______ _____ _____    ______ ____
ROOT
ATOM      1  N   UNL     1       2.441   7.344  19.193  0.00  0.00    +0.000 N 
ATOM      2  C   UNL     1       3.068   7.451  17.958  0.00  0.00    +0.000 C 
ATOM      3  O   UNL     1       2.937   8.390  17.183  0.00  0.00    +0.000 OA
ATOM      4  H   UNL     1       2.561   6.456  19.669  0.00  0.00    +0.000 HD
ENDROOT
BRANCH   1  13
ATOM      5  C   UNL     1      -1.607  12.849  20.002  0.00  0.00    +0.000 C 
ATOM      6  C   UNL     1      -1.585  12.305  21.401  0.00  0.00    +0.000 C 
ATOM      7  O   UNL     1      -2.214  12.899  22.284  0.00  0.00    +0.000 OA
ATOM      8  N   UNL     1      -0.877  11.156  21.675  0.00  0.00    +0.000 N 
ATOM      9  C   UNL     1      -0.942  10.599  23.037  0.00  0.00    +0.000 C 
ATOM     10  C   UNL     1       0.031   9.426  23.106  0.00  0.00    +0.000 C 
ATOM     11  C   UNL     1       0.432   9.279  21.673  0.00  0.00    +0.000 A 
ATOM     12  C   UNL     1       1.261   8.285  21.158  0.00  0.00    +0.000 A 
ATOM     13  C   UNL     1       1.603   8.308  19.805  0.00  0.00    +0.000 A 
ATOM     14  C   UNL     1       1.086   9.343  19.003  0.00  0.00    +0.000 A 
ATOM     15  C   UNL     1       0.242  10.342  19.535  0.00  0.00    +0.000 A 
ATOM     16  C   UNL     1      -0.083  10.306  20.880  0.00  0.00    +0.000 A 
ENDBRANCH   1  13
BRANCH   2  17
ATOM     17  C   UNL     1       3.921   6.319  17.601  0.00  0.00    +0.000 A 
ATOM     18  C   UNL     1       3.528   4.950  17.505  0.00  0.00    +0.000 A 
ATOM     19  C   UNL     1       2.202   4.324  17.754  0.00  0.00    +0.000 C 
ATOM     20  N   UNL     1       4.543   4.159  17.143  0.00  0.00    +0.000 NA
ATOM     21  N   UNL     1       5.561   5.010  16.903  0.00  0.00    +0.000 N 
ATOM     22  C   UNL     1       5.254   6.323  17.209  0.00  0.00    +0.000 A 
BRANCH  22  23
ATOM     23  N   UNL     1       6.136   7.348  17.055  0.00  0.00    +0.000 N 
ATOM     24  H   UNL     1       7.099   7.219  17.364  0.00  0.00    +0.000 HD
ATOM     25  H   UNL     1       6.135   7.843  16.162  0.00  0.00    +0.000 HD
ENDBRANCH  22  23
BRANCH  21  26
ATOM     26  C   UNL     1       6.804   4.462  16.368  0.00  0.00    +0.000 C 
BRANCH  26  27
ATOM     27  C   UNL     1       6.814   4.428  14.855  0.00  0.00    +0.000 A 
ATOM     28  C   UNL     1       7.703   5.233  14.126  0.00  0.00    +0.000 A 
ATOM     29  C   UNL     1       7.715   5.195  12.729  0.00  0.00    +0.000 A 
ATOM     30  C   UNL     1       6.847   4.349  12.043  0.00  0.00    +0.000 A 
ATOM     31  C   UNL     1       5.971   3.531  12.751  0.00  0.00    +0.000 A 
ATOM     32  C   UNL     1       5.958   3.567  14.148  0.00  0.00    +0.000 A 
ENDBRANCH  26  27
ENDBRANCH  21  26
ENDBRANCH   2  17
TORSDOF 5
ENDMDL
MODEL 2
REMARK VINA RESULT:      -8.9      5.806      8.118
REMARK  Name = 
REMARK  7 active torsions:
REMARK  status: ('A' for Active; 'I' for Inactive)
REMARK    1  A    between atoms: C_1  and  C_2
REMARK    2  A    between atoms: C_9  and  N_10
REMARK    3  A    between atoms: C_11  and  C_13
REMARK    4  A    between atoms: C_14  and  C_15
REMARK    5  A    between atoms: N_17  and  C_18
REMARK    6  A    between atoms: C_18  and  C_19
REMARK    7  A    between atoms: C_25  and  N_26
REMARK                            x       y       z     vdW  Elec       q    Type
REMARK                         _______ _______ _______ _____ _____    ______ ____
ROOT
ATOM      1  N   UNL     1       8.553   8.498  18.662  0.00  0.00    +0.000 N 
ATOM      2  C   UNL     1       7.542   8.210  17.755  0.00  0.00    +0.000 C 
ATOM      3  O   UNL     1       6.962   9.037  17.063  0.00  0.00    +0.000 OA
ATOM      4  H   UNL     1       8.856   7.722  19.241  0.00  0.00    +0.000 HD
ENDROOT
BRANCH   1  13
ATOM      5  C   UNL     1      11.930  14.400  17.608  0.00  0.00    +0.000 C 
ATOM      6  C   UNL     1      11.586  14.526  19.063  0.00  0.00    +0.000 C 
ATOM      7  O   UNL     1      11.949  15.535  19.678  0.00  0.00    +0.000 OA
ATOM      8  N   UNL     1      10.868  13.528  19.684  0.00  0.00    +0.000 N 
ATOM      9  C   UNL     1      10.472  13.717  21.089  0.00  0.00    +0.000 C 
ATOM     10  C   UNL     1       9.822  12.422  21.568  0.00  0.00    +0.000 C 
ATOM     11  C   UNL     1       9.714  11.648  20.293  0.00  0.00    +0.000 A 
ATOM     12  C   UNL     1       9.109  10.403  20.147  0.00  0.00    +0.000 A 
ATOM     13  C   UNL     1       9.138   9.765  18.906  0.00  0.00    +0.000 A 
ATOM     14  C   UNL     1       9.779  10.417  17.835  0.00  0.00    +0.000 A 
ATOM     15  C   UNL     1      10.385  11.682  17.994  0.00  0.00    +0.000 A 
ATOM     16  C   UNL     1      10.350  12.297  19.233  0.00  0.00    +0.000 A 
ENDBRANCH   1  13
BRANCH   2  17
ATOM     17  C   UNL     1       7.170   6.798  17.676  0.00  0.00    +0.000 A 
ATOM     18  C   UNL     1       7.491   5.776  18.620  0.00  0.00    +0.000 A 
ATOM     19  C   UNL     1       8.280   5.860  19.877  0.00  0.00    +0.000 C 
ATOM     20  N   UNL     1       6.992   4.588  18.264  0.00  0.00    +0.000 NA
ATOM     21  N   UNL     1       6.265   4.848  17.159  0.00  0.00    +0.000 N 
ATOM     22  C   UNL     1       6.376   6.158  16.732  0.00  0.00    +0.000 A 
BRANCH  22  23
ATOM     23  N   UNL     1       5.736   6.639  15.631  0.00  0.00    +0.000 N 
ATOM     24  H   UNL     1       5.341   5.976  14.964  0.00  0.00    +0.000 HD
ATOM     25  H   UNL     1       5.081   7.410  15.764  0.00  0.00    +0.000 HD
ENDBRANCH  22  23
BRANCH  21  26
ATOM     26  C   UNL     1       5.482   3.761  16.580  0.00  0.00    +0.000 C 
BRANCH  26  27
ATOM     27  C   UNL     1       4.133   3.603  17.248  0.00  0.00    +0.000 A 
ATOM     28  C   UNL     1       3.267   4.699  17.380  0.00  0.00    +0.000 A 
ATOM     29  C   UNL     1       2.019   4.550  17.992  0.00  0.00    +0.000 A 
ATOM     30  C   UNL     1       1.616   3.305  18.470  0.00  0.00    +0.000 A 
ATOM     31  C   UNL     1       2.456   2.204  18.330  0.00  0.00    +0.000 A 
ATOM     32  C   UNL     1       3.704   2.350  17.719  0.00  0.00    +0.000 A 
ENDBRANCH  26  27
ENDBRANCH  21  26
ENDBRANCH   2  17
TORSDOF 5
ENDMDL
MODEL 3
REMARK VINA RESULT:      -8.8      5.793      8.224
REMARK  Name = 
REMARK  7 active torsions:
REMARK  status: ('A' for Active; 'I' for Inactive)
REMARK    1  A    between atoms: C_1  and  C_2
REMARK    2  A    between atoms: C_9  and  N_10
REMARK    3  A    between atoms: C_11  and  C_13
REMARK    4  A    between atoms: C_14  and  C_15
REMARK    5  A    between atoms: N_17  and  C_18
REMARK    6  A    between atoms: C_18  and  C_19
REMARK    7  A    between atoms: C_25  and  N_26
REMARK                            x       y       z     vdW  Elec       q    Type
REMARK                         _______ _______ _______ _____ _____    ______ ____
ROOT
ATOM      1  N   UNL     1       8.565   8.522  18.614  0.00  0.00    +0.000 N 
ATOM      2  C   UNL     1       7.520   8.224  17.748  0.00  0.00    +0.000 C 
ATOM      3  O   UNL     1       6.897   9.047  17.090  0.00  0.00    +0.000 OA
ATOM      4  H   UNL     1       8.906   7.746  19.171  0.00  0.00    +0.000 HD
ENDROOT
BRANCH   1  13
ATOM      5  C   UNL     1      10.261  14.406  21.752  0.00  0.00    +0.000 C 
ATOM      6  C   UNL     1      10.937  14.588  20.425  0.00  0.00    +0.000 C 
ATOM      7  O   UNL     1      11.565  15.631  20.210  0.00  0.00    +0.000 OA
ATOM      8  N   UNL     1      10.857  13.592  19.476  0.00  0.00    +0.000 N 
ATOM      9  C   UNL     1      11.599  13.761  18.215  0.00  0.00    +0.000 C 
ATOM     10  C   UNL     1      11.228  12.600  17.297  0.00  0.00    +0.000 C 
ATOM     11  C   UNL     1      10.435  11.727  18.218  0.00  0.00    +0.000 A 
ATOM     12  C   UNL     1       9.915  10.475  17.904  0.00  0.00    +0.000 A 
ATOM     13  C   UNL     1       9.138   9.797  18.844  0.00  0.00    +0.000 A 
ATOM     14  C   UNL     1       8.913  10.411  20.091  0.00  0.00    +0.000 A 
ATOM     15  C   UNL     1       9.449  11.679  20.400  0.00  0.00    +0.000 A 
ATOM     16  C   UNL     1      10.214  12.338  19.454  0.00  0.00    +0.000 A 
ENDBRANCH   1  13
BRANCH   2  17
ATOM     17  C   UNL     1       7.170   6.807  17.672  0.00  0.00    +0.000 A 
ATOM     18  C   UNL     1       7.502   5.792  18.620  0.00  0.00    +0.000 A 
ATOM     19  C   UNL     1       8.284   5.892  19.881  0.00  0.00    +0.000 C 
ATOM     20  N   UNL     1       7.022   4.596  18.266  0.00  0.00    +0.000 NA
ATOM     21  N   UNL     1       6.297   4.842  17.156  0.00  0.00    +0.000 N 
ATOM     22  C   UNL     1       6.390   6.152  16.726  0.00  0.00    +0.000 A 
BRANCH  22  23
ATOM     23  N   UNL     1       5.748   6.620  15.621  0.00  0.00    +0.000 N 
ATOM     24  H   UNL     1       6.033   6.275  14.704  0.00  0.00    +0.000 HD
ATOM     25  H   UNL     1       4.730   6.678  15.654  0.00  0.00    +0.000 HD
ENDBRANCH  22  23
BRANCH  21  26
ATOM     26  C   UNL     1       5.533   3.741  16.577  0.00  0.00    +0.000 C 
BRANCH  26  27
ATOM     27  C   UNL     1       4.165   3.594  17.208  0.00  0.00    +0.000 A 
ATOM     28  C   UNL     1       3.711   2.341  17.648  0.00  0.00    +0.000 A 
ATOM     29  C   UNL     1       2.450   2.210  18.237  0.00  0.00    +0.000 A 
ATOM     30  C   UNL     1       1.632   3.325  18.401  0.00  0.00    +0.000 A 
ATOM     31  C   UNL     1       2.075   4.577  17.986  0.00  0.00    +0.000 A 
ATOM     32  C   UNL     1       3.335   4.712  17.397  0.00  0.00    +0.000 A 
ENDBRANCH  26  27
ENDBRANCH  21  26
ENDBRANCH   2  17
TORSDOF 5
ENDMDL
MODEL 4
REMARK VINA RESULT:      -8.5      0.548      1.906
REMARK  Name = 
REMARK  7 active torsions:
REMARK  status: ('A' for Active; 'I' for Inactive)
REMARK    1  A    between atoms: C_1  and  C_2
REMARK    2  A    between atoms: C_9  and  N_10
REMARK    3  A    between atoms: C_11  and  C_13
REMARK    4  A    between atoms: C_14  and  C_15
REMARK    5  A    between atoms: N_17  and  C_18
REMARK    6  A    between atoms: C_18  and  C_19
REMARK    7  A    between atoms: C_25  and  N_26
REMARK                            x       y       z     vdW  Elec       q    Type
REMARK                         _______ _______ _______ _____ _____    ______ ____
ROOT
ATOM      1  N   UNL     1       2.286   7.573  18.915  0.00  0.00    +0.000 N 
ATOM      2  C   UNL     1       3.050   7.625  17.757  0.00  0.00    +0.000 C 
ATOM      3  O   UNL     1       3.044   8.548  16.952  0.00  0.00    +0.000 OA
ATOM      4  H   UNL     1       2.316   6.695  19.421  0.00  0.00    +0.000 HD
ENDROOT
BRANCH   1  13
ATOM      5  C   UNL     1      -1.517  11.309  23.267  0.00  0.00    +0.000 C 
ATOM      6  C   UNL     1      -1.761  12.039  21.979  0.00  0.00    +0.000 C 
ATOM      7  O   UNL     1      -2.508  13.024  21.982  0.00  0.00    +0.000 OA
ATOM      8  N   UNL     1      -1.146  11.608  20.824  0.00  0.00    +0.000 N 
ATOM      9  C   UNL     1      -1.338  12.393  19.592  0.00  0.00    +0.000 C 
ATOM     10  C   UNL     1      -0.677  11.630  18.448  0.00  0.00    +0.000 C 
ATOM     11  C   UNL     1       0.036  10.539  19.182  0.00  0.00    +0.000 A 
ATOM     12  C   UNL     1       0.875   9.588  18.609  0.00  0.00    +0.000 A 
ATOM     13  C   UNL     1       1.425   8.585  19.409  0.00  0.00    +0.000 A 
ATOM     14  C   UNL     1       1.110   8.578  20.781  0.00  0.00    +0.000 A 
ATOM     15  C   UNL     1       0.262   9.551  21.351  0.00  0.00    +0.000 A 
ATOM     16  C   UNL     1      -0.277  10.535  20.542  0.00  0.00    +0.000 A 
ENDBRANCH   1  13
BRANCH   2  17
ATOM     17  C   UNL     1       3.891   6.453  17.522  0.00  0.00    +0.000 A 
ATOM     18  C   UNL     1       3.491   5.084  17.600  0.00  0.00    +0.000 A 
ATOM     19  C   UNL     1       2.167   4.501  17.949  0.00  0.00    +0.000 C 
ATOM     20  N   UNL     1       4.495   4.249  17.316  0.00  0.00    +0.000 NA
ATOM     21  N   UNL     1       5.511   5.058  16.956  0.00  0.00    +0.000 N 
ATOM     22  C   UNL     1       5.216   6.400  17.107  0.00  0.00    +0.000 A 
BRANCH  22  23
ATOM     23  N   UNL     1       6.098   7.394  16.813  0.00  0.00    +0.000 N 
ATOM     24  H   UNL     1       7.079   7.154  16.669  0.00  0.00    +0.000 HD
ATOM     25  H   UNL     1       5.818   8.085  16.116  0.00  0.00    +0.000 HD
ENDBRANCH  22  23
BRANCH  21  26
ATOM     26  C   UNL     1       6.741   4.441  16.466  0.00  0.00    +0.000 C 
BRANCH  26  27
ATOM     27  C   UNL     1       6.801   4.398  14.954  0.00  0.00    +0.000 A 
ATOM     28  C   UNL     1       5.921   3.585  14.225  0.00  0.00    +0.000 A 
ATOM     29  C   UNL     1       5.975   3.552  12.829  0.00  0.00    +0.000 A 
ATOM     30  C   UNL     1       6.901   4.336  12.144  0.00  0.00    +0.000 A 
ATOM     31  C   UNL     1       7.769   5.161  12.852  0.00  0.00    +0.000 A 
ATOM     32  C   UNL     1       7.717   5.197  14.248  0.00  0.00    +0.000 A 
ENDBRANCH  26  27
ENDBRANCH  21  26
ENDBRANCH   2  17
TORSDOF 5
ENDMDL
MODEL 5
REMARK VINA RESULT:      -8.5      1.436      2.456
REMARK  Name = 
REMARK  7 active torsions:
REMARK  status: ('A' for Active; 'I' for Inactive)
REMARK    1  A    between atoms: C_1  and  C_2
REMARK    2  A    between atoms: C_9  and  N_10
REMARK    3  A    between atoms: C_11  and  C_13
REMARK    4  A    between atoms: C_14  and  C_15
REMARK    5  A    between atoms: N_17  and  C_18
REMARK    6  A    between atoms: C_18  and  C_19
REMARK    7  A    between atoms: C_25  and  N_26
REMARK                            x       y       z     vdW  Elec       q    Type
REMARK                         _______ _______ _______ _____ _____    ______ ____
ROOT
ATOM      1  N   UNL     1       3.236   7.003  18.253  0.00  0.00    +0.000 N 
ATOM      2  C   UNL     1       2.951   5.731  17.773  0.00  0.00    +0.000 C 
ATOM      3  O   UNL     1       1.886   5.145  17.925  0.00  0.00    +0.000 OA
ATOM      4  H   UNL     1       4.198   7.306  18.144  0.00  0.00    +0.000 HD
ENDROOT
BRANCH   1  13
ATOM      5  C   UNL     1      -0.554   9.764  23.288  0.00  0.00    +0.000 C 
ATOM      6  C   UNL     1      -0.890  10.679  22.146  0.00  0.00    +0.000 C 
ATOM      7  O   UNL     1      -1.684  11.607  22.336  0.00  0.00    +0.000 OA
ATOM      8  N   UNL     1      -0.305  10.477  20.915  0.00  0.00    +0.000 N 
ATOM      9  C   UNL     1      -0.588  11.439  19.837  0.00  0.00    +0.000 C 
ATOM     10  C   UNL     1       0.059  10.910  18.560  0.00  0.00    +0.000 C 
ATOM     11  C   UNL     1       0.856   9.756  19.080  0.00  0.00    +0.000 A 
ATOM     12  C   UNL     1       1.716   8.958  18.330  0.00  0.00    +0.000 A 
ATOM     13  C   UNL     1       2.348   7.871  18.935  0.00  0.00    +0.000 A 
ATOM     14  C   UNL     1       2.094   7.624  20.297  0.00  0.00    +0.000 A 
ATOM     15  C   UNL     1       1.224   8.443  21.049  0.00  0.00    +0.000 A 
ATOM     16  C   UNL     1       0.603   9.514  20.431  0.00  0.00    +0.000 A 
ENDBRANCH   1  13
BRANCH   2  17
ATOM     17  C   UNL     1       4.048   5.082  17.058  0.00  0.00    +0.000 A 
ATOM     18  C   UNL     1       4.417   3.704  17.128  0.00  0.00    +0.000 A 
ATOM     19  C   UNL     1       3.823   2.602  17.931  0.00  0.00    +0.000 C 
ATOM     20  N   UNL     1       5.460   3.422  16.341  0.00  0.00    +0.000 NA
ATOM     21  N   UNL     1       5.706   4.575  15.686  0.00  0.00    +0.000 N 
ATOM     22  C   UNL     1       4.913   5.622  16.115  0.00  0.00    +0.000 A 
BRANCH  22  23
ATOM     23  N   UNL     1       4.999   6.879  15.600  0.00  0.00    +0.000 N 
ATOM     24  H   UNL     1       5.853   7.416  15.751  0.00  0.00    +0.000 HD
ATOM     25  H   UNL     1       4.682   7.019  14.640  0.00  0.00    +0.000 HD
ENDBRANCH  22  23
BRANCH  21  26
ATOM     26  C   UNL     1       6.732   4.569  14.647  0.00  0.00    +0.000 C 
BRANCH  26  27
ATOM     27  C   UNL     1       6.275   3.858  13.391  0.00  0.00    +0.000 A 
ATOM     28  C   UNL     1       4.921   3.854  13.022  0.00  0.00    +0.000 A 
ATOM     29  C   UNL     1       4.504   3.202  11.858  0.00  0.00    +0.000 A 
ATOM     30  C   UNL     1       5.431   2.555  11.045  0.00  0.00    +0.000 A 
ATOM     31  C   UNL     1       6.780   2.565  11.388  0.00  0.00    +0.000 A 
ATOM     32  C   UNL     1       7.200   3.216  12.550  0.00  0.00    +0.000 A 
ENDBRANCH  26  27
ENDBRANCH  21  26
ENDBRANCH   2  17
TORSDOF 5
ENDMDL
MODEL 6
REMARK VINA RESULT:      -8.5      1.281      1.420
REMARK  Name = 
REMARK  7 active torsions:
REMARK  status: ('A' for Active; 'I' for Inactive)
REMARK    1  A    between atoms: C_1  and  C_2
REMARK    2  A    between atoms: C_9  and  N_10
REMARK    3  A    between atoms: C_11  and  C_13
REMARK    4  A    between atoms: C_14  and  C_15
REMARK    5  A    between atoms: N_17  and  C_18
REMARK    6  A    between atoms: C_18  and  C_19
REMARK    7  A    between atoms: C_25  and  N_26
REMARK                            x       y       z     vdW  Elec       q    Type
REMARK                         _______ _______ _______ _____ _____    ______ ____
ROOT
ATOM      1  N   UNL     1       3.117   7.500  18.484  0.00  0.00    +0.000 N 
ATOM      2  C   UNL     1       2.992   6.194  18.025  0.00  0.00    +0.000 C 
ATOM      3  O   UNL     1       1.940   5.571  17.961  0.00  0.00    +0.000 OA
ATOM      4  H   UNL     1       4.068   7.839  18.583  0.00  0.00    +0.000 HD
ENDROOT
BRANCH   1  13
ATOM      5  C   UNL     1      -2.002  12.088  18.189  0.00  0.00    +0.000 C 
ATOM      6  C   UNL     1      -1.950  11.816  19.664  0.00  0.00    +0.000 C 
ATOM      7  O   UNL     1      -2.736  12.410  20.411  0.00  0.00    +0.000 OA
ATOM      8  N   UNL     1      -1.040  10.907  20.159  0.00  0.00    +0.000 N 
ATOM      9  C   UNL     1      -1.069  10.597  21.598  0.00  0.00    +0.000 C 
ATOM     10  C   UNL     1       0.117   9.685  21.901  0.00  0.00    +0.000 C 
ATOM     11  C   UNL     1       0.620   9.375  20.527  0.00  0.00    +0.000 A 
ATOM     12  C   UNL     1       1.661   8.503  20.219  0.00  0.00    +0.000 A 
ATOM     13  C   UNL     1       2.068   8.359  18.892  0.00  0.00    +0.000 A 
ATOM     14  C   UNL     1       1.398   9.105  17.904  0.00  0.00    +0.000 A 
ATOM     15  C   UNL     1       0.341   9.982  18.227  0.00  0.00    +0.000 A 
ATOM     16  C   UNL     1      -0.047  10.116  19.549  0.00  0.00    +0.000 A 
ENDBRANCH   1  13
BRANCH   2  17
ATOM     17  C   UNL     1       4.246   5.561  17.621  0.00  0.00    +0.000 A 
ATOM     18  C   UNL     1       4.770   4.322  18.099  0.00  0.00    +0.000 A 
ATOM     19  C   UNL     1       4.217   3.387  19.115  0.00  0.00    +0.000 C 
ATOM     20  N   UNL     1       5.935   4.012  17.521  0.00  0.00    +0.000 NA
ATOM     21  N   UNL     1       6.120   4.980  16.602  0.00  0.00    +0.000 N 
ATOM     22  C   UNL     1       5.154   5.968  16.651  0.00  0.00    +0.000 A 
BRANCH  22  23
ATOM     23  N   UNL     1       5.149   7.047  15.821  0.00  0.00    +0.000 N 
ATOM     24  H   UNL     1       4.589   7.860  16.076  0.00  0.00    +0.000 HD
ATOM     25  H   UNL     1       6.046   7.362  15.450  0.00  0.00    +0.000 HD
ENDBRANCH  22  23
BRANCH  21  26
ATOM     26  C   UNL     1       7.266   4.866  15.704  0.00  0.00    +0.000 C 
BRANCH  26  27
ATOM     27  C   UNL     1       6.860   4.477  14.298  0.00  0.00    +0.000 A 
ATOM     28  C   UNL     1       7.641   4.856  13.197  0.00  0.00    +0.000 A 
ATOM     29  C   UNL     1       7.267   4.490  11.900  0.00  0.00    +0.000 A 
ATOM     30  C   UNL     1       6.117   3.735  11.689  0.00  0.00    +0.000 A 
ATOM     31  C   UNL     1       5.340   3.335  12.773  0.00  0.00    +0.000 A 
ATOM     32  C   UNL     1       5.712   3.700  14.070  0.00  0.00    +0.000 A 
ENDBRANCH  26  27
ENDBRANCH  21  26
ENDBRANCH   2  17
TORSDOF 5
ENDMDL
MODEL 7
REMARK VINA RESULT:      -8.5      1.526      2.582
REMARK  Name = 
REMARK  7 active torsions:
REMARK  status: ('A' for Active; 'I' for Inactive)
REMARK    1  A    between atoms: C_1  and  C_2
REMARK    2  A    between atoms: C_9  and  N_10
REMARK    3  A    between atoms: C_11  and  C_13
REMARK    4  A    between atoms: C_14  and  C_15
REMARK    5  A    between atoms: N_17  and  C_18
REMARK    6  A    between atoms: C_18  and  C_19
REMARK    7  A    between atoms: C_25  and  N_26
REMARK                            x       y       z     vdW  Elec       q    Type
REMARK                         _______ _______ _______ _____ _____    ______ ____
ROOT
ATOM      1  N   UNL     1       3.196   6.907  17.807  0.00  0.00    +0.000 N 
ATOM      2  C   UNL     1       4.068   5.928  18.265  0.00  0.00    +0.000 C 
ATOM      3  O   UNL     1       4.302   5.691  19.443  0.00  0.00    +0.000 OA
ATOM      4  H   UNL     1       3.194   7.057  16.804  0.00  0.00    +0.000 HD
ENDROOT
BRANCH   1  13
ATOM      5  C   UNL     1      -0.192   9.433  23.238  0.00  0.00    +0.000 C 
ATOM      6  C   UNL     1      -0.563  10.432  22.183  0.00  0.00    +0.000 C 
ATOM      7  O   UNL     1      -1.312  11.369  22.482  0.00  0.00    +0.000 OA
ATOM      8  N   UNL     1      -0.060  10.297  20.907  0.00  0.00    +0.000 N 
ATOM      9  C   UNL     1      -0.374  11.338  19.914  0.00  0.00    +0.000 C 
ATOM     10  C   UNL     1       0.178  10.878  18.568  0.00  0.00    +0.000 C 
ATOM     11  C   UNL     1       0.965   9.668  18.960  0.00  0.00    +0.000 A 
ATOM     12  C   UNL     1       1.751   8.898  18.108  0.00  0.00    +0.000 A 
ATOM     13  C   UNL     1       2.380   7.753  18.599  0.00  0.00    +0.000 A 
ATOM     14  C   UNL     1       2.199   7.422  19.955  0.00  0.00    +0.000 A 
ATOM     15  C   UNL     1       1.404   8.213  20.811  0.00  0.00    +0.000 A 
ATOM     16  C   UNL     1       0.784   9.342  20.306  0.00  0.00    +0.000 A 
ENDBRANCH   1  13
BRANCH   2  17
ATOM     17  C   UNL     1       4.744   5.167  17.216  0.00  0.00    +0.000 A 
ATOM     18  C   UNL     1       4.558   3.785  16.908  0.00  0.00    +0.000 A 
ATOM     19  C   UNL     1       3.677   2.778  17.559  0.00  0.00    +0.000 C 
ATOM     20  N   UNL     1       5.318   3.391  15.882  0.00  0.00    +0.000 NA
ATOM     21  N   UNL     1       5.916   4.522  15.456  0.00  0.00    +0.000 N 
ATOM     22  C   UNL     1       5.641   5.616  16.256  0.00  0.00    +0.000 A 
BRANCH  22  23
ATOM     23  N   UNL     1       6.148   6.857  16.018  0.00  0.00    +0.000 N 
ATOM     24  H   UNL     1       5.559   7.670  16.196  0.00  0.00    +0.000 HD
ATOM     25  H   UNL     1       7.094   7.052  16.345  0.00  0.00    +0.000 HD
ENDBRANCH  22  23
BRANCH  21  26
ATOM     26  C   UNL     1       6.739   4.453  14.251  0.00  0.00    +0.000 C 
BRANCH  26  27
ATOM     27  C   UNL     1       6.039   3.737  13.116  0.00  0.00    +0.000 A 
ATOM     28  C   UNL     1       6.642   2.641  12.480  0.00  0.00    +0.000 A 
ATOM     29  C   UNL     1       5.991   1.978  11.436  0.00  0.00    +0.000 A 
ATOM     30  C   UNL     1       4.728   2.395  11.020  0.00  0.00    +0.000 A 
ATOM     31  C   UNL     1       4.109   3.469  11.652  0.00  0.00    +0.000 A 
ATOM     32  C   UNL     1       4.758   4.133  12.697  0.00  0.00    +0.000 A 
ENDBRANCH  26  27
ENDBRANCH  21  26
ENDBRANCH   2  17
TORSDOF 5
ENDMDL
MODEL 8
REMARK VINA RESULT:      -8.4      0.980      1.870
REMARK  Name = 
REMARK  7 active torsions:
REMARK  status: ('A' for Active; 'I' for Inactive)
REMARK    1  A    between atoms: C_1  and  C_2
REMARK    2  A    between atoms: C_9  and  N_10
REMARK    3  A    between atoms: C_11  and  C_13
REMARK    4  A    between atoms: C_14  and  C_15
REMARK    5  A    between atoms: N_17  and  C_18
REMARK    6  A    between atoms: C_18  and  C_19
REMARK    7  A    between atoms: C_25  and  N_26
REMARK                            x       y       z     vdW  Elec       q    Type
REMARK                         _______ _______ _______ _____ _____    ______ ____
ROOT
ATOM      1  N   UNL     1       2.863   7.142  18.786  0.00  0.00    +0.000 N 
ATOM      2  C   UNL     1       2.540   6.048  17.993  0.00  0.00    +0.000 C 
ATOM      3  O   UNL     1       1.403   5.724  17.674  0.00  0.00    +0.000 OA
ATOM      4  H   UNL     1       3.839   7.215  19.054  0.00  0.00    +0.000 HD
ENDROOT
BRANCH   1  13
ATOM      5  C   UNL     1      -1.119  10.568  23.230  0.00  0.00    +0.000 C 
ATOM      6  C   UNL     1      -1.360  11.350  21.972  0.00  0.00    +0.000 C 
ATOM      7  O   UNL     1      -2.134  12.313  22.006  0.00  0.00    +0.000 OA
ATOM      8  N   UNL     1      -0.713  10.991  20.810  0.00  0.00    +0.000 N 
ATOM      9  C   UNL     1      -0.904  11.826  19.613  0.00  0.00    +0.000 C 
ATOM     10  C   UNL     1      -0.202  11.135  18.447  0.00  0.00    +0.000 C 
ATOM     11  C   UNL     1       0.528  10.031  19.144  0.00  0.00    +0.000 A 
ATOM     12  C   UNL     1       1.403   9.130  18.545  0.00  0.00    +0.000 A 
ATOM     13  C   UNL     1       1.966   8.106  19.308  0.00  0.00    +0.000 A 
ATOM     14  C   UNL     1       1.627   8.027  20.672  0.00  0.00    +0.000 A 
ATOM     15  C   UNL     1       0.742   8.950  21.270  0.00  0.00    +0.000 A 
ATOM     16  C   UNL     1       0.190   9.956  20.497  0.00  0.00    +0.000 A 
ENDBRANCH   1  13
BRANCH   2  17
ATOM     17  C   UNL     1       3.681   5.249  17.551  0.00  0.00    +0.000 A 
ATOM     18  C   UNL     1       3.719   3.831  17.386  0.00  0.00    +0.000 A 
ATOM     19  C   UNL     1       2.656   2.819  17.630  0.00  0.00    +0.000 C 
ATOM     20  N   UNL     1       4.910   3.406  16.956  0.00  0.00    +0.000 NA
ATOM     21  N   UNL     1       5.611   4.537  16.742  0.00  0.00    +0.000 N 
ATOM     22  C   UNL     1       4.934   5.678  17.130  0.00  0.00    +0.000 A 
BRANCH  22  23
ATOM     23  N   UNL     1       5.456   6.930  17.014  0.00  0.00    +0.000 N 
ATOM     24  H   UNL     1       4.858   7.682  16.673  0.00  0.00    +0.000 HD
ATOM     25  H   UNL     1       6.024   7.278  17.786  0.00  0.00    +0.000 HD
ENDBRANCH  22  23
BRANCH  21  26
ATOM     26  C   UNL     1       6.940   4.421  16.147  0.00  0.00    +0.000 C 
BRANCH  26  27
ATOM     27  C   UNL     1       6.894   4.393  14.635  0.00  0.00    +0.000 A 
ATOM     28  C   UNL     1       7.733   5.225  13.878  0.00  0.00    +0.000 A 
ATOM     29  C   UNL     1       7.693   5.193  12.481  0.00  0.00    +0.000 A 
ATOM     30  C   UNL     1       6.823   4.326  11.823  0.00  0.00    +0.000 A 
ATOM     31  C   UNL     1       5.997   3.482  12.560  0.00  0.00    +0.000 A 
ATOM     32  C   UNL     1       6.035   3.512  13.956  0.00  0.00    +0.000 A 
ENDBRANCH  26  27
ENDBRANCH  21  26
ENDBRANCH   2  17
TORSDOF 5
ENDMDL
MODEL 9
REMARK VINA RESULT:      -8.3      3.023     10.564
REMARK  Name = 
REMARK  7 active torsions:
REMARK  status: ('A' for Active; 'I' for Inactive)
REMARK    1  A    between atoms: C_1  and  C_2
REMARK    2  A    between atoms: C_9  and  N_10
REMARK    3  A    between atoms: C_11  and  C_13
REMARK    4  A    between atoms: C_14  and  C_15
REMARK    5  A    between atoms: N_17  and  C_18
REMARK    6  A    between atoms: C_18  and  C_19
REMARK    7  A    between atoms: C_25  and  N_26
REMARK                            x       y       z     vdW  Elec       q    Type
REMARK                         _______ _______ _______ _____ _____    ______ ____
ROOT
ATOM      1  N   UNL     1       1.402   8.790  20.655  0.00  0.00    +0.000 N 
ATOM      2  C   UNL     1       0.660   9.730  19.951  0.00  0.00    +0.000 C 
ATOM      3  O   UNL     1       0.267   9.595  18.799  0.00  0.00    +0.000 OA
ATOM      4  H   UNL     1       1.748   9.094  21.559  0.00  0.00    +0.000 HD
ENDROOT
BRANCH   1  13
ATOM      5  C   UNL     1       4.230   3.810  16.841  0.00  0.00    +0.000 C 
ATOM      6  C   UNL     1       3.555   3.000  17.909  0.00  0.00    +0.000 C 
ATOM      7  O   UNL     1       3.638   1.768  17.867  0.00  0.00    +0.000 OA
ATOM      8  N   UNL     1       2.867   3.639  18.917  0.00  0.00    +0.000 N 
ATOM      9  C   UNL     1       2.286   2.823  19.997  0.00  0.00    +0.000 C 
ATOM     10  C   UNL     1       1.469   3.751  20.891  0.00  0.00    +0.000 C 
ATOM     11  C   UNL     1       1.831   5.096  20.346  0.00  0.00    +0.000 A 
ATOM     12  C   UNL     1       1.416   6.321  20.861  0.00  0.00    +0.000 A 
ATOM     13  C   UNL     1       1.779   7.500  20.208  0.00  0.00    +0.000 A 
ATOM     14  C   UNL     1       2.567   7.403  19.045  0.00  0.00    +0.000 A 
ATOM     15  C   UNL     1       2.986   6.156  18.535  0.00  0.00    +0.000 A 
ATOM     16  C   UNL     1       2.612   4.997  19.193  0.00  0.00    +0.000 A 
ENDBRANCH   1  13
BRANCH   2  17
ATOM     17  C   UNL     1       0.374  10.962  20.684  0.00  0.00    +0.000 A 
ATOM     18  C   UNL     1       0.704  12.292  20.281  0.00  0.00    +0.000 A 
ATOM     19  C   UNL     1       1.420  12.765  19.067  0.00  0.00    +0.000 C 
ATOM     20  N   UNL     1       0.292  13.203  21.168  0.00  0.00    +0.000 NA
ATOM     21  N   UNL     1      -0.390  12.490  22.087  0.00  0.00    +0.000 N 
ATOM     22  C   UNL     1      -0.332  11.126  21.869  0.00  0.00    +0.000 A 
BRANCH  22  23
ATOM     23  N   UNL     1      -0.940  10.217  22.678  0.00  0.00    +0.000 N 
ATOM     24  H   UNL     1      -0.385   9.745  23.392  0.00  0.00    +0.000 HD
ATOM     25  H   UNL     1      -1.848  10.467  23.073  0.00  0.00    +0.000 HD
ENDBRANCH  22  23
BRANCH  21  26
ATOM     26  C   UNL     1      -1.079  13.218  23.149  0.00  0.00    +0.000 C 
BRANCH  26  27
ATOM     27  C   UNL     1      -2.584  13.169  22.998  0.00  0.00    +0.000 A 
ATOM     28  C   UNL     1      -3.186  13.381  21.748  0.00  0.00    +0.000 A 
ATOM     29  C   UNL     1      -4.576  13.329  21.611  0.00  0.00    +0.000 A 
ATOM     30  C   UNL     1      -5.381  13.056  22.715  0.00  0.00    +0.000 A 
ATOM     31  C   UNL     1      -4.798  12.827  23.958  0.00  0.00    +0.000 A 
ATOM     32  C   UNL     1      -3.409  12.878  24.098  0.00  0.00    +0.000 A 
ENDBRANCH  26  27
ENDBRANCH  21  26
ENDBRANCH   2  17
TORSDOF 5
ENDMDL
