MODEL 1
REMARK VINA RESULT:      -9.0      0.000      0.000
REMARK  Name = 
REMARK  5 active torsions:
REMARK  status: ('A' for Active; 'I' for Inactive)
REMARK    1  A    between atoms: C_5  and  O_6
REMARK    2  A    between atoms: O_6  and  C_7
REMARK    3  A    between atoms: C_9  and  C_10
REMARK    4  A    between atoms: C_10  and  N_11
REMARK    5  A    between atoms: N_11  and  C_12
REMARK                            x       y       z     vdW  Elec       q    Type
REMARK                         _______ _______ _______ _____ _____    ______ ____
ROOT
ATOM      1  C   UNL     1       3.020   3.679  17.777  0.00  0.00    +0.000 A 
ATOM      2  C   UNL     1       2.992   4.497  18.875  0.00  0.00    +0.000 A 
ATOM      3  C   UNL     1       2.040   4.429  19.879  0.00  0.00    +0.000 A 
ATOM      4  C   UNL     1       1.035   3.513  19.678  0.00  0.00    +0.000 A 
ATOM      5  C   UNL     1       1.064   2.751  18.520  0.00  0.00    +0.000 A 
ATOM      6  N   UNL     1       2.034   2.810  17.570  0.00  0.00    +0.000 NA
ENDROOT
BRANCH   1   7
ATOM      7  O   UNL     1       4.050   3.789  16.846  0.00  0.00    +0.000 OA
BRANCH   7  12
ATOM      8  F   UNL     1       8.026   7.544  17.664  0.00  0.00    +0.000 F 
ATOM      9  C   UNL     1       7.067   6.631  17.476  0.00  0.00    +0.000 A 
ATOM     10  C   UNL     1       7.288   5.323  17.841  0.00  0.00    +0.000 A 
ATOM     11  C   UNL     1       6.296   4.373  17.621  0.00  0.00    +0.000 A 
ATOM     12  C   UNL     1       5.060   4.710  17.079  0.00  0.00    +0.000 A 
ATOM     13  C   UNL     1       4.857   6.044  16.726  0.00  0.00    +0.000 A 
ATOM     14  C   UNL     1       5.862   7.001  16.912  0.00  0.00    +0.000 A 
ENDBRANCH   7  12
ENDBRANCH   1   7
BRANCH   3  15
ATOM     15  C   UNL     1       2.076   5.280  21.108  0.00  0.00    +0.000 C 
BRANCH  15  16
ATOM     16  N   UNL     1       1.913   6.658  20.896  0.00  0.00    +0.000 N 
ATOM     17  H   UNL     1       1.253   6.618  20.091  0.00  0.00    +0.000 HD
BRANCH  16  18
ATOM     18  C   UNL     1       1.674   7.839  20.408  0.00  0.00    +0.000 A 
ATOM     19  N   UNL     1       2.150   7.888  18.773  0.00  0.00    +0.000 NA
ATOM     20  C   UNL     1       1.979   8.819  17.889  0.00  0.00    +0.000 A 
ATOM     21  N   UNL     1       1.442   9.163  18.933  0.00  0.00    +0.000 NA
ATOM     22  C   UNL     1       0.875   9.542  20.017  0.00  0.00    +0.000 A 
ATOM     23  C   UNL     1       0.468  10.727  19.791  0.00  0.00    +0.000 A 
ATOM     24  C   UNL     1      -0.106  11.405  20.768  0.00  0.00    +0.000 A 
ATOM     25  C   UNL     1      -0.290  10.814  22.001  0.00  0.00    +0.000 A 
ATOM     26  C   UNL     1       0.181   9.512  22.230  0.00  0.00    +0.000 A 
ATOM     27  F   UNL     1      -0.007   9.045  23.478  0.00  0.00    +0.000 F 
ATOM     28  C   UNL     1       0.918   8.827  21.110  0.00  0.00    +0.000 A 
ENDBRANCH  16  18
ENDBRANCH  15  16
ENDBRANCH   3  15
TORSDOF 5
ENDMDL
MODEL 2
REMARK VINA RESULT:      -8.9      1.033      1.408
REMARK  Name = 
REMARK  5 active torsions:
REMARK  status: ('A' for Active; 'I' for Inactive)
REMARK    1  A    between atoms: C_5  and  O_6
REMARK    2  A    between atoms: O_6  and  C_7
REMARK    3  A    between atoms: C_9  and  C_10
REMARK    4  A    between atoms: C_10  and  N_11
REMARK    5  A    between atoms: N_11  and  C_12
REMARK                            x       y       z     vdW  Elec       q    Type
REMARK                         _______ _______ _______ _____ _____    ______ ____
ROOT
ATOM      1  C   UNL     1       4.417   3.804  18.893  0.00  0.00    +0.000 A 
ATOM      2  C   UNL     1       3.775   4.702  19.701  0.00  0.00    +0.000 A 
ATOM      3  C   UNL     1       2.412   4.695  19.952  0.00  0.00    +0.000 A 
ATOM      4  C   UNL     1       1.690   3.749  19.264  0.00  0.00    +0.000 A 
ATOM      5  C   UNL     1       2.372   2.902  18.404  0.00  0.00    +0.000 A 
ATOM      6  N   UNL     1       3.716   2.904  18.207  0.00  0.00    +0.000 NA
ENDROOT
BRANCH   1   7
ATOM      7  O   UNL     1       5.801   3.859  18.743  0.00  0.00    +0.000 OA
BRANCH   7  12
ATOM      8  F   UNL     1       8.148   8.662  17.328  0.00  0.00    +0.000 F 
ATOM      9  C   UNL     1       7.579   7.498  17.659  0.00  0.00    +0.000 A 
ATOM     10  C   UNL     1       6.523   7.018  16.919  0.00  0.00    +0.000 A 
ATOM     11  C   UNL     1       5.920   5.819  17.283  0.00  0.00    +0.000 A 
ATOM     12  C   UNL     1       6.379   5.058  18.354  0.00  0.00    +0.000 A 
ATOM     13  C   UNL     1       7.457   5.561  19.083  0.00  0.00    +0.000 A 
ATOM     14  C   UNL     1       8.048   6.784  18.745  0.00  0.00    +0.000 A 
ENDBRANCH   7  12
ENDBRANCH   1   7
BRANCH   3  15
ATOM     15  C   UNL     1       1.744   5.638  20.901  0.00  0.00    +0.000 C 
BRANCH  15  16
ATOM     16  N   UNL     1       1.806   6.996  20.550  0.00  0.00    +0.000 N 
ATOM     17  H   UNL     1       0.876   7.296  20.910  0.00  0.00    +0.000 HD
BRANCH  16  18
ATOM     18  C   UNL     1       1.546   8.233  20.245  0.00  0.00    +0.000 A 
ATOM     19  N   UNL     1       1.996   8.528  18.629  0.00  0.00    +0.000 NA
ATOM     20  C   UNL     1       1.800   9.577  17.894  0.00  0.00    +0.000 A 
ATOM     21  N   UNL     1       1.276   9.755  18.985  0.00  0.00    +0.000 NA
ATOM     22  C   UNL     1       0.722   9.963  20.120  0.00  0.00    +0.000 A 
ATOM     23  C   UNL     1       0.298  11.163  20.077  0.00  0.00    +0.000 A 
ATOM     24  C   UNL     1      -0.268  11.682  21.151  0.00  0.00    +0.000 A 
ATOM     25  C   UNL     1      -0.425  10.913  22.287  0.00  0.00    +0.000 A 
ATOM     26  C   UNL     1       0.063   9.598  22.314  0.00  0.00    +0.000 A 
ATOM     27  F   UNL     1      -0.099   8.950  23.483  0.00  0.00    +0.000 F 
ATOM     28  C   UNL     1       0.790   9.096  21.095  0.00  0.00    +0.000 A 
ENDBRANCH  16  18
ENDBRANCH  15  16
ENDBRANCH   3  15
TORSDOF 5
ENDMDL
MODEL 3
REMARK VINA RESULT:      -8.6      1.654      2.553
REMARK  Name = 
REMARK  5 active torsions:
REMARK  status: ('A' for Active; 'I' for Inactive)
REMARK    1  A    between atoms: C_5  and  O_6
REMARK    2  A    between atoms: O_6  and  C_7
REMARK    3  A    between atoms: C_9  and  C_10
REMARK    4  A    between atoms: C_10  and  N_11
REMARK    5  A    between atoms: N_11  and  C_12
REMARK                            x       y       z     vdW  Elec       q    Type
REMARK                         _______ _______ _______ _____ _____    ______ ____
ROOT
ATOM      1  C   UNL     1       3.364   4.252  17.497  0.00  0.00    +0.000 A 
ATOM      2  C   UNL     1       3.088   4.933  18.652  0.00  0.00    +0.000 A 
ATOM      3  C   UNL     1       2.190   4.505  19.618  0.00  0.00    +0.000 A 
ATOM      4  C   UNL     1       1.502   3.354  19.316  0.00  0.00    +0.000 A 
ATOM      5  C   UNL     1       1.765   2.732  18.105  0.00  0.00    +0.000 A 
ATOM      6  N   UNL     1       2.680   3.152  17.193  0.00  0.00    +0.000 NA
ENDROOT
BRANCH   1   7
ATOM      7  O   UNL     1       4.323   4.736  16.609  0.00  0.00    +0.000 OA
BRANCH   7  12
ATOM      8  F   UNL     1       8.700   7.341  18.763  0.00  0.00    +0.000 F 
ATOM      9  C   UNL     1       7.642   6.717  18.232  0.00  0.00    +0.000 A 
ATOM     10  C   UNL     1       6.757   7.420  17.448  0.00  0.00    +0.000 A 
ATOM     11  C   UNL     1       5.646   6.771  16.918  0.00  0.00    +0.000 A 
ATOM     12  C   UNL     1       5.419   5.413  17.122  0.00  0.00    +0.000 A 
ATOM     13  C   UNL     1       6.336   4.721  17.913  0.00  0.00    +0.000 A 
ATOM     14  C   UNL     1       7.439   5.373  18.478  0.00  0.00    +0.000 A 
ENDBRANCH   7  12
ENDBRANCH   1   7
BRANCH   3  15
ATOM     15  C   UNL     1       1.964   5.225  20.909  0.00  0.00    +0.000 C 
BRANCH  15  16
ATOM     16  N   UNL     1       1.801   6.616  20.806  0.00  0.00    +0.000 N 
ATOM     17  H   UNL     1       0.805   6.682  21.103  0.00  0.00    +0.000 HD
BRANCH  16  18
ATOM     18  C   UNL     1       1.341   7.827  20.690  0.00  0.00    +0.000 A 
ATOM     19  N   UNL     1       0.642   8.315  22.164  0.00  0.00    +0.000 NA
ATOM     20  C   UNL     1       0.184   9.474  22.519  0.00  0.00    +0.000 A 
ATOM     21  N   UNL     1       0.644   9.560  21.389  0.00  0.00    +0.000 NA
ATOM     22  C   UNL     1       1.118   9.672  20.205  0.00  0.00    +0.000 A 
ATOM     23  C   UNL     1       0.844  10.860  19.839  0.00  0.00    +0.000 A 
ATOM     24  C   UNL     1       1.159  11.243  18.616  0.00  0.00    +0.000 A 
ATOM     25  C   UNL     1       1.810  10.371  17.766  0.00  0.00    +0.000 A 
ATOM     26  C   UNL     1       2.089   9.062  18.188  0.00  0.00    +0.000 A 
ATOM     27  F   UNL     1       2.685   8.278  17.270  0.00  0.00    +0.000 F 
ATOM     28  C   UNL     1       1.614   8.651  19.557  0.00  0.00    +0.000 A 
ENDBRANCH  16  18
ENDBRANCH  15  16
ENDBRANCH   3  15
TORSDOF 5
ENDMDL
MODEL 4
REMARK VINA RESULT:      -8.5      1.755      2.481
REMARK  Name = 
REMARK  5 active torsions:
REMARK  status: ('A' for Active; 'I' for Inactive)
REMARK    1  A    between atoms: C_5  and  O_6
REMARK    2  A    between atoms: O_6  and  C_7
REMARK    3  A    between atoms: C_9  and  C_10
REMARK    4  A    between atoms: C_10  and  N_11
REMARK    5  A    between atoms: N_11  and  C_12
REMARK                            x       y       z     vdW  Elec       q    Type
REMARK                         _______ _______ _______ _____ _____    ______ ____
ROOT
ATOM      1  C   UNL     1       3.680   4.241  17.819  0.00  0.00    +0.000 A 
ATOM      2  C   UNL     1       3.124   4.890  18.888  0.00  0.00    +0.000 A 
ATOM      3  C   UNL     1       2.328   4.283  19.846  0.00  0.00    +0.000 A 
ATOM      4  C   UNL     1       2.046   2.956  19.624  0.00  0.00    +0.000 A 
ATOM      5  C   UNL     1       2.576   2.353  18.494  0.00  0.00    +0.000 A 
ATOM      6  N   UNL     1       3.388   2.963  17.591  0.00  0.00    +0.000 NA
ENDROOT
BRANCH   1   7
ATOM      7  O   UNL     1       4.512   4.926  16.937  0.00  0.00    +0.000 OA
BRANCH   7  12
ATOM      8  F   UNL     1       8.909   7.679  18.852  0.00  0.00    +0.000 F 
ATOM      9  C   UNL     1       7.844   7.009  18.399  0.00  0.00    +0.000 A 
ATOM     10  C   UNL     1       7.580   5.745  18.872  0.00  0.00    +0.000 A 
ATOM     11  C   UNL     1       6.484   5.043  18.380  0.00  0.00    +0.000 A 
ATOM     12  C   UNL     1       5.612   5.598  17.448  0.00  0.00    +0.000 A 
ATOM     13  C   UNL     1       5.896   6.885  16.991  0.00  0.00    +0.000 A 
ATOM     14  C   UNL     1       7.015   7.585  17.455  0.00  0.00    +0.000 A 
ENDBRANCH   7  12
ENDBRANCH   1   7
BRANCH   3  15
ATOM     15  C   UNL     1       1.796   4.996  21.049  0.00  0.00    +0.000 C 
BRANCH  15  16
ATOM     16  N   UNL     1       1.678   6.389  20.924  0.00  0.00    +0.000 N 
ATOM     17  H   UNL     1       0.656   6.478  21.102  0.00  0.00    +0.000 HD
BRANCH  16  18
ATOM     18  C   UNL     1       1.263   7.609  20.751  0.00  0.00    +0.000 A 
ATOM     19  N   UNL     1       0.521   8.166  22.179  0.00  0.00    +0.000 NA
ATOM     20  C   UNL     1       0.086   9.349  22.478  0.00  0.00    +0.000 A 
ATOM     21  N   UNL     1       0.594   9.384  21.366  0.00  0.00    +0.000 NA
ATOM     22  C   UNL     1       1.120   9.443  20.200  0.00  0.00    +0.000 A 
ATOM     23  C   UNL     1       0.899  10.627  19.786  0.00  0.00    +0.000 A 
ATOM     24  C   UNL     1       1.277  10.961  18.566  0.00  0.00    +0.000 A 
ATOM     25  C   UNL     1       1.933  10.042  17.772  0.00  0.00    +0.000 A 
ATOM     26  C   UNL     1       2.152   8.739  18.245  0.00  0.00    +0.000 A 
ATOM     27  F   UNL     1       2.759   7.908  17.378  0.00  0.00    +0.000 F 
ATOM     28  C   UNL     1       1.609   8.387  19.605  0.00  0.00    +0.000 A 
ENDBRANCH  16  18
ENDBRANCH  15  16
ENDBRANCH   3  15
TORSDOF 5
ENDMDL
MODEL 5
REMARK VINA RESULT:      -8.5      3.469      8.103
REMARK  Name = 
REMARK  5 active torsions:
REMARK  status: ('A' for Active; 'I' for Inactive)
REMARK    1  A    between atoms: C_5  and  O_6
REMARK    2  A    between atoms: O_6  and  C_7
REMARK    3  A    between atoms: C_9  and  C_10
REMARK    4  A    between atoms: C_10  and  N_11
REMARK    5  A    between atoms: N_11  and  C_12
REMARK                            x       y       z     vdW  Elec       q    Type
REMARK                         _______ _______ _______ _____ _____    ______ ____
ROOT
ATOM      1  C   UNL     1       0.234  10.323  19.452  0.00  0.00    +0.000 A 
ATOM      2  C   UNL     1       1.160   9.824  18.578  0.00  0.00    +0.000 A 
ATOM      3  C   UNL     1       1.913   8.682  18.802  0.00  0.00    +0.000 A 
ATOM      4  C   UNL     1       1.734   8.088  20.028  0.00  0.00    +0.000 A 
ATOM      5  C   UNL     1       0.833   8.665  20.910  0.00  0.00    +0.000 A 
ATOM      6  N   UNL     1       0.078   9.763  20.649  0.00  0.00    +0.000 NA
ENDROOT
BRANCH   1   7
ATOM      7  O   UNL     1      -0.513  11.450  19.116  0.00  0.00    +0.000 OA
BRANCH   7  12
ATOM      8  F   UNL     1      -5.767  10.800  17.516  0.00  0.00    +0.000 F 
ATOM      9  C   UNL     1      -4.493  10.955  17.892  0.00  0.00    +0.000 A 
ATOM     10  C   UNL     1      -3.513  10.176  17.323  0.00  0.00    +0.000 A 
ATOM     11  C   UNL     1      -2.192  10.325  17.736  0.00  0.00    +0.000 A 
ATOM     12  C   UNL     1      -1.819  11.275  18.682  0.00  0.00    +0.000 A 
ATOM     13  C   UNL     1      -2.830  12.059  19.237  0.00  0.00    +0.000 A 
ATOM     14  C   UNL     1      -4.166  11.892  18.853  0.00  0.00    +0.000 A 
ENDBRANCH   7  12
ENDBRANCH   1   7
BRANCH   3  15
ATOM     15  C   UNL     1       2.862   8.110  17.797  0.00  0.00    +0.000 C 
BRANCH  15  16
ATOM     16  N   UNL     1       3.146   6.743  17.941  0.00  0.00    +0.000 N 
ATOM     17  H   UNL     1       3.032   6.451  16.949  0.00  0.00    +0.000 HD
BRANCH  16  18
ATOM     18  C   UNL     1       3.246   5.454  17.803  0.00  0.00    +0.000 A 
ATOM     19  N   UNL     1       4.530   5.092  16.744  0.00  0.00    +0.000 NA
ATOM     20  C   UNL     1       5.046   3.946  16.431  0.00  0.00    +0.000 A 
ATOM     21  N   UNL     1       4.168   3.769  17.265  0.00  0.00    +0.000 NA
ATOM     22  C   UNL     1       3.252   3.563  18.136  0.00  0.00    +0.000 A 
ATOM     23  C   UNL     1       3.170   2.297  18.249  0.00  0.00    +0.000 A 
ATOM     24  C   UNL     1       2.249   1.783  19.042  0.00  0.00    +0.000 A 
ATOM     25  C   UNL     1       1.416   2.616  19.762  0.00  0.00    +0.000 A 
ATOM     26  C   UNL     1       1.516   4.007  19.608  0.00  0.00    +0.000 A 
ATOM     27  F   UNL     1       0.629   4.728  20.319  0.00  0.00    +0.000 F 
ATOM     28  C   UNL     1       2.517   4.532  18.613  0.00  0.00    +0.000 A 
ENDBRANCH  16  18
ENDBRANCH  15  16
ENDBRANCH   3  15
TORSDOF 5
ENDMDL
MODEL 6
REMARK VINA RESULT:      -8.4      3.647      7.813
REMARK  Name = 
REMARK  5 active torsions:
REMARK  status: ('A' for Active; 'I' for Inactive)
REMARK    1  A    between atoms: C_5  and  O_6
REMARK    2  A    between atoms: O_6  and  C_7
REMARK    3  A    between atoms: C_9  and  C_10
REMARK    4  A    between atoms: C_10  and  N_11
REMARK    5  A    between atoms: N_11  and  C_12
REMARK                            x       y       z     vdW  Elec       q    Type
REMARK                         _______ _______ _______ _____ _____    ______ ____
ROOT
ATOM      1  C   UNL     1      -0.243  10.121  19.808  0.00  0.00    +0.000 A 
ATOM      2  C   UNL     1       0.730   9.746  18.921  0.00  0.00    +0.000 A 
ATOM      3  C   UNL     1       1.640   8.725  19.143  0.00  0.00    +0.000 A 
ATOM      4  C   UNL     1       1.568   8.128  20.379  0.00  0.00    +0.000 A 
ATOM      5  C   UNL     1       0.610   8.583  21.272  0.00  0.00    +0.000 A 
ATOM      6  N   UNL     1      -0.297   9.560  21.014  0.00  0.00    +0.000 NA
ENDROOT
BRANCH   1   7
ATOM      7  O   UNL     1      -1.148  11.126  19.474  0.00  0.00    +0.000 OA
BRANCH   7  12
ATOM      8  F   UNL     1      -4.327  10.332  15.019  0.00  0.00    +0.000 F 
ATOM      9  C   UNL     1      -3.568  10.525  16.103  0.00  0.00    +0.000 A 
ATOM     10  C   UNL     1      -3.961  11.431  17.060  0.00  0.00    +0.000 A 
ATOM     11  C   UNL     1      -3.155  11.645  18.174  0.00  0.00    +0.000 A 
ATOM     12  C   UNL     1      -1.974  10.937  18.376  0.00  0.00    +0.000 A 
ATOM     13  C   UNL     1      -1.602  10.017  17.396  0.00  0.00    +0.000 A 
ATOM     14  C   UNL     1      -2.390   9.820  16.255  0.00  0.00    +0.000 A 
ENDBRANCH   7  12
ENDBRANCH   1   7
BRANCH   3  15
ATOM     15  C   UNL     1       2.643   8.281  18.127  0.00  0.00    +0.000 C 
BRANCH  15  16
ATOM     16  N   UNL     1       2.968   6.915  18.153  0.00  0.00    +0.000 N 
ATOM     17  H   UNL     1       2.596   6.645  17.219  0.00  0.00    +0.000 HD
BRANCH  16  18
ATOM     18  C   UNL     1       3.039   5.632  17.957  0.00  0.00    +0.000 A 
ATOM     19  N   UNL     1       4.262   5.294  16.822  0.00  0.00    +0.000 NA
ATOM     20  C   UNL     1       4.743   4.154  16.437  0.00  0.00    +0.000 A 
ATOM     21  N   UNL     1       3.905   3.957  17.306  0.00  0.00    +0.000 NA
ATOM     22  C   UNL     1       3.030   3.728  18.213  0.00  0.00    +0.000 A 
ATOM     23  C   UNL     1       2.932   2.460  18.279  0.00  0.00    +0.000 A 
ATOM     24  C   UNL     1       2.042   1.928  19.096  0.00  0.00    +0.000 A 
ATOM     25  C   UNL     1       1.260   2.743  19.890  0.00  0.00    +0.000 A 
ATOM     26  C   UNL     1       1.376   4.137  19.788  0.00  0.00    +0.000 A 
ATOM     27  F   UNL     1       0.538   4.842  20.570  0.00  0.00    +0.000 F 
ATOM     28  C   UNL     1       2.336   4.687  18.766  0.00  0.00    +0.000 A 
ENDBRANCH  16  18
ENDBRANCH  15  16
ENDBRANCH   3  15
TORSDOF 5
ENDMDL
MODEL 7
REMARK VINA RESULT:      -8.3      2.535      6.244
REMARK  Name = 
REMARK  5 active torsions:
REMARK  status: ('A' for Active; 'I' for Inactive)
REMARK    1  A    between atoms: C_5  and  O_6
REMARK    2  A    between atoms: O_6  and  C_7
REMARK    3  A    between atoms: C_9  and  C_10
REMARK    4  A    between atoms: C_10  and  N_11
REMARK    5  A    between atoms: N_11  and  C_12
REMARK                            x       y       z     vdW  Elec       q    Type
REMARK                         _______ _______ _______ _____ _____    ______ ____
ROOT
ATOM      1  C   UNL     1       2.062   4.595  20.123  0.00  0.00    +0.000 A 
ATOM      2  C   UNL     1       2.957   3.913  19.342  0.00  0.00    +0.000 A 
ATOM      3  C   UNL     1       2.678   2.723  18.690  0.00  0.00    +0.000 A 
ATOM      4  C   UNL     1       1.433   2.194  18.933  0.00  0.00    +0.000 A 
ATOM      5  C   UNL     1       0.582   2.884  19.782  0.00  0.00    +0.000 A 
ATOM      6  N   UNL     1       0.866   4.072  20.378  0.00  0.00    +0.000 NA
ENDROOT
BRANCH   1   7
ATOM      7  O   UNL     1       2.418   5.814  20.696  0.00  0.00    +0.000 OA
BRANCH   7  12
ATOM      8  F   UNL     1       1.226  10.484  17.984  0.00  0.00    +0.000 F 
ATOM      9  C   UNL     1       1.525   9.354  18.634  0.00  0.00    +0.000 A 
ATOM     10  C   UNL     1       2.248   8.371  18.001  0.00  0.00    +0.000 A 
ATOM     11  C   UNL     1       2.535   7.188  18.675  0.00  0.00    +0.000 A 
ATOM     12  C   UNL     1       2.149   6.981  19.996  0.00  0.00    +0.000 A 
ATOM     13  C   UNL     1       1.424   7.996  20.619  0.00  0.00    +0.000 A 
ATOM     14  C   UNL     1       1.101   9.176  19.937  0.00  0.00    +0.000 A 
ENDBRANCH   7  12
ENDBRANCH   1   7
BRANCH   3  15
ATOM     15  C   UNL     1       3.646   2.037  17.779  0.00  0.00    +0.000 C 
BRANCH  15  16
ATOM     16  N   UNL     1       4.467   2.885  17.019  0.00  0.00    +0.000 N 
ATOM     17  H   UNL     1       5.305   2.889  17.636  0.00  0.00    +0.000 HD
BRANCH  16  18
ATOM     18  C   UNL     1       5.375   3.713  16.595  0.00  0.00    +0.000 A 
ATOM     19  N   UNL     1       5.606   3.498  14.921  0.00  0.00    +0.000 NA
ATOM     20  C   UNL     1       6.316   4.191  14.088  0.00  0.00    +0.000 A 
ATOM     21  N   UNL     1       6.386   4.710  15.194  0.00  0.00    +0.000 NA
ATOM     22  C   UNL     1       6.473   5.268  16.343  0.00  0.00    +0.000 A 
ATOM     23  C   UNL     1       7.310   6.217  16.197  0.00  0.00    +0.000 A 
ATOM     24  C   UNL     1       7.653   6.936  17.249  0.00  0.00    +0.000 A 
ATOM     25  C   UNL     1       7.078   6.679  18.478  0.00  0.00    +0.000 A 
ATOM     26  C   UNL     1       6.169   5.619  18.615  0.00  0.00    +0.000 A 
ATOM     27  F   UNL     1       5.701   5.423  19.862  0.00  0.00    +0.000 F 
ATOM     28  C   UNL     1       5.895   4.769  17.403  0.00  0.00    +0.000 A 
ENDBRANCH  16  18
ENDBRANCH  15  16
ENDBRANCH   3  15
TORSDOF 5
ENDMDL
MODEL 8
REMARK VINA RESULT:      -8.3      3.898      6.005
REMARK  Name = 
REMARK  5 active torsions:
REMARK  status: ('A' for Active; 'I' for Inactive)
REMARK    1  A    between atoms: C_5  and  O_6
REMARK    2  A    between atoms: O_6  and  C_7
REMARK    3  A    between atoms: C_9  and  C_10
REMARK    4  A    between atoms: C_10  and  N_11
REMARK    5  A    between atoms: N_11  and  C_12
REMARK                            x       y       z     vdW  Elec       q    Type
REMARK                         _______ _______ _______ _____ _____    ______ ____
ROOT
ATOM      1  C   UNL     1       1.710   7.976  20.164  0.00  0.00    +0.000 A 
ATOM      2  C   UNL     1       1.453   8.955  19.241  0.00  0.00    +0.000 A 
ATOM      3  C   UNL     1       0.638  10.052  19.470  0.00  0.00    +0.000 A 
ATOM      4  C   UNL     1       0.010  10.076  20.692  0.00  0.00    +0.000 A 
ATOM      5  C   UNL     1       0.246   9.030  21.571  0.00  0.00    +0.000 A 
ATOM      6  N   UNL     1       1.082   7.986  21.337  0.00  0.00    +0.000 NA
ENDROOT
BRANCH   1   7
ATOM      7  O   UNL     1       2.587   6.937  19.859  0.00  0.00    +0.000 OA
BRANCH   7  12
ATOM      8  F   UNL     1       0.515   1.967  18.598  0.00  0.00    +0.000 F 
ATOM      9  C   UNL     1       1.012   3.174  18.893  0.00  0.00    +0.000 A 
ATOM     10  C   UNL     1       1.487   3.982  17.887  0.00  0.00    +0.000 A 
ATOM     11  C   UNL     1       2.025   5.226  18.203  0.00  0.00    +0.000 A 
ATOM     12  C   UNL     1       2.058   5.703  19.510  0.00  0.00    +0.000 A 
ATOM     13  C   UNL     1       1.562   4.868  20.511  0.00  0.00    +0.000 A 
ATOM     14  C   UNL     1       1.050   3.601  20.206  0.00  0.00    +0.000 A 
ENDBRANCH   7  12
ENDBRANCH   1   7
BRANCH   3  15
ATOM     15  C   UNL     1       0.436  11.149  18.474  0.00  0.00    +0.000 C 
BRANCH  15  16
ATOM     16  N   UNL     1      -0.825  11.183  17.858  0.00  0.00    +0.000 N 
ATOM     17  H   UNL     1      -1.285  11.883  18.476  0.00  0.00    +0.000 HD
BRANCH  16  18
ATOM     18  C   UNL     1      -2.085  11.326  17.571  0.00  0.00    +0.000 A 
ATOM     19  N   UNL     1      -2.399  10.660  16.035  0.00  0.00    +0.000 NA
ATOM     20  C   UNL     1      -3.528  10.481  15.426  0.00  0.00    +0.000 A 
ATOM     21  N   UNL     1      -3.747  10.948  16.535  0.00  0.00    +0.000 NA
ATOM     22  C   UNL     1      -3.998  11.438  17.692  0.00  0.00    +0.000 A 
ATOM     23  C   UNL     1      -5.256  11.637  17.711  0.00  0.00    +0.000 A 
ATOM     24  C   UNL     1      -5.798  12.205  18.772  0.00  0.00    +0.000 A 
ATOM     25  C   UNL     1      -5.009  12.543  19.852  0.00  0.00    +0.000 A 
ATOM     26  C   UNL     1      -3.624  12.328  19.801  0.00  0.00    +0.000 A 
ATOM     27  F   UNL     1      -2.939  12.734  20.887  0.00  0.00    +0.000 F 
ATOM     28  C   UNL     1      -3.049  11.770  18.526  0.00  0.00    +0.000 A 
ENDBRANCH  16  18
ENDBRANCH  15  16
ENDBRANCH   3  15
TORSDOF 5
ENDMDL
MODEL 9
REMARK VINA RESULT:      -8.3      3.320      7.733
REMARK  Name = 
REMARK  5 active torsions:
REMARK  status: ('A' for Active; 'I' for Inactive)
REMARK    1  A    between atoms: C_5  and  O_6
REMARK    2  A    between atoms: O_6  and  C_7
REMARK    3  A    between atoms: C_9  and  C_10
REMARK    4  A    between atoms: C_10  and  N_11
REMARK    5  A    between atoms: N_11  and  C_12
REMARK                            x       y       z     vdW  Elec       q    Type
REMARK                         _______ _______ _______ _____ _____    ______ ____
ROOT
ATOM      1  C   UNL     1       2.395   5.617  19.652  0.00  0.00    +0.000 A 
ATOM      2  C   UNL     1       3.132   4.961  18.703  0.00  0.00    +0.000 A 
ATOM      3  C   UNL     1       2.827   3.703  18.208  0.00  0.00    +0.000 A 
ATOM      4  C   UNL     1       1.748   3.084  18.791  0.00  0.00    +0.000 A 
ATOM      5  C   UNL     1       1.070   3.758  19.795  0.00  0.00    +0.000 A 
ATOM      6  N   UNL     1       1.365   5.009  20.235  0.00  0.00    +0.000 NA
ENDROOT
BRANCH   1   7
ATOM      7  O   UNL     1       2.751   6.904  20.050  0.00  0.00    +0.000 OA
BRANCH   7  12
ATOM      8  F   UNL     1      -0.555  11.096  18.607  0.00  0.00    +0.000 F 
ATOM      9  C   UNL     1       0.253  10.086  18.949  0.00  0.00    +0.000 A 
ATOM     10  C   UNL     1       1.096   9.538  18.011  0.00  0.00    +0.000 A 
ATOM     11  C   UNL     1       1.917   8.472  18.367  0.00  0.00    +0.000 A 
ATOM     12  C   UNL     1       1.946   7.965  19.663  0.00  0.00    +0.000 A 
ATOM     13  C   UNL     1       1.089   8.545  20.598  0.00  0.00    +0.000 A 
ATOM     14  C   UNL     1       0.235   9.595  20.240  0.00  0.00    +0.000 A 
ENDBRANCH   7  12
ENDBRANCH   1   7
BRANCH   3  15
ATOM     15  C   UNL     1       3.602   3.039  17.114  0.00  0.00    +0.000 C 
BRANCH  15  16
ATOM     16  N   UNL     1       4.416   3.887  16.347  0.00  0.00    +0.000 N 
ATOM     17  H   UNL     1       5.275   3.300  16.319  0.00  0.00    +0.000 HD
BRANCH  16  18
ATOM     18  C   UNL     1       5.405   4.506  15.773  0.00  0.00    +0.000 A 
ATOM     19  N   UNL     1       6.254   5.421  16.931  0.00  0.00    +0.000 NA
ATOM     20  C   UNL     1       7.363   6.081  16.814  0.00  0.00    +0.000 A 
ATOM     21  N   UNL     1       7.121   5.522  15.753  0.00  0.00    +0.000 NA
ATOM     22  C   UNL     1       6.886   4.948  14.633  0.00  0.00    +0.000 A 
ATOM     23  C   UNL     1       7.798   5.355  13.843  0.00  0.00    +0.000 A 
ATOM     24  C   UNL     1       7.770   4.972  12.580  0.00  0.00    +0.000 A 
ATOM     25  C   UNL     1       6.782   4.114  12.141  0.00  0.00    +0.000 A 
ATOM     26  C   UNL     1       5.780   3.690  13.027  0.00  0.00    +0.000 A 
ATOM     27  F   UNL     1       4.839   2.892  12.490  0.00  0.00    +0.000 F 
ATOM     28  C   UNL     1       5.806   4.240  14.429  0.00  0.00    +0.000 A 
ENDBRANCH  16  18
ENDBRANCH  15  16
ENDBRANCH   3  15
TORSDOF 5
ENDMDL
