MODEL 1
REMARK VINA RESULT:      -9.6      0.000      0.000
REMARK  Name = 
REMARK  6 active torsions:
REMARK  status: ('A' for Active; 'I' for Inactive)
REMARK    1  A    between atoms: C_1  and  N_2
REMARK    2  A    between atoms: C_7  and  C_8
REMARK    3  A    between atoms: N_10  and  C_11
REMARK    4  A    between atoms: C_13  and  C_14
REMARK    5  A    between atoms: C_14  and  C_15
REMARK    6  A    between atoms: N_19  and  C_20
REMARK                            x       y       z     vdW  Elec       q    Type
REMARK                         _______ _______ _______ _____ _____    ______ ____
ROOT
ATOM      1  C   UNL     1       1.624   9.049  18.317  0.00  0.00    +0.000 C 
ATOM      2  O   UNL     1       2.268   9.437  17.354  0.00  0.00    +0.000 OA
ATOM      3  N   UNL     1       1.878   7.755  18.887  0.00  0.00    +0.000 N 
ATOM      4  H   UNL     1       1.250   7.349  19.574  0.00  0.00    +0.000 HD
ENDROOT
BRANCH   1  11
ATOM      5  C   UNL     1      -1.486  11.447  22.985  0.00  0.00    +0.000 C 
ATOM      6  N   UNL     1      -0.632  10.742  22.069  0.00  0.00    +0.000 N 
ATOM      7  C   UNL     1       0.408   9.901  22.396  0.00  0.00    +0.000 A 
ATOM      8  O   UNL     1       0.774   9.594  23.526  0.00  0.00    +0.000 OA
ATOM      9  O   UNL     1       1.031   9.407  21.242  0.00  0.00    +0.000 OA
ATOM     10  C   UNL     1       0.308  10.005  20.224  0.00  0.00    +0.000 A 
ATOM     11  C   UNL     1       0.529   9.861  18.871  0.00  0.00    +0.000 A 
ATOM     12  C   UNL     1      -0.334  10.548  17.997  0.00  0.00    +0.000 A 
ATOM     13  C   UNL     1      -1.369  11.362  18.493  0.00  0.00    +0.000 A 
ATOM     14  C   UNL     1      -1.560  11.505  19.870  0.00  0.00    +0.000 A 
ATOM     15  C   UNL     1      -0.707  10.810  20.700  0.00  0.00    +0.000 A 
ENDBRANCH   1  11
BRANCH   3  16
ATOM     16  C   UNL     1       2.908   6.969  18.375  0.00  0.00    +0.000 A 
ATOM     17  C   UNL     1       3.887   7.430  17.527  0.00  0.00    +0.000 A 
ATOM     18  C   UNL     1       4.631   6.294  17.166  0.00  0.00    +0.000 A 
ATOM     19  N   UNL     1       4.293   5.231  17.911  0.00  0.00    +0.000 NA
ATOM     20  N   UNL     1       3.205   5.635  18.631  0.00  0.00    +0.000 N 
BRANCH  20  21
ATOM     21  C   UNL     1       2.471   4.702  19.419  0.00  0.00    +0.000 A 
ATOM     22  C   UNL     1       2.772   4.569  20.782  0.00  0.00    +0.000 A 
ATOM     23  C   UNL     1       2.077   3.644  21.567  0.00  0.00    +0.000 A 
ATOM     24  C   UNL     1       1.109   2.824  20.991  0.00  0.00    +0.000 A 
ATOM     25  C   UNL     1       0.813   2.943  19.635  0.00  0.00    +0.000 A 
ATOM     26  C   UNL     1       1.481   3.888  18.848  0.00  0.00    +0.000 A 
ENDBRANCH  20  21
BRANCH  18  27
ATOM     27  C   UNL     1       5.690   6.227  16.104  0.00  0.00    +0.000 C 
BRANCH  27  28
ATOM     28  C   UNL     1       5.465   5.175  15.040  0.00  0.00    +0.000 C 
ATOM     29  C   UNL     1       5.996   3.783  15.290  0.00  0.00    +0.000 C 
ATOM     30  C   UNL     1       6.584   4.615  14.187  0.00  0.00    +0.000 C 
ENDBRANCH  27  28
ENDBRANCH  18  27
ENDBRANCH   3  16
TORSDOF 5
ENDMDL
MODEL 2
REMARK VINA RESULT:      -9.4      0.899      1.359
REMARK  Name = 
REMARK  6 active torsions:
REMARK  status: ('A' for Active; 'I' for Inactive)
REMARK    1  A    between atoms: C_1  and  N_2
REMARK    2  A    between atoms: C_7  and  C_8
REMARK    3  A    between atoms: N_10  and  C_11
REMARK    4  A    between atoms: C_13  and  C_14
REMARK    5  A    between atoms: C_14  and  C_15
REMARK    6  A    between atoms: N_19  and  C_20
REMARK                            x       y       z     vdW  Elec       q    Type
REMARK                         _______ _______ _______ _____ _____    ______ ____
ROOT
ATOM      1  C   UNL     1       1.614   8.918  18.249  0.00  0.00    +0.000 C 
ATOM      2  O   UNL     1       2.130   9.235  17.188  0.00  0.00    +0.000 OA
ATOM      3  N   UNL     1       1.996   7.700  18.907  0.00  0.00    +0.000 N 
ATOM      4  H   UNL     1       1.467   7.338  19.695  0.00  0.00    +0.000 HD
ENDROOT
BRANCH   1  11
ATOM      5  C   UNL     1      -1.282  11.374  23.024  0.00  0.00    +0.000 C 
ATOM      6  N   UNL     1      -0.469  10.658  22.079  0.00  0.00    +0.000 N 
ATOM      7  C   UNL     1       0.588   9.826  22.368  0.00  0.00    +0.000 A 
ATOM      8  O   UNL     1       1.008   9.536  23.484  0.00  0.00    +0.000 OA
ATOM      9  O   UNL     1       1.158   9.317  21.194  0.00  0.00    +0.000 OA
ATOM     10  C   UNL     1       0.386   9.898  20.202  0.00  0.00    +0.000 A 
ATOM     11  C   UNL     1       0.543   9.735  18.843  0.00  0.00    +0.000 A 
ATOM     12  C   UNL     1      -0.363  10.407  18.001  0.00  0.00    +0.000 A 
ATOM     13  C   UNL     1      -1.376  11.225  18.533  0.00  0.00    +0.000 A 
ATOM     14  C   UNL     1      -1.503  11.388  19.915  0.00  0.00    +0.000 A 
ATOM     15  C   UNL     1      -0.608  10.707  20.714  0.00  0.00    +0.000 A 
ENDBRANCH   1  11
BRANCH   3  16
ATOM     16  C   UNL     1       3.005   6.911  18.361  0.00  0.00    +0.000 A 
ATOM     17  C   UNL     1       4.091   7.405  17.677  0.00  0.00    +0.000 A 
ATOM     18  C   UNL     1       4.775   6.274  17.200  0.00  0.00    +0.000 A 
ATOM     19  N   UNL     1       4.288   5.145  17.737  0.00  0.00    +0.000 NA
ATOM     20  N   UNL     1       3.173   5.532  18.423  0.00  0.00    +0.000 N 
BRANCH  20  21
ATOM     21  C   UNL     1       2.299   4.561  18.991  0.00  0.00    +0.000 A 
ATOM     22  C   UNL     1       2.144   4.509  20.384  0.00  0.00    +0.000 A 
ATOM     23  C   UNL     1       1.307   3.549  20.961  0.00  0.00    +0.000 A 
ATOM     24  C   UNL     1       0.653   2.616  20.159  0.00  0.00    +0.000 A 
ATOM     25  C   UNL     1       0.812   2.654  18.776  0.00  0.00    +0.000 A 
ATOM     26  C   UNL     1       1.623   3.631  18.186  0.00  0.00    +0.000 A 
ENDBRANCH  20  21
BRANCH  18  27
ATOM     27  C   UNL     1       5.921   6.274  16.229  0.00  0.00    +0.000 C 
BRANCH  27  28
ATOM     28  C   UNL     1       7.290   6.428  16.855  0.00  0.00    +0.000 C 
ATOM     29  C   UNL     1       7.390   6.421  18.362  0.00  0.00    +0.000 C 
ATOM     30  C   UNL     1       7.717   7.673  17.602  0.00  0.00    +0.000 C 
ENDBRANCH  27  28
ENDBRANCH  18  27
ENDBRANCH   3  16
TORSDOF 5
ENDMDL
MODEL 3
REMARK VINA RESULT:      -9.3      1.763      2.564
REMARK  Name = 
REMARK  6 active torsions:
REMARK  status: ('A' for Active; 'I' for Inactive)
REMARK    1  A    between atoms: C_1  and  N_2
REMARK    2  A    between atoms: C_7  and  C_8
REMARK    3  A    between atoms: N_10  and  C_11
REMARK    4  A    between atoms: C_13  and  C_14
REMARK    5  A    between atoms: C_14  and  C_15
REMARK    6  A    between atoms: N_19  and  C_20
REMARK                            x       y       z     vdW  Elec       q    Type
REMARK                         _______ _______ _______ _____ _____    ______ ____
ROOT
ATOM      1  C   UNL     1       1.585   9.145  18.384  0.00  0.00    +0.000 C 
ATOM      2  O   UNL     1       2.065   9.485  17.313  0.00  0.00    +0.000 OA
ATOM      3  N   UNL     1       1.925   7.874  18.962  0.00  0.00    +0.000 N 
ATOM      4  H   UNL     1       1.416   7.504  19.758  0.00  0.00    +0.000 HD
ENDROOT
BRANCH   1  11
ATOM      5  C   UNL     1      -3.896  11.793  18.789  0.00  0.00    +0.000 C 
ATOM      6  N   UNL     1      -2.677  11.113  18.449  0.00  0.00    +0.000 N 
ATOM      7  C   UNL     1      -2.422  10.408  17.294  0.00  0.00    +0.000 A 
ATOM      8  O   UNL     1      -3.187  10.254  16.347  0.00  0.00    +0.000 OA
ATOM      9  O   UNL     1      -1.133   9.862  17.316  0.00  0.00    +0.000 OA
ATOM     10  C   UNL     1      -0.646  10.277  18.544  0.00  0.00    +0.000 A 
ATOM     11  C   UNL     1       0.595   9.990  19.071  0.00  0.00    +0.000 A 
ATOM     12  C   UNL     1       0.900  10.524  20.337  0.00  0.00    +0.000 A 
ATOM     13  C   UNL     1      -0.036  11.305  21.038  0.00  0.00    +0.000 A 
ATOM     14  C   UNL     1      -1.294  11.567  20.489  0.00  0.00    +0.000 A 
ATOM     15  C   UNL     1      -1.559  11.040  19.243  0.00  0.00    +0.000 A 
ENDBRANCH   1  11
BRANCH   3  16
ATOM     16  C   UNL     1       2.858   7.058  18.326  0.00  0.00    +0.000 A 
ATOM     17  C   UNL     1       3.783   7.504  17.412  0.00  0.00    +0.000 A 
ATOM     18  C   UNL     1       4.423   6.347  16.937  0.00  0.00    +0.000 A 
ATOM     19  N   UNL     1       4.090   5.270  17.664  0.00  0.00    +0.000 NA
ATOM     20  N   UNL     1       3.096   5.699  18.496  0.00  0.00    +0.000 N 
BRANCH  20  21
ATOM     21  C   UNL     1       2.381   4.772  19.308  0.00  0.00    +0.000 A 
ATOM     22  C   UNL     1       2.674   4.690  20.677  0.00  0.00    +0.000 A 
ATOM     23  C   UNL     1       1.997   3.772  21.486  0.00  0.00    +0.000 A 
ATOM     24  C   UNL     1       1.056   2.908  20.929  0.00  0.00    +0.000 A 
ATOM     25  C   UNL     1       0.769   2.976  19.567  0.00  0.00    +0.000 A 
ATOM     26  C   UNL     1       1.418   3.913  18.756  0.00  0.00    +0.000 A 
ENDBRANCH  20  21
BRANCH  18  27
ATOM     27  C   UNL     1       5.379   6.272  15.781  0.00  0.00    +0.000 C 
BRANCH  27  28
ATOM     28  C   UNL     1       5.980   4.905  15.535  0.00  0.00    +0.000 C 
ATOM     29  C   UNL     1       7.073   4.783  14.499  0.00  0.00    +0.000 C 
ATOM     30  C   UNL     1       5.746   4.122  14.260  0.00  0.00    +0.000 C 
ENDBRANCH  27  28
ENDBRANCH  18  27
ENDBRANCH   3  16
TORSDOF 5
ENDMDL
MODEL 4
REMARK VINA RESULT:      -9.1      1.510      2.471
REMARK  Name = 
REMARK  6 active torsions:
REMARK  status: ('A' for Active; 'I' for Inactive)
REMARK    1  A    between atoms: C_1  and  N_2
REMARK    2  A    between atoms: C_7  and  C_8
REMARK    3  A    between atoms: N_10  and  C_11
REMARK    4  A    between atoms: C_13  and  C_14
REMARK    5  A    between atoms: C_14  and  C_15
REMARK    6  A    between atoms: N_19  and  C_20
REMARK                            x       y       z     vdW  Elec       q    Type
REMARK                         _______ _______ _______ _____ _____    ______ ____
ROOT
ATOM      1  C   UNL     1       1.781   8.290  18.957  0.00  0.00    +0.000 C 
ATOM      2  O   UNL     1       1.565   8.460  17.767  0.00  0.00    +0.000 OA
ATOM      3  N   UNL     1       2.694   7.270  19.391  0.00  0.00    +0.000 N 
ATOM      4  H   UNL     1       2.761   7.003  20.369  0.00  0.00    +0.000 HD
ENDROOT
BRANCH   1  11
ATOM      5  C   UNL     1      -2.152  12.642  20.635  0.00  0.00    +0.000 C 
ATOM      6  N   UNL     1      -1.251  11.719  20.000  0.00  0.00    +0.000 N 
ATOM      7  C   UNL     1      -1.015  11.596  18.650  0.00  0.00    +0.000 A 
ATOM      8  O   UNL     1      -1.521  12.266  17.754  0.00  0.00    +0.000 OA
ATOM      9  O   UNL     1      -0.089  10.577  18.396  0.00  0.00    +0.000 OA
ATOM     10  C   UNL     1       0.203  10.104  19.664  0.00  0.00    +0.000 A 
ATOM     11  C   UNL     1       1.062   9.073  19.976  0.00  0.00    +0.000 A 
ATOM     12  C   UNL     1       1.229   8.757  21.337  0.00  0.00    +0.000 A 
ATOM     13  C   UNL     1       0.530   9.461  22.335  0.00  0.00    +0.000 A 
ATOM     14  C   UNL     1      -0.350  10.491  21.991  0.00  0.00    +0.000 A 
ATOM     15  C   UNL     1      -0.482  10.785  20.650  0.00  0.00    +0.000 A 
ENDBRANCH   1  11
BRANCH   3  16
ATOM     16  C   UNL     1       3.383   6.515  18.444  0.00  0.00    +0.000 A 
ATOM     17  C   UNL     1       4.270   7.038  17.533  0.00  0.00    +0.000 A 
ATOM     18  C   UNL     1       4.627   5.961  16.703  0.00  0.00    +0.000 A 
ATOM     19  N   UNL     1       4.180   4.796  17.194  0.00  0.00    +0.000 NA
ATOM     20  N   UNL     1       3.380   5.139  18.247  0.00  0.00    +0.000 N 
BRANCH  20  21
ATOM     21  C   UNL     1       2.598   4.153  18.913  0.00  0.00    +0.000 A 
ATOM     22  C   UNL     1       1.595   3.478  18.203  0.00  0.00    +0.000 A 
ATOM     23  C   UNL     1       0.802   2.522  18.845  0.00  0.00    +0.000 A 
ATOM     24  C   UNL     1       0.978   2.262  20.203  0.00  0.00    +0.000 A 
ATOM     25  C   UNL     1       1.965   2.938  20.917  0.00  0.00    +0.000 A 
ATOM     26  C   UNL     1       2.785   3.874  20.276  0.00  0.00    +0.000 A 
ENDBRANCH  20  21
BRANCH  18  27
ATOM     27  C   UNL     1       5.420   6.046  15.431  0.00  0.00    +0.000 C 
BRANCH  27  28
ATOM     28  C   UNL     1       6.208   4.802  15.084  0.00  0.00    +0.000 C 
ATOM     29  C   UNL     1       7.134   4.855  13.891  0.00  0.00    +0.000 C 
ATOM     30  C   UNL     1       5.925   3.966  13.854  0.00  0.00    +0.000 C 
ENDBRANCH  27  28
ENDBRANCH  18  27
ENDBRANCH   3  16
TORSDOF 5
ENDMDL
MODEL 5
REMARK VINA RESULT:      -8.9      1.959      2.901
REMARK  Name = 
REMARK  6 active torsions:
REMARK  status: ('A' for Active; 'I' for Inactive)
REMARK    1  A    between atoms: C_1  and  N_2
REMARK    2  A    between atoms: C_7  and  C_8
REMARK    3  A    between atoms: N_10  and  C_11
REMARK    4  A    between atoms: C_13  and  C_14
REMARK    5  A    between atoms: C_14  and  C_15
REMARK    6  A    between atoms: N_19  and  C_20
REMARK                            x       y       z     vdW  Elec       q    Type
REMARK                         _______ _______ _______ _____ _____    ______ ____
ROOT
ATOM      1  C   UNL     1       1.641   9.056  18.339  0.00  0.00    +0.000 C 
ATOM      2  O   UNL     1       2.092   9.345  17.242  0.00  0.00    +0.000 OA
ATOM      3  N   UNL     1       2.054   7.849  19.000  0.00  0.00    +0.000 N 
ATOM      4  H   UNL     1       1.571   7.510  19.827  0.00  0.00    +0.000 HD
ENDROOT
BRANCH   1  11
ATOM      5  C   UNL     1      -3.889  11.628  18.505  0.00  0.00    +0.000 C 
ATOM      6  N   UNL     1      -2.648  10.962  18.219  0.00  0.00    +0.000 N 
ATOM      7  C   UNL     1      -2.340  10.248  17.084  0.00  0.00    +0.000 A 
ATOM      8  O   UNL     1      -3.066  10.071  16.110  0.00  0.00    +0.000 OA
ATOM      9  O   UNL     1      -1.045   9.721  17.162  0.00  0.00    +0.000 OA
ATOM     10  C   UNL     1      -0.610  10.157  18.402  0.00  0.00    +0.000 A 
ATOM     11  C   UNL     1       0.613   9.894  18.978  0.00  0.00    +0.000 A 
ATOM     12  C   UNL     1       0.863  10.448  20.248  0.00  0.00    +0.000 A 
ATOM     13  C   UNL     1      -0.110  11.224  20.904  0.00  0.00    +0.000 A 
ATOM     14  C   UNL     1      -1.350  11.460  20.305  0.00  0.00    +0.000 A 
ATOM     15  C   UNL     1      -1.560  10.915  19.056  0.00  0.00    +0.000 A 
ENDBRANCH   1  11
BRANCH   3  16
ATOM     16  C   UNL     1       3.022   7.040  18.411  0.00  0.00    +0.000 A 
ATOM     17  C   UNL     1       4.100   7.513  17.702  0.00  0.00    +0.000 A 
ATOM     18  C   UNL     1       4.736   6.370  17.188  0.00  0.00    +0.000 A 
ATOM     19  N   UNL     1       4.233   5.248  17.722  0.00  0.00    +0.000 NA
ATOM     20  N   UNL     1       3.151   5.656  18.448  0.00  0.00    +0.000 N 
BRANCH  20  21
ATOM     21  C   UNL     1       2.267   4.702  19.030  0.00  0.00    +0.000 A 
ATOM     22  C   UNL     1       2.187   4.602  20.426  0.00  0.00    +0.000 A 
ATOM     23  C   UNL     1       1.341   3.657  21.015  0.00  0.00    +0.000 A 
ATOM     24  C   UNL     1       0.602   2.785  20.218  0.00  0.00    +0.000 A 
ATOM     25  C   UNL     1       0.687   2.871  18.830  0.00  0.00    +0.000 A 
ATOM     26  C   UNL     1       1.506   3.835  18.231  0.00  0.00    +0.000 A 
ENDBRANCH  20  21
BRANCH  18  27
ATOM     27  C   UNL     1       5.851   6.352  16.181  0.00  0.00    +0.000 C 
BRANCH  27  28
ATOM     28  C   UNL     1       7.244   6.425  16.768  0.00  0.00    +0.000 C 
ATOM     29  C   UNL     1       7.393   6.309  18.267  0.00  0.00    +0.000 C 
ATOM     30  C   UNL     1       7.731   7.603  17.584  0.00  0.00    +0.000 C 
ENDBRANCH  27  28
ENDBRANCH  18  27
ENDBRANCH   3  16
TORSDOF 5
ENDMDL
MODEL 6
REMARK VINA RESULT:      -8.9      1.040      1.120
REMARK  Name = 
REMARK  6 active torsions:
REMARK  status: ('A' for Active; 'I' for Inactive)
REMARK    1  A    between atoms: C_1  and  N_2
REMARK    2  A    between atoms: C_7  and  C_8
REMARK    3  A    between atoms: N_10  and  C_11
REMARK    4  A    between atoms: C_13  and  C_14
REMARK    5  A    between atoms: C_14  and  C_15
REMARK    6  A    between atoms: N_19  and  C_20
REMARK                            x       y       z     vdW  Elec       q    Type
REMARK                         _______ _______ _______ _____ _____    ______ ____
ROOT
ATOM      1  C   UNL     1       2.145   7.943  19.235  0.00  0.00    +0.000 C 
ATOM      2  O   UNL     1       2.815   7.583  20.190  0.00  0.00    +0.000 OA
ATOM      3  N   UNL     1       2.443   7.461  17.915  0.00  0.00    +0.000 N 
ATOM      4  H   UNL     1       2.010   7.872  17.093  0.00  0.00    +0.000 HD
ENDROOT
BRANCH   1  11
ATOM      5  C   UNL     1      -1.490  11.446  22.660  0.00  0.00    +0.000 C 
ATOM      6  N   UNL     1      -0.566  10.511  22.080  0.00  0.00    +0.000 N 
ATOM      7  C   UNL     1       0.290   9.674  22.757  0.00  0.00    +0.000 A 
ATOM      8  O   UNL     1       0.401   9.568  23.975  0.00  0.00    +0.000 OA
ATOM      9  O   UNL     1       1.058   8.916  21.864  0.00  0.00    +0.000 OA
ATOM     10  C   UNL     1       0.613   9.355  20.628  0.00  0.00    +0.000 A 
ATOM     11  C   UNL     1       1.065   8.930  19.398  0.00  0.00    +0.000 A 
ATOM     12  C   UNL     1       0.466   9.496  18.257  0.00  0.00    +0.000 A 
ATOM     13  C   UNL     1      -0.544  10.469  18.376  0.00  0.00    +0.000 A 
ATOM     14  C   UNL     1      -0.972  10.895  19.636  0.00  0.00    +0.000 A 
ATOM     15  C   UNL     1      -0.374  10.313  20.734  0.00  0.00    +0.000 A 
ENDBRANCH   1  11
BRANCH   3  16
ATOM     16  C   UNL     1       3.463   6.529  17.738  0.00  0.00    +0.000 A 
ATOM     17  C   UNL     1       4.660   6.798  17.117  0.00  0.00    +0.000 A 
ATOM     18  C   UNL     1       5.327   5.564  17.045  0.00  0.00    +0.000 A 
ATOM     19  N   UNL     1       4.701   4.627  17.773  0.00  0.00    +0.000 NA
ATOM     20  N   UNL     1       3.532   5.210  18.170  0.00  0.00    +0.000 N 
BRANCH  20  21
ATOM     21  C   UNL     1       2.529   4.444  18.832  0.00  0.00    +0.000 A 
ATOM     22  C   UNL     1       2.517   4.395  20.233  0.00  0.00    +0.000 A 
ATOM     23  C   UNL     1       1.554   3.632  20.900  0.00  0.00    +0.000 A 
ATOM     24  C   UNL     1       0.625   2.887  20.177  0.00  0.00    +0.000 A 
ATOM     25  C   UNL     1       0.640   2.921  18.784  0.00  0.00    +0.000 A 
ATOM     26  C   UNL     1       1.580   3.707  18.108  0.00  0.00    +0.000 A 
ENDBRANCH  20  21
BRANCH  18  27
ATOM     27  C   UNL     1       6.589   5.280  16.283  0.00  0.00    +0.000 C 
BRANCH  27  28
ATOM     28  C   UNL     1       6.430   5.232  14.778  0.00  0.00    +0.000 C 
ATOM     29  C   UNL     1       5.353   4.343  14.203  0.00  0.00    +0.000 C 
ATOM     30  C   UNL     1       6.797   4.018  13.951  0.00  0.00    +0.000 C 
ENDBRANCH  27  28
ENDBRANCH  18  27
ENDBRANCH   3  16
TORSDOF 5
ENDMDL
MODEL 7
REMARK VINA RESULT:      -8.8      1.551      2.267
REMARK  Name = 
REMARK  6 active torsions:
REMARK  status: ('A' for Active; 'I' for Inactive)
REMARK    1  A    between atoms: C_1  and  N_2
REMARK    2  A    between atoms: C_7  and  C_8
REMARK    3  A    between atoms: N_10  and  C_11
REMARK    4  A    between atoms: C_13  and  C_14
REMARK    5  A    between atoms: C_14  and  C_15
REMARK    6  A    between atoms: N_19  and  C_20
REMARK                            x       y       z     vdW  Elec       q    Type
REMARK                         _______ _______ _______ _____ _____    ______ ____
ROOT
ATOM      1  C   UNL     1       1.687   8.440  19.018  0.00  0.00    +0.000 C 
ATOM      2  O   UNL     1       1.394   8.540  17.836  0.00  0.00    +0.000 OA
ATOM      3  N   UNL     1       2.664   7.477  19.445  0.00  0.00    +0.000 N 
ATOM      4  H   UNL     1       2.798   7.264  20.429  0.00  0.00    +0.000 HD
ENDROOT
BRANCH   1  11
ATOM      5  C   UNL     1      -1.233  13.473  20.850  0.00  0.00    +0.000 C 
ATOM      6  N   UNL     1      -0.491  12.425  20.203  0.00  0.00    +0.000 N 
ATOM      7  C   UNL     1      -0.014  12.432  18.913  0.00  0.00    +0.000 A 
ATOM      8  O   UNL     1      -0.125  13.340  18.095  0.00  0.00    +0.000 OA
ATOM      9  O   UNL     1       0.644  11.231  18.618  0.00  0.00    +0.000 OA
ATOM     10  C   UNL     1       0.525  10.519  19.799  0.00  0.00    +0.000 A 
ATOM     11  C   UNL     1       0.998   9.247  20.039  0.00  0.00    +0.000 A 
ATOM     12  C   UNL     1       0.784   8.706  21.320  0.00  0.00    +0.000 A 
ATOM     13  C   UNL     1       0.097   9.436  22.308  0.00  0.00    +0.000 A 
ATOM     14  C   UNL     1      -0.388  10.717  22.034  0.00  0.00    +0.000 A 
ATOM     15  C   UNL     1      -0.151  11.224  20.774  0.00  0.00    +0.000 A 
ENDBRANCH   1  11
BRANCH   3  16
ATOM     16  C   UNL     1       3.324   6.701  18.496  0.00  0.00    +0.000 A 
ATOM     17  C   UNL     1       4.238   7.191  17.593  0.00  0.00    +0.000 A 
ATOM     18  C   UNL     1       4.553   6.106  16.758  0.00  0.00    +0.000 A 
ATOM     19  N   UNL     1       4.054   4.958  17.238  0.00  0.00    +0.000 NA
ATOM     20  N   UNL     1       3.264   5.327  18.289  0.00  0.00    +0.000 N 
BRANCH  20  21
ATOM     21  C   UNL     1       2.436   4.371  18.944  0.00  0.00    +0.000 A 
ATOM     22  C   UNL     1       2.466   4.281  20.343  0.00  0.00    +0.000 A 
ATOM     23  C   UNL     1       1.677   3.334  21.002  0.00  0.00    +0.000 A 
ATOM     24  C   UNL     1       0.885   2.450  20.272  0.00  0.00    +0.000 A 
ATOM     25  C   UNL     1       0.860   2.526  18.881  0.00  0.00    +0.000 A 
ATOM     26  C   UNL     1       1.622   3.492  18.214  0.00  0.00    +0.000 A 
ENDBRANCH  20  21
BRANCH  18  27
ATOM     27  C   UNL     1       5.356   6.166  15.491  0.00  0.00    +0.000 C 
BRANCH  27  28
ATOM     28  C   UNL     1       6.314   5.013  15.284  0.00  0.00    +0.000 C 
ATOM     29  C   UNL     1       7.104   4.964  13.997  0.00  0.00    +0.000 C 
ATOM     30  C   UNL     1       6.069   3.911  14.275  0.00  0.00    +0.000 C 
ENDBRANCH  27  28
ENDBRANCH  18  27
ENDBRANCH   3  16
TORSDOF 5
ENDMDL
MODEL 8
REMARK VINA RESULT:      -8.8      1.015      1.471
REMARK  Name = 
REMARK  6 active torsions:
REMARK  status: ('A' for Active; 'I' for Inactive)
REMARK    1  A    between atoms: C_1  and  N_2
REMARK    2  A    between atoms: C_7  and  C_8
REMARK    3  A    between atoms: N_10  and  C_11
REMARK    4  A    between atoms: C_13  and  C_14
REMARK    5  A    between atoms: C_14  and  C_15
REMARK    6  A    between atoms: N_19  and  C_20
REMARK                            x       y       z     vdW  Elec       q    Type
REMARK                         _______ _______ _______ _____ _____    ______ ____
ROOT
ATOM      1  C   UNL     1       2.166   7.997  19.167  0.00  0.00    +0.000 C 
ATOM      2  O   UNL     1       2.854   7.684  20.127  0.00  0.00    +0.000 OA
ATOM      3  N   UNL     1       2.467   7.485  17.859  0.00  0.00    +0.000 N 
ATOM      4  H   UNL     1       2.016   7.859  17.030  0.00  0.00    +0.000 HD
ENDROOT
BRANCH   1  11
ATOM      5  C   UNL     1      -1.569  11.463  22.522  0.00  0.00    +0.000 C 
ATOM      6  N   UNL     1      -0.619  10.542  21.960  0.00  0.00    +0.000 N 
ATOM      7  C   UNL     1       0.258   9.740  22.655  0.00  0.00    +0.000 A 
ATOM      8  O   UNL     1       0.369   9.660  23.874  0.00  0.00    +0.000 OA
ATOM      9  O   UNL     1       1.048   8.988  21.776  0.00  0.00    +0.000 OA
ATOM     10  C   UNL     1       0.594   9.392  20.532  0.00  0.00    +0.000 A 
ATOM     11  C   UNL     1       1.060   8.957  19.311  0.00  0.00    +0.000 A 
ATOM     12  C   UNL     1       0.448   9.486  18.158  0.00  0.00    +0.000 A 
ATOM     13  C   UNL     1      -0.588  10.434  18.259  0.00  0.00    +0.000 A 
ATOM     14  C   UNL     1      -1.029  10.871  19.510  0.00  0.00    +0.000 A 
ATOM     15  C   UNL     1      -0.419  10.325  20.619  0.00  0.00    +0.000 A 
ENDBRANCH   1  11
BRANCH   3  16
ATOM     16  C   UNL     1       3.512   6.577  17.700  0.00  0.00    +0.000 A 
ATOM     17  C   UNL     1       4.710   6.872  17.094  0.00  0.00    +0.000 A 
ATOM     18  C   UNL     1       5.408   5.654  17.038  0.00  0.00    +0.000 A 
ATOM     19  N   UNL     1       4.796   4.706  17.763  0.00  0.00    +0.000 NA
ATOM     20  N   UNL     1       3.608   5.262  18.141  0.00  0.00    +0.000 N 
BRANCH  20  21
ATOM     21  C   UNL     1       2.616   4.476  18.794  0.00  0.00    +0.000 A 
ATOM     22  C   UNL     1       1.730   3.709  18.023  0.00  0.00    +0.000 A 
ATOM     23  C   UNL     1       0.736   2.948  18.646  0.00  0.00    +0.000 A 
ATOM     24  C   UNL     1       0.596   2.975  20.032  0.00  0.00    +0.000 A 
ATOM     25  C   UNL     1       1.466   3.744  20.803  0.00  0.00    +0.000 A 
ATOM     26  C   UNL     1       2.484   4.485  20.191  0.00  0.00    +0.000 A 
ENDBRANCH  20  21
BRANCH  18  27
ATOM     27  C   UNL     1       6.686   5.397  16.293  0.00  0.00    +0.000 C 
BRANCH  27  28
ATOM     28  C   UNL     1       6.618   4.284  15.270  0.00  0.00    +0.000 C 
ATOM     29  C   UNL     1       6.989   4.605  13.841  0.00  0.00    +0.000 C 
ATOM     30  C   UNL     1       5.572   4.235  14.176  0.00  0.00    +0.000 C 
ENDBRANCH  27  28
ENDBRANCH  18  27
ENDBRANCH   3  16
TORSDOF 5
ENDMDL
MODEL 9
REMARK VINA RESULT:      -8.8      1.791      2.547
REMARK  Name = 
REMARK  6 active torsions:
REMARK  status: ('A' for Active; 'I' for Inactive)
REMARK    1  A    between atoms: C_1  and  N_2
REMARK    2  A    between atoms: C_7  and  C_8
REMARK    3  A    between atoms: N_10  and  C_11
REMARK    4  A    between atoms: C_13  and  C_14
REMARK    5  A    between atoms: C_14  and  C_15
REMARK    6  A    between atoms: N_19  and  C_20
REMARK                            x       y       z     vdW  Elec       q    Type
REMARK                         _______ _______ _______ _____ _____    ______ ____
ROOT
ATOM      1  C   UNL     1       1.890   8.224  18.729  0.00  0.00    +0.000 C 
ATOM      2  O   UNL     1       1.425   8.109  17.605  0.00  0.00    +0.000 OA
ATOM      3  N   UNL     1       3.002   7.413  19.141  0.00  0.00    +0.000 N 
ATOM      4  H   UNL     1       3.294   7.375  20.113  0.00  0.00    +0.000 HD
ENDROOT
BRANCH   1  11
ATOM      5  C   UNL     1       0.202  13.782  20.595  0.00  0.00    +0.000 C 
ATOM      6  N   UNL     1       0.726  12.601  19.966  0.00  0.00    +0.000 N 
ATOM      7  C   UNL     1       1.406  12.538  18.771  0.00  0.00    +0.000 A 
ATOM      8  O   UNL     1       1.697  13.482  18.043  0.00  0.00    +0.000 OA
ATOM      9  O   UNL     1       1.748  11.216  18.461  0.00  0.00    +0.000 OA
ATOM     10  C   UNL     1       1.231  10.506  19.530  0.00  0.00    +0.000 A 
ATOM     11  C   UNL     1       1.283   9.140  19.708  0.00  0.00    +0.000 A 
ATOM     12  C   UNL     1       0.705   8.617  20.880  0.00  0.00    +0.000 A 
ATOM     13  C   UNL     1       0.085   9.460  21.820  0.00  0.00    +0.000 A 
ATOM     14  C   UNL     1       0.029  10.839  21.607  0.00  0.00    +0.000 A 
ATOM     15  C   UNL     1       0.615  11.323  20.457  0.00  0.00    +0.000 A 
ENDBRANCH   1  11
BRANCH   3  16
ATOM     16  C   UNL     1       3.589   6.538  18.231  0.00  0.00    +0.000 A 
ATOM     17  C   UNL     1       4.538   6.903  17.306  0.00  0.00    +0.000 A 
ATOM     18  C   UNL     1       4.755   5.756  16.524  0.00  0.00    +0.000 A 
ATOM     19  N   UNL     1       4.160   4.680  17.058  0.00  0.00    +0.000 NA
ATOM     20  N   UNL     1       3.409   5.167  18.090  0.00  0.00    +0.000 N 
BRANCH  20  21
ATOM     21  C   UNL     1       2.503   4.318  18.789  0.00  0.00    +0.000 A 
ATOM     22  C   UNL     1       1.819   3.317  18.086  0.00  0.00    +0.000 A 
ATOM     23  C   UNL     1       0.910   2.488  18.751  0.00  0.00    +0.000 A 
ATOM     24  C   UNL     1       0.651   2.678  20.107  0.00  0.00    +0.000 A 
ATOM     25  C   UNL     1       1.319   3.679  20.809  0.00  0.00    +0.000 A 
ATOM     26  C   UNL     1       2.254   4.492  20.159  0.00  0.00    +0.000 A 
ENDBRANCH  20  21
BRANCH  18  27
ATOM     27  C   UNL     1       5.556   5.685  15.255  0.00  0.00    +0.000 C 
BRANCH  27  28
ATOM     28  C   UNL     1       5.730   4.294  14.685  0.00  0.00    +0.000 C 
ATOM     29  C   UNL     1       6.663   4.117  13.510  0.00  0.00    +0.000 C 
ATOM     30  C   UNL     1       5.190   3.888  13.330  0.00  0.00    +0.000 C 
ENDBRANCH  27  28
ENDBRANCH  18  27
ENDBRANCH   3  16
TORSDOF 5
ENDMDL
