MODEL 1
REMARK VINA RESULT:      -9.3      0.000      0.000
REMARK  Name = 
REMARK  4 active torsions:
REMARK  status: ('A' for Active; 'I' for Inactive)
REMARK    1  A    between atoms: C_6  and  C_7
REMARK    2  A    between atoms: C_7  and  C_8
REMARK    3  A    between atoms: C_8  and  N_9
REMARK    4  A    between atoms: C_16  and  C_17
REMARK                            x       y       z     vdW  Elec       q    Type
REMARK                         _______ _______ _______ _____ _____    ______ ____
ROOT
ATOM      1  C   UNL     1       2.930   5.454  19.517  0.00  0.00    +0.000 C 
ENDROOT
BRANCH   1   2
ATOM      2  N   UNL     1       3.242   6.653  18.741  0.00  0.00    +0.000 N 
ATOM      3  C   UNL     1       2.437   7.773  18.814  0.00  0.00    +0.000 A 
ATOM      4  C   UNL     1       2.466   8.724  17.652  0.00  0.00    +0.000 A 
ATOM      5  C   UNL     1       1.640   9.778  17.650  0.00  0.00    +0.000 A 
ATOM      6  C   UNL     1       0.805   9.985  18.762  0.00  0.00    +0.000 A 
ATOM      7  N   UNL     1      -0.087  10.908  19.042  0.00  0.00    +0.000 NA
ATOM      8  N   UNL     1      -0.582  10.640  20.300  0.00  0.00    +0.000 NA
ATOM      9  C   UNL     1       0.023   9.558  20.753  0.00  0.00    +0.000 A 
ATOM     10  N   UNL     1       0.898   9.085  19.802  0.00  0.00    +0.000 N 
ATOM     11  N   UNL     1       1.679   7.961  19.863  0.00  0.00    +0.000 NA
ATOM     12  H   UNL     1       3.709   6.493  17.861  0.00  0.00    +0.000 HD
BRANCH   9  13
ATOM     13  C   UNL     1      -0.226   8.951  22.125  0.00  0.00    +0.000 C 
ATOM     14  C   UNL     1      -0.769   9.855  23.215  0.00  0.00    +0.000 C 
ATOM     15  C   UNL     1       0.650   9.407  23.277  0.00  0.00    +0.000 C 
ENDBRANCH   9  13
ENDBRANCH   1   2
BRANCH   1  16
ATOM     16  C   UNL     1       3.360   4.112  18.839  0.00  0.00    +0.000 C 
ATOM     17  C   UNL     1       3.538   3.041  19.966  0.00  0.00    +0.000 C 
ATOM     18  C   UNL     1       2.223   2.561  20.577  0.00  0.00    +0.000 C 
ATOM     19  O   UNL     1       1.328   2.094  19.577  0.00  0.00    +0.000 OA
ATOM     20  C   UNL     1       1.007   3.095  18.623  0.00  0.00    +0.000 C 
ATOM     21  C   UNL     1       2.260   3.550  17.889  0.00  0.00    +0.000 C 
BRANCH  16  27
ATOM     22 BR   UNL     1       6.090   4.098  14.142  0.00  0.00    +0.000 Br
ATOM     23  C   UNL     1       6.014   4.328  16.020  0.00  0.00    +0.000 A 
ATOM     24  C   UNL     1       7.173   4.628  16.722  0.00  0.00    +0.000 A 
ATOM     25  C   UNL     1       7.104   4.806  18.100  0.00  0.00    +0.000 A 
ATOM     26  C   UNL     1       5.881   4.667  18.769  0.00  0.00    +0.000 A 
ATOM     27  C   UNL     1       4.700   4.325  18.083  0.00  0.00    +0.000 A 
ATOM     28  C   UNL     1       4.791   4.184  16.683  0.00  0.00    +0.000 A 
ENDBRANCH  16  27
ENDBRANCH   1  16
TORSDOF 4
ENDMDL
MODEL 2
REMARK VINA RESULT:      -8.9      1.178      1.492
REMARK  Name = 
REMARK  4 active torsions:
REMARK  status: ('A' for Active; 'I' for Inactive)
REMARK    1  A    between atoms: C_6  and  C_7
REMARK    2  A    between atoms: C_7  and  C_8
REMARK    3  A    between atoms: C_8  and  N_9
REMARK    4  A    between atoms: C_16  and  C_17
REMARK                            x       y       z     vdW  Elec       q    Type
REMARK                         _______ _______ _______ _____ _____    ______ ____
ROOT
ATOM      1  C   UNL     1       2.368   5.375  19.551  0.00  0.00    +0.000 C 
ENDROOT
BRANCH   1   2
ATOM      2  N   UNL     1       2.906   6.539  18.849  0.00  0.00    +0.000 N 
ATOM      3  C   UNL     1       2.266   7.762  18.909  0.00  0.00    +0.000 A 
ATOM      4  C   UNL     1       2.520   8.733  17.792  0.00  0.00    +0.000 A 
ATOM      5  C   UNL     1       1.855   9.895  17.774  0.00  0.00    +0.000 A 
ATOM      6  C   UNL     1       0.975  10.187  18.831  0.00  0.00    +0.000 A 
ATOM      7  N   UNL     1       0.205  11.221  19.083  0.00  0.00    +0.000 NA
ATOM      8  N   UNL     1      -0.419  10.991  20.290  0.00  0.00    +0.000 NA
ATOM      9  C   UNL     1      -0.011   9.818  20.741  0.00  0.00    +0.000 A 
ATOM     10  N   UNL     1       0.859   9.252  19.837  0.00  0.00    +0.000 N 
ATOM     11  N   UNL     1       1.464   8.026  19.908  0.00  0.00    +0.000 NA
ATOM     12  H   UNL     1       3.412   6.339  17.998  0.00  0.00    +0.000 HD
BRANCH   9  13
ATOM     13  C   UNL     1      -0.449   9.213  22.065  0.00  0.00    +0.000 C 
ATOM     14  C   UNL     1      -0.834  10.159  23.187  0.00  0.00    +0.000 C 
ATOM     15  C   UNL     1       0.450   9.409  23.272  0.00  0.00    +0.000 C 
ENDBRANCH   9  13
ENDBRANCH   1   2
BRANCH   1  16
ATOM     16  C   UNL     1       2.936   4.002  19.062  0.00  0.00    +0.000 C 
ATOM     17  C   UNL     1       3.154   3.099  20.321  0.00  0.00    +0.000 C 
ATOM     18  C   UNL     1       1.858   2.585  20.945  0.00  0.00    +0.000 C 
ATOM     19  O   UNL     1       1.049   1.921  19.985  0.00  0.00    +0.000 OA
ATOM     20  C   UNL     1       0.687   2.765  18.901  0.00  0.00    +0.000 C 
ATOM     21  C   UNL     1       1.928   3.233  18.156  0.00  0.00    +0.000 C 
BRANCH  16  27
ATOM     22 BR   UNL     1       8.054   5.818  19.231  0.00  0.00    +0.000 Br
ATOM     23  C   UNL     1       6.594   5.043  18.305  0.00  0.00    +0.000 A 
ATOM     24  C   UNL     1       6.718   4.743  16.956  0.00  0.00    +0.000 A 
ATOM     25  C   UNL     1       5.643   4.165  16.289  0.00  0.00    +0.000 A 
ATOM     26  C   UNL     1       4.448   3.905  16.970  0.00  0.00    +0.000 A 
ATOM     27  C   UNL     1       4.285   4.237  18.329  0.00  0.00    +0.000 A 
ATOM     28  C   UNL     1       5.401   4.790  18.989  0.00  0.00    +0.000 A 
ENDBRANCH  16  27
ENDBRANCH   1  16
TORSDOF 4
ENDMDL
MODEL 3
REMARK VINA RESULT:      -8.1      1.563      2.659
REMARK  Name = 
REMARK  4 active torsions:
REMARK  status: ('A' for Active; 'I' for Inactive)
REMARK    1  A    between atoms: C_6  and  C_7
REMARK    2  A    between atoms: C_7  and  C_8
REMARK    3  A    between atoms: C_8  and  N_9
REMARK    4  A    between atoms: C_16  and  C_17
REMARK                            x       y       z     vdW  Elec       q    Type
REMARK                         _______ _______ _______ _____ _____    ______ ____
ROOT
ATOM      1  C   UNL     1       2.586   6.564  18.944  0.00  0.00    +0.000 C 
ENDROOT
BRANCH   1   2
ATOM      2  N   UNL     1       2.202   6.920  20.308  0.00  0.00    +0.000 N 
ATOM      3  C   UNL     1       1.468   8.063  20.563  0.00  0.00    +0.000 A 
ATOM      4  C   UNL     1       1.568   8.658  21.939  0.00  0.00    +0.000 A 
ATOM      5  C   UNL     1       0.935   9.810  22.198  0.00  0.00    +0.000 A 
ATOM      6  C   UNL     1       0.159  10.399  21.184  0.00  0.00    +0.000 A 
ATOM      7  N   UNL     1      -0.560  11.498  21.143  0.00  0.00    +0.000 NA
ATOM      8  N   UNL     1      -1.145  11.566  19.897  0.00  0.00    +0.000 NA
ATOM      9  C   UNL     1      -0.765  10.503  19.211  0.00  0.00    +0.000 A 
ATOM     10  N   UNL     1       0.088   9.739  19.976  0.00  0.00    +0.000 N 
ATOM     11  N   UNL     1       0.737   8.589  19.615  0.00  0.00    +0.000 NA
ATOM     12  H   UNL     1       2.843   6.629  21.032  0.00  0.00    +0.000 HD
BRANCH   9  13
ATOM     13  C   UNL     1      -1.220  10.194  17.794  0.00  0.00    +0.000 C 
ATOM     14  C   UNL     1      -2.216  11.136  17.145  0.00  0.00    +0.000 C 
ATOM     15  C   UNL     1      -2.666   9.786  17.582  0.00  0.00    +0.000 C 
ENDBRANCH   9  13
ENDBRANCH   1   2
BRANCH   1  16
ATOM     16  C   UNL     1       3.177   5.123  18.792  0.00  0.00    +0.000 C 
ATOM     17  C   UNL     1       3.055   4.408  20.178  0.00  0.00    +0.000 C 
ATOM     18  C   UNL     1       1.626   4.016  20.550  0.00  0.00    +0.000 C 
ATOM     19  O   UNL     1       1.021   3.237  19.528  0.00  0.00    +0.000 OA
ATOM     20  C   UNL     1       0.959   3.922  18.286  0.00  0.00    +0.000 C 
ATOM     21  C   UNL     1       2.359   4.252  17.791  0.00  0.00    +0.000 C 
BRANCH  16  27
ATOM     22 BR   UNL     1       6.906   4.804  14.855  0.00  0.00    +0.000 Br
ATOM     23  C   UNL     1       6.417   5.083  16.663  0.00  0.00    +0.000 A 
ATOM     24  C   UNL     1       7.402   5.314  17.613  0.00  0.00    +0.000 A 
ATOM     25  C   UNL     1       7.031   5.527  18.936  0.00  0.00    +0.000 A 
ATOM     26  C   UNL     1       5.680   5.493  19.304  0.00  0.00    +0.000 A 
ATOM     27  C   UNL     1       4.667   5.221  18.366  0.00  0.00    +0.000 A 
ATOM     28  C   UNL     1       5.067   5.042  17.026  0.00  0.00    +0.000 A 
ENDBRANCH  16  27
ENDBRANCH   1  16
TORSDOF 4
ENDMDL
MODEL 4
REMARK VINA RESULT:      -8.0      1.447      1.718
REMARK  Name = 
REMARK  4 active torsions:
REMARK  status: ('A' for Active; 'I' for Inactive)
REMARK    1  A    between atoms: C_6  and  C_7
REMARK    2  A    between atoms: C_7  and  C_8
REMARK    3  A    between atoms: C_8  and  N_9
REMARK    4  A    between atoms: C_16  and  C_17
REMARK                            x       y       z     vdW  Elec       q    Type
REMARK                         _______ _______ _______ _____ _____    ______ ____
ROOT
ATOM      1  C   UNL     1       1.908   6.099  18.361  0.00  0.00    +0.000 C 
ENDROOT
BRANCH   1   2
ATOM      2  N   UNL     1       2.605   7.331  17.998  0.00  0.00    +0.000 N 
ATOM      3  C   UNL     1       2.137   8.561  18.421  0.00  0.00    +0.000 A 
ATOM      4  C   UNL     1       2.528   9.766  17.615  0.00  0.00    +0.000 A 
ATOM      5  C   UNL     1       2.028  10.963  17.947  0.00  0.00    +0.000 A 
ATOM      6  C   UNL     1       1.188  11.058  19.071  0.00  0.00    +0.000 A 
ATOM      7  N   UNL     1       0.564  12.070  19.629  0.00  0.00    +0.000 NA
ATOM      8  N   UNL     1      -0.093  11.592  20.741  0.00  0.00    +0.000 NA
ATOM      9  C   UNL     1       0.148  10.297  20.830  0.00  0.00    +0.000 A 
ATOM     10  N   UNL     1       0.939   9.900  19.776  0.00  0.00    +0.000 N 
ATOM     11  N   UNL     1       1.371   8.635  19.479  0.00  0.00    +0.000 NA
ATOM     12  H   UNL     1       3.085   7.317  17.110  0.00  0.00    +0.000 HD
BRANCH   9  13
ATOM     13  C   UNL     1      -0.377   9.404  21.944  0.00  0.00    +0.000 C 
ATOM     14  C   UNL     1      -0.898  10.070  23.203  0.00  0.00    +0.000 C 
ATOM     15  C   UNL     1       0.404   9.349  23.243  0.00  0.00    +0.000 C 
ENDBRANCH   9  13
ENDBRANCH   1   2
BRANCH   1  16
ATOM     16  C   UNL     1       2.847   4.872  18.607  0.00  0.00    +0.000 C 
ATOM     17  C   UNL     1       3.255   4.877  20.118  0.00  0.00    +0.000 C 
ATOM     18  C   UNL     1       2.125   4.478  21.065  0.00  0.00    +0.000 C 
ATOM     19  O   UNL     1       1.564   3.224  20.701  0.00  0.00    +0.000 OA
ATOM     20  C   UNL     1       1.027   3.229  19.387  0.00  0.00    +0.000 C 
ATOM     21  C   UNL     1       2.121   3.514  18.368  0.00  0.00    +0.000 C 
BRANCH  16  27
ATOM     22 BR   UNL     1       7.595   7.312  17.602  0.00  0.00    +0.000 Br
ATOM     23  C   UNL     1       6.248   6.054  17.168  0.00  0.00    +0.000 A 
ATOM     24  C   UNL     1       6.366   5.293  16.014  0.00  0.00    +0.000 A 
ATOM     25  C   UNL     1       5.376   4.364  15.711  0.00  0.00    +0.000 A 
ATOM     26  C   UNL     1       4.268   4.213  16.554  0.00  0.00    +0.000 A 
ATOM     27  C   UNL     1       4.108   5.001  17.709  0.00  0.00    +0.000 A 
ATOM     28  C   UNL     1       5.142   5.911  18.012  0.00  0.00    +0.000 A 
ENDBRANCH  16  27
ENDBRANCH   1  16
TORSDOF 4
ENDMDL
MODEL 5
REMARK VINA RESULT:      -7.9      3.791      6.610
REMARK  Name = 
REMARK  4 active torsions:
REMARK  status: ('A' for Active; 'I' for Inactive)
REMARK    1  A    between atoms: C_6  and  C_7
REMARK    2  A    between atoms: C_7  and  C_8
REMARK    3  A    between atoms: C_8  and  N_9
REMARK    4  A    between atoms: C_16  and  C_17
REMARK                            x       y       z     vdW  Elec       q    Type
REMARK                         _______ _______ _______ _____ _____    ______ ____
ROOT
ATOM      1  C   UNL     1       3.548   4.439  19.907  0.00  0.00    +0.000 C 
ENDROOT
BRANCH   1   2
ATOM      2  N   UNL     1       4.212   3.531  18.976  0.00  0.00    +0.000 N 
ATOM      3  C   UNL     1       5.053   4.014  17.992  0.00  0.00    +0.000 A 
ATOM      4  C   UNL     1       5.262   3.157  16.776  0.00  0.00    +0.000 A 
ATOM      5  C   UNL     1       6.006   3.629  15.767  0.00  0.00    +0.000 A 
ATOM      6  C   UNL     1       6.605   4.893  15.900  0.00  0.00    +0.000 A 
ATOM      7  N   UNL     1       7.371   5.600  15.101  0.00  0.00    +0.000 NA
ATOM      8  N   UNL     1       7.705   6.761  15.764  0.00  0.00    +0.000 NA
ATOM      9  C   UNL     1       7.131   6.730  16.953  0.00  0.00    +0.000 A 
ATOM     10  N   UNL     1       6.397   5.572  17.082  0.00  0.00    +0.000 N 
ATOM     11  N   UNL     1       5.617   5.185  18.139  0.00  0.00    +0.000 NA
ATOM     12  H   UNL     1       3.707   2.684  18.757  0.00  0.00    +0.000 HD
BRANCH   9  13
ATOM     13  C   UNL     1       7.281   7.819  18.003  0.00  0.00    +0.000 C 
ATOM     14  C   UNL     1       8.252   8.949  17.722  0.00  0.00    +0.000 C 
ATOM     15  C   UNL     1       8.602   7.922  18.741  0.00  0.00    +0.000 C 
ENDBRANCH   9  13
ENDBRANCH   1   2
BRANCH   1  16
ATOM     16  C   UNL     1       2.096   4.849  19.491  0.00  0.00    +0.000 C 
ATOM     17  C   UNL     1       1.760   4.118  18.148  0.00  0.00    +0.000 C 
ATOM     18  C   UNL     1       1.525   2.617  18.301  0.00  0.00    +0.000 C 
ATOM     19  O   UNL     1       0.533   2.347  19.281  0.00  0.00    +0.000 OA
ATOM     20  C   UNL     1       0.882   2.850  20.563  0.00  0.00    +0.000 C 
ATOM     21  C   UNL     1       1.028   4.364  20.516  0.00  0.00    +0.000 C 
BRANCH  16  27
ATOM     22 BR   UNL     1       0.826   9.729  21.509  0.00  0.00    +0.000 Br
ATOM     23  C   UNL     1       1.475   8.624  20.114  0.00  0.00    +0.000 A 
ATOM     24  C   UNL     1       1.834   9.192  18.900  0.00  0.00    +0.000 A 
ATOM     25  C   UNL     1       2.319   8.372  17.887  0.00  0.00    +0.000 A 
ATOM     26  C   UNL     1       2.427   6.991  18.087  0.00  0.00    +0.000 A 
ATOM     27  C   UNL     1       2.032   6.388  19.296  0.00  0.00    +0.000 A 
ATOM     28  C   UNL     1       1.576   7.245  20.319  0.00  0.00    +0.000 A 
ENDBRANCH  16  27
ENDBRANCH   1  16
TORSDOF 4
ENDMDL
MODEL 6
REMARK VINA RESULT:      -7.9      4.225      8.134
REMARK  Name = 
REMARK  4 active torsions:
REMARK  status: ('A' for Active; 'I' for Inactive)
REMARK    1  A    between atoms: C_6  and  C_7
REMARK    2  A    between atoms: C_7  and  C_8
REMARK    3  A    between atoms: C_8  and  N_9
REMARK    4  A    between atoms: C_16  and  C_17
REMARK                            x       y       z     vdW  Elec       q    Type
REMARK                         _______ _______ _______ _____ _____    ______ ____
ROOT
ATOM      1  C   UNL     1       0.459   9.558  19.503  0.00  0.00    +0.000 C 
ENDROOT
BRANCH   1   2
ATOM      2  N   UNL     1       1.261   9.214  18.331  0.00  0.00    +0.000 N 
ATOM      3  C   UNL     1       2.139   8.148  18.361  0.00  0.00    +0.000 A 
ATOM      4  C   UNL     1       3.286   8.167  17.390  0.00  0.00    +0.000 A 
ATOM      5  C   UNL     1       4.202   7.192  17.445  0.00  0.00    +0.000 A 
ATOM      6  C   UNL     1       4.034   6.156  18.381  0.00  0.00    +0.000 A 
ATOM      7  N   UNL     1       4.748   5.089  18.660  0.00  0.00    +0.000 NA
ATOM      8  N   UNL     1       4.086   4.395  19.650  0.00  0.00    +0.000 NA
ATOM      9  C   UNL     1       2.985   5.059  19.947  0.00  0.00    +0.000 A 
ATOM     10  N   UNL     1       2.915   6.204  19.185  0.00  0.00    +0.000 N 
ATOM     11  N   UNL     1       1.960   7.183  19.225  0.00  0.00    +0.000 NA
ATOM     12  H   UNL     1       1.516   9.988  17.734  0.00  0.00    +0.000 HD
BRANCH   9  13
ATOM     13  C   UNL     1       1.963   4.603  20.976  0.00  0.00    +0.000 C 
ATOM     14  C   UNL     1       2.104   3.206  21.548  0.00  0.00    +0.000 C 
ATOM     15  C   UNL     1       1.004   3.494  20.586  0.00  0.00    +0.000 C 
ENDBRANCH   9  13
ENDBRANCH   1   2
BRANCH   1  16
ATOM     16  C   UNL     1      -0.299  10.922  19.392  0.00  0.00    +0.000 C 
ATOM     17  C   UNL     1      -0.821  11.297  20.820  0.00  0.00    +0.000 C 
ATOM     18  C   UNL     1       0.278  11.739  21.784  0.00  0.00    +0.000 C 
ATOM     19  O   UNL     1       1.050  12.799  21.238  0.00  0.00    +0.000 OA
ATOM     20  C   UNL     1       1.682  12.440  20.018  0.00  0.00    +0.000 C 
ATOM     21  C   UNL     1       0.642  12.089  18.965  0.00  0.00    +0.000 C 
BRANCH  16  27
ATOM     22 BR   UNL     1      -5.437  12.126  18.106  0.00  0.00    +0.000 Br
ATOM     23  C   UNL     1      -3.799  11.243  17.755  0.00  0.00    +0.000 A 
ATOM     24  C   UNL     1      -3.689  10.414  16.648  0.00  0.00    +0.000 A 
ATOM     25  C   UNL     1      -2.478   9.779  16.394  0.00  0.00    +0.000 A 
ATOM     26  C   UNL     1      -1.390   9.965  17.257  0.00  0.00    +0.000 A 
ATOM     27  C   UNL     1      -1.490  10.770  18.407  0.00  0.00    +0.000 A 
ATOM     28  C   UNL     1      -2.717  11.428  18.622  0.00  0.00    +0.000 A 
ENDBRANCH  16  27
ENDBRANCH   1  16
TORSDOF 4
ENDMDL
MODEL 7
REMARK VINA RESULT:      -7.9      1.898      2.935
REMARK  Name = 
REMARK  4 active torsions:
REMARK  status: ('A' for Active; 'I' for Inactive)
REMARK    1  A    between atoms: C_6  and  C_7
REMARK    2  A    between atoms: C_7  and  C_8
REMARK    3  A    between atoms: C_8  and  N_9
REMARK    4  A    between atoms: C_16  and  C_17
REMARK                            x       y       z     vdW  Elec       q    Type
REMARK                         _______ _______ _______ _____ _____    ______ ____
ROOT
ATOM      1  C   UNL     1       2.519   6.511  18.696  0.00  0.00    +0.000 C 
ENDROOT
BRANCH   1   2
ATOM      2  N   UNL     1       2.192   6.830  20.084  0.00  0.00    +0.000 N 
ATOM      3  C   UNL     1       1.496   7.980  20.402  0.00  0.00    +0.000 A 
ATOM      4  C   UNL     1       1.657   8.527  21.791  0.00  0.00    +0.000 A 
ATOM      5  C   UNL     1       1.063   9.684  22.110  0.00  0.00    +0.000 A 
ATOM      6  C   UNL     1       0.268  10.325  21.144  0.00  0.00    +0.000 A 
ATOM      7  N   UNL     1      -0.424  11.442  21.164  0.00  0.00    +0.000 NA
ATOM      8  N   UNL     1      -1.050  11.565  19.943  0.00  0.00    +0.000 NA
ATOM      9  C   UNL     1      -0.720  10.518  19.209  0.00  0.00    +0.000 A 
ATOM     10  N   UNL     1       0.139   9.709  19.918  0.00  0.00    +0.000 N 
ATOM     11  N   UNL     1       0.746   8.556  19.497  0.00  0.00    +0.000 NA
ATOM     12  H   UNL     1       2.850   6.499  20.775  0.00  0.00    +0.000 HD
BRANCH   9  13
ATOM     13  C   UNL     1      -1.232  10.267  17.799  0.00  0.00    +0.000 C 
ATOM     14  C   UNL     1      -2.274  11.217  17.242  0.00  0.00    +0.000 C 
ATOM     15  C   UNL     1      -2.677   9.837  17.631  0.00  0.00    +0.000 C 
ENDBRANCH   9  13
ENDBRANCH   1   2
BRANCH   1  16
ATOM     16  C   UNL     1       3.174   5.105  18.491  0.00  0.00    +0.000 C 
ATOM     17  C   UNL     1       3.466   4.502  19.906  0.00  0.00    +0.000 C 
ATOM     18  C   UNL     1       2.215   4.050  20.656  0.00  0.00    +0.000 C 
ATOM     19  O   UNL     1       1.442   3.148  19.877  0.00  0.00    +0.000 OA
ATOM     20  C   UNL     1       1.012   3.720  18.650  0.00  0.00    +0.000 C 
ATOM     21  C   UNL     1       2.210   4.099  17.792  0.00  0.00    +0.000 C 
BRANCH  16  27
ATOM     22 BR   UNL     1       7.733   7.915  17.581  0.00  0.00    +0.000 Br
ATOM     23  C   UNL     1       6.564   6.475  17.201  0.00  0.00    +0.000 A 
ATOM     24  C   UNL     1       6.866   5.601  16.165  0.00  0.00    +0.000 A 
ATOM     25  C   UNL     1       6.005   4.540  15.901  0.00  0.00    +0.000 A 
ATOM     26  C   UNL     1       4.842   4.369  16.662  0.00  0.00    +0.000 A 
ATOM     27  C   UNL     1       4.496   5.265  17.692  0.00  0.00    +0.000 A 
ATOM     28  C   UNL     1       5.402   6.311  17.961  0.00  0.00    +0.000 A 
ENDBRANCH  16  27
ENDBRANCH   1  16
TORSDOF 4
ENDMDL
MODEL 8
REMARK VINA RESULT:      -7.6      2.174      3.221
REMARK  Name = 
REMARK  4 active torsions:
REMARK  status: ('A' for Active; 'I' for Inactive)
REMARK    1  A    between atoms: C_6  and  C_7
REMARK    2  A    between atoms: C_7  and  C_8
REMARK    3  A    between atoms: C_8  and  N_9
REMARK    4  A    between atoms: C_16  and  C_17
REMARK                            x       y       z     vdW  Elec       q    Type
REMARK                         _______ _______ _______ _____ _____    ______ ____
ROOT
ATOM      1  C   UNL     1       2.451   6.853  18.910  0.00  0.00    +0.000 C 
ENDROOT
BRANCH   1   2
ATOM      2  N   UNL     1       2.060   7.157  20.285  0.00  0.00    +0.000 N 
ATOM      3  C   UNL     1       1.296   8.271  20.575  0.00  0.00    +0.000 A 
ATOM      4  C   UNL     1       1.382   8.827  21.968  0.00  0.00    +0.000 A 
ATOM      5  C   UNL     1       0.719   9.952  22.263  0.00  0.00    +0.000 A 
ATOM      6  C   UNL     1      -0.074  10.551  21.268  0.00  0.00    +0.000 A 
ATOM      7  N   UNL     1      -0.822  11.631  21.261  0.00  0.00    +0.000 NA
ATOM      8  N   UNL     1      -1.410  11.721  20.018  0.00  0.00    +0.000 NA
ATOM      9  C   UNL     1      -1.003  10.691  19.300  0.00  0.00    +0.000 A 
ATOM     10  N   UNL     1      -0.129   9.927  20.040  0.00  0.00    +0.000 N 
ATOM     11  N   UNL     1       0.550   8.806  19.644  0.00  0.00    +0.000 NA
ATOM     12  H   UNL     1       2.710   6.861  20.999  0.00  0.00    +0.000 HD
BRANCH   9  13
ATOM     13  C   UNL     1      -1.452  10.413  17.874  0.00  0.00    +0.000 C 
ATOM     14  C   UNL     1      -2.602  11.230  17.318  0.00  0.00    +0.000 C 
ATOM     15  C   UNL     1      -2.824   9.799  17.665  0.00  0.00    +0.000 C 
ENDBRANCH   9  13
ENDBRANCH   1   2
BRANCH   1  16
ATOM     16  C   UNL     1       3.260   5.524  18.745  0.00  0.00    +0.000 C 
ATOM     17  C   UNL     1       3.161   4.733  20.092  0.00  0.00    +0.000 C 
ATOM     18  C   UNL     1       1.787   4.117  20.347  0.00  0.00    +0.000 C 
ATOM     19  O   UNL     1       1.371   3.307  19.257  0.00  0.00    +0.000 OA
ATOM     20  C   UNL     1       1.285   4.033  18.040  0.00  0.00    +0.000 C 
ATOM     21  C   UNL     1       2.648   4.590  17.657  0.00  0.00    +0.000 C 
BRANCH  16  27
ATOM     22 BR   UNL     1       8.487   5.282  20.205  0.00  0.00    +0.000 Br
ATOM     23  C   UNL     1       7.117   5.815  19.011  0.00  0.00    +0.000 A 
ATOM     24  C   UNL     1       7.440   6.559  17.885  0.00  0.00    +0.000 A 
ATOM     25  C   UNL     1       6.428   6.937  17.009  0.00  0.00    +0.000 A 
ATOM     26  C   UNL     1       5.099   6.582  17.272  0.00  0.00    +0.000 A 
ATOM     27  C   UNL     1       4.743   5.861  18.428  0.00  0.00    +0.000 A 
ATOM     28  C   UNL     1       5.792   5.462  19.281  0.00  0.00    +0.000 A 
ENDBRANCH  16  27
ENDBRANCH   1  16
TORSDOF 4
ENDMDL
MODEL 9
REMARK VINA RESULT:      -7.6      4.213      8.480
REMARK  Name = 
REMARK  4 active torsions:
REMARK  status: ('A' for Active; 'I' for Inactive)
REMARK    1  A    between atoms: C_6  and  C_7
REMARK    2  A    between atoms: C_7  and  C_8
REMARK    3  A    between atoms: C_8  and  N_9
REMARK    4  A    between atoms: C_16  and  C_17
REMARK                            x       y       z     vdW  Elec       q    Type
REMARK                         _______ _______ _______ _____ _____    ______ ____
ROOT
ATOM      1  C   UNL     1       0.973   9.748  18.886  0.00  0.00    +0.000 C 
ENDROOT
BRANCH   1   2
ATOM      2  N   UNL     1       1.145   8.850  20.026  0.00  0.00    +0.000 N 
ATOM      3  C   UNL     1       1.764   7.625  19.877  0.00  0.00    +0.000 A 
ATOM      4  C   UNL     1       1.442   6.558  20.884  0.00  0.00    +0.000 A 
ATOM      5  C   UNL     1       1.960   5.333  20.724  0.00  0.00    +0.000 A 
ATOM      6  C   UNL     1       2.827   5.100  19.642  0.00  0.00    +0.000 A 
ATOM      7  N   UNL     1       3.474   4.030  19.238  0.00  0.00    +0.000 NA
ATOM      8  N   UNL     1       4.216   4.386  18.133  0.00  0.00    +0.000 NA
ATOM      9  C   UNL     1       4.000   5.666  17.893  0.00  0.00    +0.000 A 
ATOM     10  N   UNL     1       3.102   6.164  18.810  0.00  0.00    +0.000 N 
ATOM     11  N   UNL     1       2.582   7.429  18.875  0.00  0.00    +0.000 NA
ATOM     12  H   UNL     1       0.432   8.908  20.739  0.00  0.00    +0.000 HD
BRANCH   9  13
ATOM     13  C   UNL     1       4.662   6.448  16.769  0.00  0.00    +0.000 C 
ATOM     14  C   UNL     1       5.843   5.813  16.061  0.00  0.00    +0.000 C 
ATOM     15  C   UNL     1       6.075   6.955  16.988  0.00  0.00    +0.000 C 
ENDBRANCH   9  13
ENDBRANCH   1   2
BRANCH   1  16
ATOM     16  C   UNL     1       0.022  10.961  19.154  0.00  0.00    +0.000 C 
ATOM     17  C   UNL     1      -0.288  10.997  20.687  0.00  0.00    +0.000 C 
ATOM     18  C   UNL     1       0.889  11.452  21.547  0.00  0.00    +0.000 C 
ATOM     19  O   UNL     1       1.396  12.704  21.109  0.00  0.00    +0.000 OA
ATOM     20  C   UNL     1       1.849  12.668  19.764  0.00  0.00    +0.000 C 
ATOM     21  C   UNL     1       0.700  12.326  18.826  0.00  0.00    +0.000 C 
BRANCH  16  27
ATOM     22 BR   UNL     1      -5.239  12.149  18.509  0.00  0.00    +0.000 Br
ATOM     23  C   UNL     1      -3.664  11.239  17.984  0.00  0.00    +0.000 A 
ATOM     24  C   UNL     1      -3.704  10.361  16.910  0.00  0.00    +0.000 A 
ATOM     25  C   UNL     1      -2.539   9.706  16.526  0.00  0.00    +0.000 A 
ATOM     26  C   UNL     1      -1.345   9.920  17.227  0.00  0.00    +0.000 A 
ATOM     27  C   UNL     1      -1.289  10.776  18.343  0.00  0.00    +0.000 A 
ATOM     28  C   UNL     1      -2.476  11.453  18.690  0.00  0.00    +0.000 A 
ENDBRANCH  16  27
ENDBRANCH   1  16
TORSDOF 4
ENDMDL
