MODEL 1
REMARK VINA RESULT:      -8.5      0.000      0.000
REMARK  Name = 
REMARK  7 active torsions:
REMARK  status: ('A' for Active; 'I' for Inactive)
REMARK    1  A    between atoms: C_2  and  C_3
REMARK    2  A    between atoms: C_3  and  O_4
REMARK    3  A    between atoms: O_4  and  C_5
REMARK    4  A    between atoms: C_10  and  C_11
REMARK    5  A    between atoms: N_13  and  C_14
REMARK    6  A    between atoms: C_14  and  C_15
REMARK    7  A    between atoms: N_21  and  C_22
REMARK                            x       y       z     vdW  Elec       q    Type
REMARK                         _______ _______ _______ _____ _____    ______ ____
ROOT
ATOM      1  C   UNL     1       1.590   3.922  19.089  0.00  0.00    +0.000 A 
ATOM      2  C   UNL     1       1.442   2.625  19.611  0.00  0.00    +0.000 A 
ATOM      3  C   UNL     1       1.654   2.371  20.965  0.00  0.00    +0.000 A 
ATOM      4  C   UNL     1       2.003   3.409  21.819  0.00  0.00    +0.000 A 
ATOM      5  C   UNL     1       2.086   4.712  21.325  0.00  0.00    +0.000 A 
ATOM      6  C   UNL     1       1.854   4.992  19.965  0.00  0.00    +0.000 A 
ENDROOT
BRANCH   6   7
ATOM      7  C   UNL     1       1.917   6.437  19.562  0.00  0.00    +0.000 C 
ATOM      8  O   UNL     1       2.364   6.744  18.461  0.00  0.00    +0.000 OA
ATOM      9  N   UNL     1       1.488   7.375  20.473  0.00  0.00    +0.000 N 
ATOM     10  H   UNL     1       1.211   7.066  21.396  0.00  0.00    +0.000 HD
BRANCH   9  11
ATOM     11  C   UNL     1       1.567   8.795  20.221  0.00  0.00    +0.000 C 
BRANCH  11  12
ATOM     12  C   UNL     1       0.719   9.570  21.196  0.00  0.00    +0.000 A 
ATOM     13  C   UNL     1       0.419  10.919  20.955  0.00  0.00    +0.000 A 
ATOM     14  C   UNL     1      -0.403  11.630  21.831  0.00  0.00    +0.000 A 
ATOM     15  C   UNL     1      -0.921  11.005  22.965  0.00  0.00    +0.000 A 
ATOM     16  C   UNL     1      -0.602   9.675  23.231  0.00  0.00    +0.000 A 
ATOM     17  C   UNL     1       0.218   8.961  22.355  0.00  0.00    +0.000 A 
ENDBRANCH  11  12
ENDBRANCH   9  11
ENDBRANCH   6   7
BRANCH   1  18
ATOM     18  O   UNL     1       1.488   4.182  17.743  0.00  0.00    +0.000 OA
BRANCH  18  19
ATOM     19  C   UNL     1       2.456   3.525  16.927  0.00  0.00    +0.000 C 
BRANCH  19  21
ATOM     20  O   UNL     1       4.529   2.870  17.918  0.00  0.00    +0.000 OA
ATOM     21  C   UNL     1       3.878   3.784  17.416  0.00  0.00    +0.000 C 
ATOM     22  N   UNL     1       4.271   5.105  17.324  0.00  0.00    +0.000 N 
ATOM     23  H   UNL     1       3.570   5.784  17.043  0.00  0.00    +0.000 HD
BRANCH  22  24
ATOM     24  C   UNL     1       5.526   5.633  17.710  0.00  0.00    +0.000 A 
ATOM     25  C   UNL     1       6.235   5.203  18.834  0.00  0.00    +0.000 A 
ATOM     26  C   UNL     1       7.452   5.801  19.156  0.00  0.00    +0.000 A 
ATOM     27  F   UNL     1       8.121   5.380  20.237  0.00  0.00    +0.000 F 
ATOM     28  C   UNL     1       7.986   6.823  18.378  0.00  0.00    +0.000 A 
ATOM     29  C   UNL     1       7.298   7.245  17.243  0.00  0.00    +0.000 A 
ATOM     30  C   UNL     1       6.085   6.643  16.914  0.00  0.00    +0.000 A 
ATOM     31  F   UNL     1       5.430   7.061  15.819  0.00  0.00    +0.000 F 
ENDBRANCH  22  24
ENDBRANCH  19  21
ENDBRANCH  18  19
ENDBRANCH   1  18
TORSDOF 7
ENDMDL
MODEL 2
REMARK VINA RESULT:      -8.5      3.270      8.032
REMARK  Name = 
REMARK  7 active torsions:
REMARK  status: ('A' for Active; 'I' for Inactive)
REMARK    1  A    between atoms: C_2  and  C_3
REMARK    2  A    between atoms: C_3  and  O_4
REMARK    3  A    between atoms: O_4  and  C_5
REMARK    4  A    between atoms: C_10  and  C_11
REMARK    5  A    between atoms: N_13  and  C_14
REMARK    6  A    between atoms: C_14  and  C_15
REMARK    7  A    between atoms: N_21  and  C_22
REMARK                            x       y       z     vdW  Elec       q    Type
REMARK                         _______ _______ _______ _____ _____    ______ ____
ROOT
ATOM      1  C   UNL     1       2.480   4.458  18.344  0.00  0.00    +0.000 A 
ATOM      2  C   UNL     1       1.248   3.939  18.776  0.00  0.00    +0.000 A 
ATOM      3  C   UNL     1       1.073   2.567  18.955  0.00  0.00    +0.000 A 
ATOM      4  C   UNL     1       2.129   1.697  18.718  0.00  0.00    +0.000 A 
ATOM      5  C   UNL     1       3.377   2.207  18.355  0.00  0.00    +0.000 A 
ATOM      6  C   UNL     1       3.578   3.590  18.191  0.00  0.00    +0.000 A 
ENDROOT
BRANCH   6   7
ATOM      7  C   UNL     1       4.976   4.025  17.853  0.00  0.00    +0.000 C 
ATOM      8  O   UNL     1       5.818   4.115  18.740  0.00  0.00    +0.000 OA
ATOM      9  N   UNL     1       5.249   4.334  16.540  0.00  0.00    +0.000 N 
ATOM     10  H   UNL     1       4.492   4.323  15.869  0.00  0.00    +0.000 HD
BRANCH   9  11
ATOM     11  C   UNL     1       6.537   4.829  16.111  0.00  0.00    +0.000 C 
BRANCH  11  12
ATOM     12  C   UNL     1       6.739   4.614  14.633  0.00  0.00    +0.000 A 
ATOM     13  C   UNL     1       5.996   3.638  13.953  0.00  0.00    +0.000 A 
ATOM     14  C   UNL     1       6.146   3.464  12.576  0.00  0.00    +0.000 A 
ATOM     15  C   UNL     1       7.051   4.253  11.868  0.00  0.00    +0.000 A 
ATOM     16  C   UNL     1       7.818   5.203  12.540  0.00  0.00    +0.000 A 
ATOM     17  C   UNL     1       7.668   5.380  13.916  0.00  0.00    +0.000 A 
ENDBRANCH  11  12
ENDBRANCH   9  11
ENDBRANCH   6   7
BRANCH   1  18
ATOM     18  O   UNL     1       2.650   5.793  18.062  0.00  0.00    +0.000 OA
BRANCH  18  19
ATOM     19  C   UNL     1       3.185   6.572  19.130  0.00  0.00    +0.000 C 
BRANCH  19  21
ATOM     20  O   UNL     1       1.489   6.821  20.794  0.00  0.00    +0.000 OA
ATOM     21  C   UNL     1       2.097   7.348  19.865  0.00  0.00    +0.000 C 
ATOM     22  N   UNL     1       1.833   8.592  19.323  0.00  0.00    +0.000 N 
ATOM     23  H   UNL     1       2.297   8.832  18.453  0.00  0.00    +0.000 HD
BRANCH  22  24
ATOM     24  C   UNL     1       0.873   9.520  19.791  0.00  0.00    +0.000 A 
ATOM     25  C   UNL     1       0.799   9.958  21.115  0.00  0.00    +0.000 A 
ATOM     26  C   UNL     1      -0.200  10.853  21.495  0.00  0.00    +0.000 A 
ATOM     27  F   UNL     1      -0.261  11.263  22.769  0.00  0.00    +0.000 F 
ATOM     28  C   UNL     1      -1.131  11.330  20.579  0.00  0.00    +0.000 A 
ATOM     29  C   UNL     1      -1.054  10.918  19.250  0.00  0.00    +0.000 A 
ATOM     30  C   UNL     1      -0.051  10.029  18.867  0.00  0.00    +0.000 A 
ATOM     31  F   UNL     1       0.012   9.637  17.585  0.00  0.00    +0.000 F 
ENDBRANCH  22  24
ENDBRANCH  19  21
ENDBRANCH  18  19
ENDBRANCH   1  18
TORSDOF 7
ENDMDL
MODEL 3
REMARK VINA RESULT:      -8.5      3.264      8.119
REMARK  Name = 
REMARK  7 active torsions:
REMARK  status: ('A' for Active; 'I' for Inactive)
REMARK    1  A    between atoms: C_2  and  C_3
REMARK    2  A    between atoms: C_3  and  O_4
REMARK    3  A    between atoms: O_4  and  C_5
REMARK    4  A    between atoms: C_10  and  C_11
REMARK    5  A    between atoms: N_13  and  C_14
REMARK    6  A    between atoms: C_14  and  C_15
REMARK    7  A    between atoms: N_21  and  C_22
REMARK                            x       y       z     vdW  Elec       q    Type
REMARK                         _______ _______ _______ _____ _____    ______ ____
ROOT
ATOM      1  C   UNL     1       2.907   4.934  19.129  0.00  0.00    +0.000 A 
ATOM      2  C   UNL     1       1.656   4.508  19.607  0.00  0.00    +0.000 A 
ATOM      3  C   UNL     1       1.221   3.199  19.405  0.00  0.00    +0.000 A 
ATOM      4  C   UNL     1       2.034   2.294  18.735  0.00  0.00    +0.000 A 
ATOM      5  C   UNL     1       3.306   2.688  18.315  0.00  0.00    +0.000 A 
ATOM      6  C   UNL     1       3.771   3.998  18.530  0.00  0.00    +0.000 A 
ENDROOT
BRANCH   6   7
ATOM      7  C   UNL     1       5.176   4.289  18.085  0.00  0.00    +0.000 C 
ATOM      8  O   UNL     1       6.080   4.336  18.912  0.00  0.00    +0.000 OA
ATOM      9  N   UNL     1       5.387   4.520  16.745  0.00  0.00    +0.000 N 
ATOM     10  H   UNL     1       4.589   4.552  16.124  0.00  0.00    +0.000 HD
BRANCH   9  11
ATOM     11  C   UNL     1       6.682   4.877  16.213  0.00  0.00    +0.000 C 
BRANCH  11  12
ATOM     12  C   UNL     1       6.747   4.636  14.727  0.00  0.00    +0.000 A 
ATOM     13  C   UNL     1       7.661   5.347  13.935  0.00  0.00    +0.000 A 
ATOM     14  C   UNL     1       7.757   5.097  12.566  0.00  0.00    +0.000 A 
ATOM     15  C   UNL     1       6.931   4.145  11.970  0.00  0.00    +0.000 A 
ATOM     16  C   UNL     1       5.996   3.457  12.742  0.00  0.00    +0.000 A 
ATOM     17  C   UNL     1       5.900   3.704  14.112  0.00  0.00    +0.000 A 
ENDBRANCH  11  12
ENDBRANCH   9  11
ENDBRANCH   6   7
BRANCH   1  18
ATOM     18  O   UNL     1       3.316   6.244  19.224  0.00  0.00    +0.000 OA
BRANCH  18  19
ATOM     19  C   UNL     1       3.109   7.026  18.049  0.00  0.00    +0.000 C 
BRANCH  19  21
ATOM     20  O   UNL     1       2.279   9.210  17.547  0.00  0.00    +0.000 OA
ATOM     21  C   UNL     1       2.270   8.268  18.336  0.00  0.00    +0.000 C 
ATOM     22  N   UNL     1       1.630   8.241  19.560  0.00  0.00    +0.000 N 
ATOM     23  H   UNL     1       1.844   7.470  20.185  0.00  0.00    +0.000 HD
BRANCH  22  24
ATOM     24  C   UNL     1       0.797   9.255  20.091  0.00  0.00    +0.000 A 
ATOM     25  C   UNL     1      -0.122   9.981  19.329  0.00  0.00    +0.000 A 
ATOM     26  C   UNL     1      -0.880  10.984  19.930  0.00  0.00    +0.000 A 
ATOM     27  F   UNL     1      -1.757  11.674  19.187  0.00  0.00    +0.000 F 
ATOM     28  C   UNL     1      -0.748  11.281  21.281  0.00  0.00    +0.000 A 
ATOM     29  C   UNL     1       0.149  10.549  22.056  0.00  0.00    +0.000 A 
ATOM     30  C   UNL     1       0.903   9.540  21.460  0.00  0.00    +0.000 A 
ATOM     31  F   UNL     1       1.766   8.843  22.216  0.00  0.00    +0.000 F 
ENDBRANCH  22  24
ENDBRANCH  19  21
ENDBRANCH  18  19
ENDBRANCH   1  18
TORSDOF 7
ENDMDL
MODEL 4
REMARK VINA RESULT:      -8.5      3.791      5.857
REMARK  Name = 
REMARK  7 active torsions:
REMARK  status: ('A' for Active; 'I' for Inactive)
REMARK    1  A    between atoms: C_2  and  C_3
REMARK    2  A    between atoms: C_3  and  O_4
REMARK    3  A    between atoms: O_4  and  C_5
REMARK    4  A    between atoms: C_10  and  C_11
REMARK    5  A    between atoms: N_13  and  C_14
REMARK    6  A    between atoms: C_14  and  C_15
REMARK    7  A    between atoms: N_21  and  C_22
REMARK                            x       y       z     vdW  Elec       q    Type
REMARK                         _______ _______ _______ _____ _____    ______ ____
ROOT
ATOM      1  C   UNL     1       6.391   5.656  17.310  0.00  0.00    +0.000 A 
ATOM      2  C   UNL     1       7.215   5.546  16.177  0.00  0.00    +0.000 A 
ATOM      3  C   UNL     1       6.957   4.590  15.195  0.00  0.00    +0.000 A 
ATOM      4  C   UNL     1       5.865   3.741  15.324  0.00  0.00    +0.000 A 
ATOM      5  C   UNL     1       5.001   3.887  16.411  0.00  0.00    +0.000 A 
ATOM      6  C   UNL     1       5.233   4.860  17.401  0.00  0.00    +0.000 A 
ENDROOT
BRANCH   6   7
ATOM      7  C   UNL     1       4.206   4.959  18.492  0.00  0.00    +0.000 C 
ATOM      8  O   UNL     1       3.910   3.962  19.143  0.00  0.00    +0.000 OA
ATOM      9  N   UNL     1       3.611   6.181  18.700  0.00  0.00    +0.000 N 
ATOM     10  H   UNL     1       3.834   6.946  18.075  0.00  0.00    +0.000 HD
BRANCH   9  11
ATOM     11  C   UNL     1       2.561   6.379  19.674  0.00  0.00    +0.000 C 
BRANCH  11  12
ATOM     12  C   UNL     1       1.943   7.747  19.540  0.00  0.00    +0.000 A 
ATOM     13  C   UNL     1       1.310   8.347  20.639  0.00  0.00    +0.000 A 
ATOM     14  C   UNL     1       0.775   9.631  20.535  0.00  0.00    +0.000 A 
ATOM     15  C   UNL     1       0.853  10.324  19.327  0.00  0.00    +0.000 A 
ATOM     16  C   UNL     1       1.450   9.724  18.220  0.00  0.00    +0.000 A 
ATOM     17  C   UNL     1       1.988   8.440  18.323  0.00  0.00    +0.000 A 
ENDBRANCH  11  12
ENDBRANCH   9  11
ENDBRANCH   6   7
BRANCH   1  18
ATOM     18  O   UNL     1       6.681   6.518  18.342  0.00  0.00    +0.000 OA
BRANCH  18  19
ATOM     19  C   UNL     1       8.038   6.954  18.399  0.00  0.00    +0.000 C 
BRANCH  19  21
ATOM     20  O   UNL     1       7.522   9.019  17.313  0.00  0.00    +0.000 OA
ATOM     21  C   UNL     1       8.156   8.463  18.207  0.00  0.00    +0.000 C 
ATOM     22  N   UNL     1       9.082   9.063  19.039  0.00  0.00    +0.000 N 
ATOM     23  H   UNL     1       9.655   8.456  19.617  0.00  0.00    +0.000 HD
BRANCH  22  24
ATOM     24  C   UNL     1       9.405  10.440  19.074  0.00  0.00    +0.000 A 
ATOM     25  C   UNL     1       9.733  11.189  17.942  0.00  0.00    +0.000 A 
ATOM     26  C   UNL     1      10.068  12.535  18.074  0.00  0.00    +0.000 A 
ATOM     27  F   UNL     1      10.382  13.241  16.979  0.00  0.00    +0.000 F 
ATOM     28  C   UNL     1      10.082  13.160  19.316  0.00  0.00    +0.000 A 
ATOM     29  C   UNL     1       9.735  12.429  20.450  0.00  0.00    +0.000 A 
ATOM     30  C   UNL     1       9.392  11.085  20.320  0.00  0.00    +0.000 A 
ATOM     31  F   UNL     1       9.063  10.390  21.420  0.00  0.00    +0.000 F 
ENDBRANCH  22  24
ENDBRANCH  19  21
ENDBRANCH  18  19
ENDBRANCH   1  18
TORSDOF 7
ENDMDL
MODEL 5
REMARK VINA RESULT:      -8.5      3.366      8.219
REMARK  Name = 
REMARK  7 active torsions:
REMARK  status: ('A' for Active; 'I' for Inactive)
REMARK    1  A    between atoms: C_2  and  C_3
REMARK    2  A    between atoms: C_3  and  O_4
REMARK    3  A    between atoms: O_4  and  C_5
REMARK    4  A    between atoms: C_10  and  C_11
REMARK    5  A    between atoms: N_13  and  C_14
REMARK    6  A    between atoms: C_14  and  C_15
REMARK    7  A    between atoms: N_21  and  C_22
REMARK                            x       y       z     vdW  Elec       q    Type
REMARK                         _______ _______ _______ _____ _____    ______ ____
ROOT
ATOM      1  C   UNL     1       2.555   4.783  18.482  0.00  0.00    +0.000 A 
ATOM      2  C   UNL     1       1.350   4.326  19.042  0.00  0.00    +0.000 A 
ATOM      3  C   UNL     1       1.212   3.003  19.459  0.00  0.00    +0.000 A 
ATOM      4  C   UNL     1       2.278   2.122  19.336  0.00  0.00    +0.000 A 
ATOM      5  C   UNL     1       3.501   2.582  18.844  0.00  0.00    +0.000 A 
ATOM      6  C   UNL     1       3.666   3.919  18.438  0.00  0.00    +0.000 A 
ENDROOT
BRANCH   6   7
ATOM      7  C   UNL     1       5.041   4.311  17.978  0.00  0.00    +0.000 C 
ATOM      8  O   UNL     1       5.978   4.293  18.771  0.00  0.00    +0.000 OA
ATOM      9  N   UNL     1       5.189   4.707  16.669  0.00  0.00    +0.000 N 
ATOM     10  H   UNL     1       4.365   4.783  16.086  0.00  0.00    +0.000 HD
BRANCH   9  11
ATOM     11  C   UNL     1       6.449   5.171  16.135  0.00  0.00    +0.000 C 
BRANCH  11  12
ATOM     12  C   UNL     1       6.598   4.795  14.683  0.00  0.00    +0.000 A 
ATOM     13  C   UNL     1       7.595   5.393  13.898  0.00  0.00    +0.000 A 
ATOM     14  C   UNL     1       7.768   5.017  12.565  0.00  0.00    +0.000 A 
ATOM     15  C   UNL     1       6.937   4.052  11.999  0.00  0.00    +0.000 A 
ATOM     16  C   UNL     1       5.921   3.476  12.761  0.00  0.00    +0.000 A 
ATOM     17  C   UNL     1       5.749   3.849  14.095  0.00  0.00    +0.000 A 
ENDBRANCH  11  12
ENDBRANCH   9  11
ENDBRANCH   6   7
BRANCH   1  18
ATOM     18  O   UNL     1       2.686   6.052  17.968  0.00  0.00    +0.000 OA
BRANCH  18  19
ATOM     19  C   UNL     1       2.734   7.094  18.941  0.00  0.00    +0.000 C 
BRANCH  19  21
ATOM     20  O   UNL     1       2.306   8.842  17.370  0.00  0.00    +0.000 OA
ATOM     21  C   UNL     1       2.018   8.352  18.460  0.00  0.00    +0.000 C 
ATOM     22  N   UNL     1       1.145   8.889  19.386  0.00  0.00    +0.000 N 
ATOM     23  H   UNL     1       1.129   8.473  20.311  0.00  0.00    +0.000 HD
BRANCH  22  24
ATOM     24  C   UNL     1       0.357  10.052  19.215  0.00  0.00    +0.000 A 
ATOM     25  C   UNL     1      -0.572  10.216  18.185  0.00  0.00    +0.000 A 
ATOM     26  C   UNL     1      -1.283  11.409  18.076  0.00  0.00    +0.000 A 
ATOM     27  F   UNL     1      -2.170  11.553  17.082  0.00  0.00    +0.000 F 
ATOM     28  C   UNL     1      -1.094  12.451  18.977  0.00  0.00    +0.000 A 
ATOM     29  C   UNL     1      -0.186  12.291  20.023  0.00  0.00    +0.000 A 
ATOM     30  C   UNL     1       0.521  11.096  20.138  0.00  0.00    +0.000 A 
ATOM     31  F   UNL     1       1.395  10.955  21.147  0.00  0.00    +0.000 F 
ENDBRANCH  22  24
ENDBRANCH  19  21
ENDBRANCH  18  19
ENDBRANCH   1  18
TORSDOF 7
ENDMDL
MODEL 6
REMARK VINA RESULT:      -8.4      3.733      5.874
REMARK  Name = 
REMARK  7 active torsions:
REMARK  status: ('A' for Active; 'I' for Inactive)
REMARK    1  A    between atoms: C_2  and  C_3
REMARK    2  A    between atoms: C_3  and  O_4
REMARK    3  A    between atoms: O_4  and  C_5
REMARK    4  A    between atoms: C_10  and  C_11
REMARK    5  A    between atoms: N_13  and  C_14
REMARK    6  A    between atoms: C_14  and  C_15
REMARK    7  A    between atoms: N_21  and  C_22
REMARK                            x       y       z     vdW  Elec       q    Type
REMARK                         _______ _______ _______ _____ _____    ______ ____
ROOT
ATOM      1  C   UNL     1       6.282   5.714  16.934  0.00  0.00    +0.000 A 
ATOM      2  C   UNL     1       7.263   5.632  15.931  0.00  0.00    +0.000 A 
ATOM      3  C   UNL     1       7.128   4.736  14.871  0.00  0.00    +0.000 A 
ATOM      4  C   UNL     1       6.007   3.921  14.791  0.00  0.00    +0.000 A 
ATOM      5  C   UNL     1       4.995   4.042  15.745  0.00  0.00    +0.000 A 
ATOM      6  C   UNL     1       5.103   4.956  16.809  0.00  0.00    +0.000 A 
ENDROOT
BRANCH   6   7
ATOM      7  C   UNL     1       3.927   5.036  17.740  0.00  0.00    +0.000 C 
ATOM      8  O   UNL     1       2.919   4.376  17.509  0.00  0.00    +0.000 OA
ATOM      9  N   UNL     1       4.023   5.884  18.819  0.00  0.00    +0.000 N 
ATOM     10  H   UNL     1       4.846   6.467  18.910  0.00  0.00    +0.000 HD
BRANCH   9  11
ATOM     11  C   UNL     1       2.931   6.095  19.742  0.00  0.00    +0.000 C 
BRANCH  11  12
ATOM     12  C   UNL     1       2.251   7.416  19.490  0.00  0.00    +0.000 A 
ATOM     13  C   UNL     1       2.310   8.010  18.221  0.00  0.00    +0.000 A 
ATOM     14  C   UNL     1       1.645   9.211  17.969  0.00  0.00    +0.000 A 
ATOM     15  C   UNL     1       0.927   9.838  18.987  0.00  0.00    +0.000 A 
ATOM     16  C   UNL     1       0.890   9.273  20.260  0.00  0.00    +0.000 A 
ATOM     17  C   UNL     1       1.553   8.070  20.514  0.00  0.00    +0.000 A 
ENDBRANCH  11  12
ENDBRANCH   9  11
ENDBRANCH   6   7
BRANCH   1  18
ATOM     18  O   UNL     1       6.438   6.513  18.043  0.00  0.00    +0.000 OA
BRANCH  18  19
ATOM     19  C   UNL     1       7.784   6.886  18.332  0.00  0.00    +0.000 C 
BRANCH  19  21
ATOM     20  O   UNL     1       7.465   8.967  17.202  0.00  0.00    +0.000 OA
ATOM     21  C   UNL     1       8.014   8.381  18.132  0.00  0.00    +0.000 C 
ATOM     22  N   UNL     1       8.934   8.928  19.006  0.00  0.00    +0.000 N 
ATOM     23  H   UNL     1       9.436   8.292  19.617  0.00  0.00    +0.000 HD
BRANCH  22  24
ATOM     24  C   UNL     1       9.348  10.281  19.045  0.00  0.00    +0.000 A 
ATOM     25  C   UNL     1       9.700  11.017  17.911  0.00  0.00    +0.000 A 
ATOM     26  C   UNL     1      10.125  12.337  18.047  0.00  0.00    +0.000 A 
ATOM     27  F   UNL     1      10.462  13.031  16.951  0.00  0.00    +0.000 F 
ATOM     28  C   UNL     1      10.206  12.948  19.293  0.00  0.00    +0.000 A 
ATOM     29  C   UNL     1       9.836  12.232  20.429  0.00  0.00    +0.000 A 
ATOM     30  C   UNL     1       9.403  10.913  20.295  0.00  0.00    +0.000 A 
ATOM     31  F   UNL     1       9.052  10.232  21.397  0.00  0.00    +0.000 F 
ENDBRANCH  22  24
ENDBRANCH  19  21
ENDBRANCH  18  19
ENDBRANCH   1  18
TORSDOF 7
ENDMDL
MODEL 7
REMARK VINA RESULT:      -8.4      2.554      7.194
REMARK  Name = 
REMARK  7 active torsions:
REMARK  status: ('A' for Active; 'I' for Inactive)
REMARK    1  A    between atoms: C_2  and  C_3
REMARK    2  A    between atoms: C_3  and  O_4
REMARK    3  A    between atoms: O_4  and  C_5
REMARK    4  A    between atoms: C_10  and  C_11
REMARK    5  A    between atoms: N_13  and  C_14
REMARK    6  A    between atoms: C_14  and  C_15
REMARK    7  A    between atoms: N_21  and  C_22
REMARK                            x       y       z     vdW  Elec       q    Type
REMARK                         _______ _______ _______ _____ _____    ______ ____
ROOT
ATOM      1  C   UNL     1       5.601   6.603  17.473  0.00  0.00    +0.000 A 
ATOM      2  C   UNL     1       6.403   7.752  17.366  0.00  0.00    +0.000 A 
ATOM      3  C   UNL     1       7.701   7.768  17.877  0.00  0.00    +0.000 A 
ATOM      4  C   UNL     1       8.219   6.634  18.488  0.00  0.00    +0.000 A 
ATOM      5  C   UNL     1       7.456   5.466  18.538  0.00  0.00    +0.000 A 
ATOM      6  C   UNL     1       6.153   5.424  18.009  0.00  0.00    +0.000 A 
ENDROOT
BRANCH   6   7
ATOM      7  C   UNL     1       5.450   4.098  18.072  0.00  0.00    +0.000 C 
ATOM      8  O   UNL     1       5.015   3.589  17.044  0.00  0.00    +0.000 OA
ATOM      9  N   UNL     1       5.299   3.512  19.308  0.00  0.00    +0.000 N 
ATOM     10  H   UNL     1       5.603   4.021  20.129  0.00  0.00    +0.000 HD
BRANCH   9  11
ATOM     11  C   UNL     1       4.580   2.274  19.498  0.00  0.00    +0.000 C 
BRANCH  11  12
ATOM     12  C   UNL     1       3.106   2.521  19.691  0.00  0.00    +0.000 A 
ATOM     13  C   UNL     1       2.630   3.046  20.901  0.00  0.00    +0.000 A 
ATOM     14  C   UNL     1       1.273   3.319  21.071  0.00  0.00    +0.000 A 
ATOM     15  C   UNL     1       0.374   3.057  20.038  0.00  0.00    +0.000 A 
ATOM     16  C   UNL     1       0.831   2.504  18.843  0.00  0.00    +0.000 A 
ATOM     17  C   UNL     1       2.190   2.232  18.671  0.00  0.00    +0.000 A 
ENDBRANCH  11  12
ENDBRANCH   9  11
ENDBRANCH   6   7
BRANCH   1  18
ATOM     18  O   UNL     1       4.286   6.592  17.071  0.00  0.00    +0.000 OA
BRANCH  18  19
ATOM     19  C   UNL     1       3.332   6.574  18.132  0.00  0.00    +0.000 C 
BRANCH  19  21
ATOM     20  O   UNL     1       2.591   8.676  17.270  0.00  0.00    +0.000 OA
ATOM     21  C   UNL     1       2.536   7.874  18.200  0.00  0.00    +0.000 C 
ATOM     22  N   UNL     1       1.878   8.066  19.399  0.00  0.00    +0.000 N 
ATOM     23  H   UNL     1       2.055   7.398  20.143  0.00  0.00    +0.000 HD
BRANCH  22  24
ATOM     24  C   UNL     1       1.076   9.180  19.744  0.00  0.00    +0.000 A 
ATOM     25  C   UNL     1       0.480  10.026  18.806  0.00  0.00    +0.000 A 
ATOM     26  C   UNL     1      -0.270  11.119  19.236  0.00  0.00    +0.000 A 
ATOM     27  F   UNL     1      -0.834  11.924  18.326  0.00  0.00    +0.000 F 
ATOM     28  C   UNL     1      -0.446  11.390  20.589  0.00  0.00    +0.000 A 
ATOM     29  C   UNL     1       0.124  10.540  21.534  0.00  0.00    +0.000 A 
ATOM     30  C   UNL     1       0.868   9.442  21.106  0.00  0.00    +0.000 A 
ATOM     31  F   UNL     1       1.416   8.631  22.026  0.00  0.00    +0.000 F 
ENDBRANCH  22  24
ENDBRANCH  19  21
ENDBRANCH  18  19
ENDBRANCH   1  18
TORSDOF 7
ENDMDL
MODEL 8
REMARK VINA RESULT:      -8.3      4.021      6.756
REMARK  Name = 
REMARK  7 active torsions:
REMARK  status: ('A' for Active; 'I' for Inactive)
REMARK    1  A    between atoms: C_2  and  C_3
REMARK    2  A    between atoms: C_3  and  O_4
REMARK    3  A    between atoms: O_4  and  C_5
REMARK    4  A    between atoms: C_10  and  C_11
REMARK    5  A    between atoms: N_13  and  C_14
REMARK    6  A    between atoms: C_14  and  C_15
REMARK    7  A    between atoms: N_21  and  C_22
REMARK                            x       y       z     vdW  Elec       q    Type
REMARK                         _______ _______ _______ _____ _____    ______ ____
ROOT
ATOM      1  C   UNL     1       6.433   6.321  16.591  0.00  0.00    +0.000 A 
ATOM      2  C   UNL     1       7.055   6.057  15.359  0.00  0.00    +0.000 A 
ATOM      3  C   UNL     1       6.970   4.795  14.772  0.00  0.00    +0.000 A 
ATOM      4  C   UNL     1       6.252   3.785  15.399  0.00  0.00    +0.000 A 
ATOM      5  C   UNL     1       5.574   4.056  16.589  0.00  0.00    +0.000 A 
ATOM      6  C   UNL     1       5.630   5.329  17.186  0.00  0.00    +0.000 A 
ENDROOT
BRANCH   6   7
ATOM      7  C   UNL     1       4.816   5.517  18.434  0.00  0.00    +0.000 C 
ATOM      8  O   UNL     1       5.234   5.088  19.505  0.00  0.00    +0.000 OA
ATOM      9  N   UNL     1       3.601   6.150  18.315  0.00  0.00    +0.000 N 
ATOM     10  H   UNL     1       3.272   6.405  17.392  0.00  0.00    +0.000 HD
BRANCH   9  11
ATOM     11  C   UNL     1       2.703   6.325  19.433  0.00  0.00    +0.000 C 
BRANCH  11  12
ATOM     12  C   UNL     1       2.133   5.006  19.887  0.00  0.00    +0.000 A 
ATOM     13  C   UNL     1       1.436   4.189  18.984  0.00  0.00    +0.000 A 
ATOM     14  C   UNL     1       0.945   2.946  19.386  0.00  0.00    +0.000 A 
ATOM     15  C   UNL     1       1.131   2.513  20.698  0.00  0.00    +0.000 A 
ATOM     16  C   UNL     1       1.793   3.331  21.612  0.00  0.00    +0.000 A 
ATOM     17  C   UNL     1       2.287   4.574  21.211  0.00  0.00    +0.000 A 
ENDBRANCH  11  12
ENDBRANCH   9  11
ENDBRANCH   6   7
BRANCH   1  18
ATOM     18  O   UNL     1       6.586   7.523  17.242  0.00  0.00    +0.000 OA
BRANCH  18  19
ATOM     19  C   UNL     1       7.831   7.687  17.919  0.00  0.00    +0.000 C 
BRANCH  19  21
ATOM     20  O   UNL     1       7.675  10.004  17.357  0.00  0.00    +0.000 OA
ATOM     21  C   UNL     1       8.198   9.159  18.080  0.00  0.00    +0.000 C 
ATOM     22  N   UNL     1       9.199   9.389  19.004  0.00  0.00    +0.000 N 
ATOM     23  H   UNL     1       9.658   8.579  19.409  0.00  0.00    +0.000 HD
BRANCH  22  24
ATOM     24  C   UNL     1       9.745  10.648  19.350  0.00  0.00    +0.000 A 
ATOM     25  C   UNL     1      10.479  11.444  18.468  0.00  0.00    +0.000 A 
ATOM     26  C   UNL     1      11.005  12.658  18.904  0.00  0.00    +0.000 A 
ATOM     27  F   UNL     1      11.709  13.411  18.048  0.00  0.00    +0.000 F 
ATOM     28  C   UNL     1      10.813  13.106  20.206  0.00  0.00    +0.000 A 
ATOM     29  C   UNL     1      10.063  12.331  21.089  0.00  0.00    +0.000 A 
ATOM     30  C   UNL     1       9.530  11.120  20.653  0.00  0.00    +0.000 A 
ATOM     31  F   UNL     1       8.812  10.381  21.514  0.00  0.00    +0.000 F 
ENDBRANCH  22  24
ENDBRANCH  19  21
ENDBRANCH  18  19
ENDBRANCH   1  18
TORSDOF 7
ENDMDL
MODEL 9
REMARK VINA RESULT:      -8.3      3.293      8.056
REMARK  Name = 
REMARK  7 active torsions:
REMARK  status: ('A' for Active; 'I' for Inactive)
REMARK    1  A    between atoms: C_2  and  C_3
REMARK    2  A    between atoms: C_3  and  O_4
REMARK    3  A    between atoms: O_4  and  C_5
REMARK    4  A    between atoms: C_10  and  C_11
REMARK    5  A    between atoms: N_13  and  C_14
REMARK    6  A    between atoms: C_14  and  C_15
REMARK    7  A    between atoms: N_21  and  C_22
REMARK                            x       y       z     vdW  Elec       q    Type
REMARK                         _______ _______ _______ _____ _____    ______ ____
ROOT
ATOM      1  C   UNL     1       2.656   5.125  19.299  0.00  0.00    +0.000 A 
ATOM      2  C   UNL     1       1.467   4.710  19.923  0.00  0.00    +0.000 A 
ATOM      3  C   UNL     1       1.176   3.354  20.075  0.00  0.00    +0.000 A 
ATOM      4  C   UNL     1       2.072   2.397  19.620  0.00  0.00    +0.000 A 
ATOM      5  C   UNL     1       3.287   2.799  19.061  0.00  0.00    +0.000 A 
ATOM      6  C   UNL     1       3.608   4.161  18.918  0.00  0.00    +0.000 A 
ENDROOT
BRANCH   6   7
ATOM      7  C   UNL     1       4.966   4.471  18.355  0.00  0.00    +0.000 C 
ATOM      8  O   UNL     1       5.970   4.233  19.018  0.00  0.00    +0.000 OA
ATOM      9  N   UNL     1       5.023   5.044  17.105  0.00  0.00    +0.000 N 
ATOM     10  H   UNL     1       4.158   5.295  16.644  0.00  0.00    +0.000 HD
BRANCH   9  11
ATOM     11  C   UNL     1       6.268   5.448  16.492  0.00  0.00    +0.000 C 
BRANCH  11  12
ATOM     12  C   UNL     1       6.386   4.910  15.090  0.00  0.00    +0.000 A 
ATOM     13  C   UNL     1       5.422   4.022  14.590  0.00  0.00    +0.000 A 
ATOM     14  C   UNL     1       5.501   3.556  13.277  0.00  0.00    +0.000 A 
ATOM     15  C   UNL     1       6.551   3.959  12.455  0.00  0.00    +0.000 A 
ATOM     16  C   UNL     1       7.533   4.816  12.952  0.00  0.00    +0.000 A 
ATOM     17  C   UNL     1       7.454   5.285  14.264  0.00  0.00    +0.000 A 
ENDBRANCH  11  12
ENDBRANCH   9  11
ENDBRANCH   6   7
BRANCH   1  18
ATOM     18  O   UNL     1       2.920   6.450  19.044  0.00  0.00    +0.000 OA
BRANCH  18  19
ATOM     19  C   UNL     1       2.149   7.377  19.807  0.00  0.00    +0.000 C 
BRANCH  19  21
ATOM     20  O   UNL     1       1.958   8.605  17.767  0.00  0.00    +0.000 OA
ATOM     21  C   UNL     1       1.716   8.577  18.971  0.00  0.00    +0.000 C 
ATOM     22  N   UNL     1       1.152   9.600  19.710  0.00  0.00    +0.000 N 
ATOM     23  H   UNL     1       1.166   9.511  20.721  0.00  0.00    +0.000 HD
BRANCH  22  24
ATOM     24  C   UNL     1       0.671  10.830  19.203  0.00  0.00    +0.000 A 
ATOM     25  C   UNL     1       1.463  11.971  19.055  0.00  0.00    +0.000 A 
ATOM     26  C   UNL     1       0.897  13.150  18.574  0.00  0.00    +0.000 A 
ATOM     27  F   UNL     1       1.668  14.238  18.439  0.00  0.00    +0.000 F 
ATOM     28  C   UNL     1      -0.449  13.221  18.232  0.00  0.00    +0.000 A 
ATOM     29  C   UNL     1      -1.244  12.084  18.354  0.00  0.00    +0.000 A 
ATOM     30  C   UNL     1      -0.678  10.901  18.827  0.00  0.00    +0.000 A 
ATOM     31  F   UNL     1      -1.455   9.813  18.943  0.00  0.00    +0.000 F 
ENDBRANCH  22  24
ENDBRANCH  19  21
ENDBRANCH  18  19
ENDBRANCH   1  18
TORSDOF 7
ENDMDL
