MODEL 1
REMARK VINA RESULT:      -8.7      0.000      0.000
REMARK  Name = 
REMARK  6 active torsions:
REMARK  status: ('A' for Active; 'I' for Inactive)
REMARK    1  A    between atoms: C_2  and  C_3
REMARK    2  A    between atoms: C_3  and  N_4
REMARK    3  A    between atoms: C_5  and  C_6
REMARK    4  A    between atoms: N_19  and  C_20
REMARK    5  A    between atoms: C_20  and  C_21
REMARK    6  A    between atoms: C_21  and  C_22
REMARK                            x       y       z     vdW  Elec       q    Type
REMARK                         _______ _______ _______ _____ _____    ______ ____
ROOT
ATOM      1  N   UNL     1       5.095   5.383  16.852  0.00  0.00    +0.000 N 
ATOM      2  C   UNL     1       5.109   4.329  15.923  0.00  0.00    +0.000 A 
ATOM      3  C   UNL     1       4.283   3.350  16.458  0.00  0.00    +0.000 A 
ATOM      4  C   UNL     1       3.780   3.776  17.707  0.00  0.00    +0.000 A 
ATOM      5  C   UNL     1       2.905   3.198  18.651  0.00  0.00    +0.000 A 
ATOM      6  C   UNL     1       2.594   3.882  19.827  0.00  0.00    +0.000 A 
ATOM      7  C   UNL     1       3.186   5.105  20.098  0.00  0.00    +0.000 A 
ATOM      8  C   UNL     1       4.092   5.668  19.197  0.00  0.00    +0.000 A 
ATOM      9  C   UNL     1       4.350   5.024  17.972  0.00  0.00    +0.000 A 
ENDROOT
BRANCH   2  10
ATOM     10  C   UNL     1       5.796   4.294  14.604  0.00  0.00    +0.000 A 
ATOM     11  C   UNL     1       5.287   3.618  13.487  0.00  0.00    +0.000 A 
ATOM     12  C   UNL     1       6.003   3.533  12.288  0.00  0.00    +0.000 A 
ATOM     13  C   UNL     1       7.218   4.191  12.153  0.00  0.00    +0.000 A 
ATOM     14  C   UNL     1       7.709   4.940  13.216  0.00  0.00    +0.000 A 
ATOM     15  C   UNL     1       7.009   4.982  14.430  0.00  0.00    +0.000 A 
ENDBRANCH   2  10
BRANCH   1  16
ATOM     16  C   UNL     1       5.748   6.674  16.610  0.00  0.00    +0.000 C 
BRANCH  16  18
ATOM     17  O   UNL     1       7.477   6.245  18.200  0.00  0.00    +0.000 OA
ATOM     18  C   UNL     1       6.943   7.056  17.446  0.00  0.00    +0.000 C 
ATOM     19  N   UNL     1       7.416   8.343  17.282  0.00  0.00    +0.000 N 
ATOM     20  H   UNL     1       6.761   9.021  16.905  0.00  0.00    +0.000 HD
BRANCH  19  21
ATOM     21  C   UNL     1       8.443   8.853  18.182  0.00  0.00    +0.000 C 
BRANCH  21  22
ATOM     22  C   UNL     1       8.362  10.370  18.370  0.00  0.00    +0.000 C 
BRANCH  22  23
ATOM     23  C   UNL     1       9.684  10.960  18.761  0.00  0.00    +0.000 A 
ATOM     24  C   UNL     1      10.647  11.301  17.810  0.00  0.00    +0.000 A 
ATOM     25  C   UNL     1      11.861  11.850  18.225  0.00  0.00    +0.000 A 
ATOM     26  C   UNL     1      12.067  12.026  19.583  0.00  0.00    +0.000 A 
ATOM     27  N   UNL     1      11.166  11.697  20.531  0.00  0.00    +0.000 NA
ATOM     28  C   UNL     1       9.998  11.174  20.102  0.00  0.00    +0.000 A 
ENDBRANCH  22  23
ENDBRANCH  21  22
ENDBRANCH  19  21
ENDBRANCH  16  18
ENDBRANCH   1  16
TORSDOF 6
ENDMDL
MODEL 2
REMARK VINA RESULT:      -8.6      4.288      7.731
REMARK  Name = 
REMARK  6 active torsions:
REMARK  status: ('A' for Active; 'I' for Inactive)
REMARK    1  A    between atoms: C_2  and  C_3
REMARK    2  A    between atoms: C_3  and  N_4
REMARK    3  A    between atoms: C_5  and  C_6
REMARK    4  A    between atoms: N_19  and  C_20
REMARK    5  A    between atoms: C_20  and  C_21
REMARK    6  A    between atoms: C_21  and  C_22
REMARK                            x       y       z     vdW  Elec       q    Type
REMARK                         _______ _______ _______ _____ _____    ______ ____
ROOT
ATOM      1  N   UNL     1       4.179   5.910  18.054  0.00  0.00    +0.000 N 
ATOM      2  C   UNL     1       4.061   4.764  18.859  0.00  0.00    +0.000 A 
ATOM      3  C   UNL     1       5.327   4.546  19.385  0.00  0.00    +0.000 A 
ATOM      4  C   UNL     1       6.223   5.525  18.901  0.00  0.00    +0.000 A 
ATOM      5  C   UNL     1       7.593   5.782  19.121  0.00  0.00    +0.000 A 
ATOM      6  C   UNL     1       8.216   6.851  18.477  0.00  0.00    +0.000 A 
ATOM      7  C   UNL     1       7.507   7.630  17.578  0.00  0.00    +0.000 A 
ATOM      8  C   UNL     1       6.164   7.360  17.312  0.00  0.00    +0.000 A 
ATOM      9  C   UNL     1       5.505   6.334  18.016  0.00  0.00    +0.000 A 
ENDROOT
BRANCH   2  10
ATOM     10  C   UNL     1       2.826   3.990  19.154  0.00  0.00    +0.000 A 
ATOM     11  C   UNL     1       2.057   4.175  20.312  0.00  0.00    +0.000 A 
ATOM     12  C   UNL     1       0.951   3.369  20.599  0.00  0.00    +0.000 A 
ATOM     13  C   UNL     1       0.540   2.401  19.692  0.00  0.00    +0.000 A 
ATOM     14  C   UNL     1       1.232   2.250  18.496  0.00  0.00    +0.000 A 
ATOM     15  C   UNL     1       2.367   3.030  18.236  0.00  0.00    +0.000 A 
ENDBRANCH   2  10
BRANCH   1  16
ATOM     16  C   UNL     1       3.033   6.558  17.407  0.00  0.00    +0.000 C 
BRANCH  16  18
ATOM     17  O   UNL     1       2.369   8.849  17.315  0.00  0.00    +0.000 OA
ATOM     18  C   UNL     1       2.488   7.834  17.996  0.00  0.00    +0.000 C 
ATOM     19  N   UNL     1       2.098   7.776  19.320  0.00  0.00    +0.000 N 
ATOM     20  H   UNL     1       2.506   7.034  19.880  0.00  0.00    +0.000 HD
BRANCH  19  21
ATOM     21  C   UNL     1       1.737   9.002  20.019  0.00  0.00    +0.000 C 
BRANCH  21  22
ATOM     22  C   UNL     1       1.107   8.738  21.388  0.00  0.00    +0.000 C 
BRANCH  22  23
ATOM     23  C   UNL     1       0.342   9.924  21.896  0.00  0.00    +0.000 A 
ATOM     24  C   UNL     1      -0.701   9.787  22.812  0.00  0.00    +0.000 A 
ATOM     25  C   UNL     1      -1.381  10.922  23.256  0.00  0.00    +0.000 A 
ATOM     26  C   UNL     1      -0.993  12.153  22.754  0.00  0.00    +0.000 A 
ATOM     27  N   UNL     1       0.001  12.322  21.859  0.00  0.00    +0.000 NA
ATOM     28  C   UNL     1       0.646  11.208  21.451  0.00  0.00    +0.000 A 
ENDBRANCH  22  23
ENDBRANCH  21  22
ENDBRANCH  19  21
ENDBRANCH  16  18
ENDBRANCH   1  16
TORSDOF 6
ENDMDL
MODEL 3
REMARK VINA RESULT:      -8.6      4.246      7.768
REMARK  Name = 
REMARK  6 active torsions:
REMARK  status: ('A' for Active; 'I' for Inactive)
REMARK    1  A    between atoms: C_2  and  C_3
REMARK    2  A    between atoms: C_3  and  N_4
REMARK    3  A    between atoms: C_5  and  C_6
REMARK    4  A    between atoms: N_19  and  C_20
REMARK    5  A    between atoms: C_20  and  C_21
REMARK    6  A    between atoms: C_21  and  C_22
REMARK                            x       y       z     vdW  Elec       q    Type
REMARK                         _______ _______ _______ _____ _____    ______ ____
ROOT
ATOM      1  N   UNL     1       4.173   6.050  18.139  0.00  0.00    +0.000 N 
ATOM      2  C   UNL     1       4.054   4.846  18.855  0.00  0.00    +0.000 A 
ATOM      3  C   UNL     1       5.340   4.531  19.271  0.00  0.00    +0.000 A 
ATOM      4  C   UNL     1       6.248   5.508  18.805  0.00  0.00    +0.000 A 
ATOM      5  C   UNL     1       7.640   5.687  18.946  0.00  0.00    +0.000 A 
ATOM      6  C   UNL     1       8.270   6.779  18.348  0.00  0.00    +0.000 A 
ATOM      7  C   UNL     1       7.540   7.660  17.567  0.00  0.00    +0.000 A 
ATOM      8  C   UNL     1       6.170   7.470  17.377  0.00  0.00    +0.000 A 
ATOM      9  C   UNL     1       5.512   6.418  18.041  0.00  0.00    +0.000 A 
ENDROOT
BRANCH   2  10
ATOM     10  C   UNL     1       2.806   4.104  19.175  0.00  0.00    +0.000 A 
ATOM     11  C   UNL     1       2.131   4.218  20.398  0.00  0.00    +0.000 A 
ATOM     12  C   UNL     1       1.009   3.438  20.697  0.00  0.00    +0.000 A 
ATOM     13  C   UNL     1       0.487   2.574  19.744  0.00  0.00    +0.000 A 
ATOM     14  C   UNL     1       1.084   2.500  18.491  0.00  0.00    +0.000 A 
ATOM     15  C   UNL     1       2.236   3.250  18.215  0.00  0.00    +0.000 A 
ENDBRANCH   2  10
BRANCH   1  16
ATOM     16  C   UNL     1       3.018   6.798  17.630  0.00  0.00    +0.000 C 
BRANCH  16  18
ATOM     17  O   UNL     1       2.276   7.765  19.683  0.00  0.00    +0.000 OA
ATOM     18  C   UNL     1       2.437   7.905  18.473  0.00  0.00    +0.000 C 
ATOM     19  N   UNL     1       2.140   9.082  17.813  0.00  0.00    +0.000 N 
ATOM     20  H   UNL     1       2.003   9.015  16.810  0.00  0.00    +0.000 HD
BRANCH  19  21
ATOM     21  C   UNL     1       1.406  10.131  18.508  0.00  0.00    +0.000 C 
BRANCH  21  22
ATOM     22  C   UNL     1      -0.000   9.692  18.922  0.00  0.00    +0.000 C 
BRANCH  22  23
ATOM     23  C   UNL     1      -0.282   9.991  20.365  0.00  0.00    +0.000 A 
ATOM     24  C   UNL     1      -0.238   8.996  21.343  0.00  0.00    +0.000 A 
ATOM     25  C   UNL     1      -0.507   9.325  22.672  0.00  0.00    +0.000 A 
ATOM     26  C   UNL     1      -0.819  10.641  22.968  0.00  0.00    +0.000 A 
ATOM     27  N   UNL     1      -0.884  11.625  22.049  0.00  0.00    +0.000 NA
ATOM     28  C   UNL     1      -0.614  11.281  20.772  0.00  0.00    +0.000 A 
ENDBRANCH  22  23
ENDBRANCH  21  22
ENDBRANCH  19  21
ENDBRANCH  16  18
ENDBRANCH   1  16
TORSDOF 6
ENDMDL
MODEL 4
REMARK VINA RESULT:      -8.6      1.261      4.651
REMARK  Name = 
REMARK  6 active torsions:
REMARK  status: ('A' for Active; 'I' for Inactive)
REMARK    1  A    between atoms: C_2  and  C_3
REMARK    2  A    between atoms: C_3  and  N_4
REMARK    3  A    between atoms: C_5  and  C_6
REMARK    4  A    between atoms: N_19  and  C_20
REMARK    5  A    between atoms: C_20  and  C_21
REMARK    6  A    between atoms: C_21  and  C_22
REMARK                            x       y       z     vdW  Elec       q    Type
REMARK                         _______ _______ _______ _____ _____    ______ ____
ROOT
ATOM      1  N   UNL     1       6.389   5.102  16.218  0.00  0.00    +0.000 N 
ATOM      2  C   UNL     1       5.146   4.518  16.515  0.00  0.00    +0.000 A 
ATOM      3  C   UNL     1       4.742   3.887  15.346  0.00  0.00    +0.000 A 
ATOM      4  C   UNL     1       5.704   4.093  14.332  0.00  0.00    +0.000 A 
ATOM      5  C   UNL     1       5.807   3.672  12.989  0.00  0.00    +0.000 A 
ATOM      6  C   UNL     1       6.906   4.052  12.219  0.00  0.00    +0.000 A 
ATOM      7  C   UNL     1       7.873   4.889  12.752  0.00  0.00    +0.000 A 
ATOM      8  C   UNL     1       7.762   5.354  14.064  0.00  0.00    +0.000 A 
ATOM      9  C   UNL     1       6.699   4.912  14.874  0.00  0.00    +0.000 A 
ENDROOT
BRANCH   2  10
ATOM     10  C   UNL     1       4.444   4.503  17.826  0.00  0.00    +0.000 A 
ATOM     11  C   UNL     1       4.449   3.401  18.692  0.00  0.00    +0.000 A 
ATOM     12  C   UNL     1       3.704   3.391  19.876  0.00  0.00    +0.000 A 
ATOM     13  C   UNL     1       2.993   4.519  20.262  0.00  0.00    +0.000 A 
ATOM     14  C   UNL     1       3.036   5.657  19.465  0.00  0.00    +0.000 A 
ATOM     15  C   UNL     1       3.746   5.645  18.257  0.00  0.00    +0.000 A 
ENDBRANCH   2  10
BRANCH   1  16
ATOM     16  C   UNL     1       7.225   5.766  17.225  0.00  0.00    +0.000 C 
BRANCH  16  18
ATOM     17  O   UNL     1       6.265   7.915  16.825  0.00  0.00    +0.000 OA
ATOM     18  C   UNL     1       7.176   7.269  17.337  0.00  0.00    +0.000 C 
ATOM     19  N   UNL     1       8.184   7.858  18.076  0.00  0.00    +0.000 N 
ATOM     20  H   UNL     1       9.036   7.318  18.189  0.00  0.00    +0.000 HD
BRANCH  19  21
ATOM     21  C   UNL     1       8.320   9.309  18.080  0.00  0.00    +0.000 C 
BRANCH  21  22
ATOM     22  C   UNL     1       9.157   9.819  19.255  0.00  0.00    +0.000 C 
BRANCH  22  23
ATOM     23  C   UNL     1       9.809  11.136  18.953  0.00  0.00    +0.000 A 
ATOM     24  C   UNL     1      10.909  11.594  19.679  0.00  0.00    +0.000 A 
ATOM     25  C   UNL     1      11.481  12.825  19.358  0.00  0.00    +0.000 A 
ATOM     26  C   UNL     1      10.920  13.556  18.324  0.00  0.00    +0.000 A 
ATOM     27  N   UNL     1       9.850  13.152  17.609  0.00  0.00    +0.000 NA
ATOM     28  C   UNL     1       9.320  11.954  17.937  0.00  0.00    +0.000 A 
ENDBRANCH  22  23
ENDBRANCH  21  22
ENDBRANCH  19  21
ENDBRANCH  16  18
ENDBRANCH   1  16
TORSDOF 6
ENDMDL
MODEL 5
REMARK VINA RESULT:      -8.6      4.255      7.732
REMARK  Name = 
REMARK  6 active torsions:
REMARK  status: ('A' for Active; 'I' for Inactive)
REMARK    1  A    between atoms: C_2  and  C_3
REMARK    2  A    between atoms: C_3  and  N_4
REMARK    3  A    between atoms: C_5  and  C_6
REMARK    4  A    between atoms: N_19  and  C_20
REMARK    5  A    between atoms: C_20  and  C_21
REMARK    6  A    between atoms: C_21  and  C_22
REMARK                            x       y       z     vdW  Elec       q    Type
REMARK                         _______ _______ _______ _____ _____    ______ ____
ROOT
ATOM      1  N   UNL     1       4.150   6.007  18.159  0.00  0.00    +0.000 N 
ATOM      2  C   UNL     1       4.087   4.784  18.849  0.00  0.00    +0.000 A 
ATOM      3  C   UNL     1       5.392   4.501  19.226  0.00  0.00    +0.000 A 
ATOM      4  C   UNL     1       6.257   5.517  18.761  0.00  0.00    +0.000 A 
ATOM      5  C   UNL     1       7.646   5.737  18.874  0.00  0.00    +0.000 A 
ATOM      6  C   UNL     1       8.226   6.862  18.286  0.00  0.00    +0.000 A 
ATOM      7  C   UNL     1       7.450   7.737  17.544  0.00  0.00    +0.000 A 
ATOM      8  C   UNL     1       6.082   7.508  17.382  0.00  0.00    +0.000 A 
ATOM      9  C   UNL     1       5.474   6.420  18.038  0.00  0.00    +0.000 A 
ENDROOT
BRANCH   2  10
ATOM     10  C   UNL     1       2.871   3.995  19.180  0.00  0.00    +0.000 A 
ATOM     11  C   UNL     1       2.236   3.137  18.272  0.00  0.00    +0.000 A 
ATOM     12  C   UNL     1       1.044   2.477  18.590  0.00  0.00    +0.000 A 
ATOM     13  C   UNL     1       0.495   2.603  19.859  0.00  0.00    +0.000 A 
ATOM     14  C   UNL     1       1.147   3.380  20.809  0.00  0.00    +0.000 A 
ATOM     15  C   UNL     1       2.316   4.075  20.470  0.00  0.00    +0.000 A 
ENDBRANCH   2  10
BRANCH   1  16
ATOM     16  C   UNL     1       2.960   6.729  17.695  0.00  0.00    +0.000 C 
BRANCH  16  18
ATOM     17  O   UNL     1       2.337   7.779  19.747  0.00  0.00    +0.000 OA
ATOM     18  C   UNL     1       2.430   7.870  18.525  0.00  0.00    +0.000 C 
ATOM     19  N   UNL     1       2.100   9.022  17.838  0.00  0.00    +0.000 N 
ATOM     20  H   UNL     1       1.906   8.917  16.847  0.00  0.00    +0.000 HD
BRANCH  19  21
ATOM     21  C   UNL     1       1.408  10.101  18.531  0.00  0.00    +0.000 C 
BRANCH  21  22
ATOM     22  C   UNL     1      -0.020   9.725  18.932  0.00  0.00    +0.000 C 
BRANCH  22  23
ATOM     23  C   UNL     1      -0.297  10.021  20.376  0.00  0.00    +0.000 A 
ATOM     24  C   UNL     1      -0.526  11.321  20.828  0.00  0.00    +0.000 A 
ATOM     25  C   UNL     1      -0.781  11.545  22.182  0.00  0.00    +0.000 A 
ATOM     26  C   UNL     1      -0.787  10.453  23.033  0.00  0.00    +0.000 A 
ATOM     27  N   UNL     1      -0.557   9.185  22.635  0.00  0.00    +0.000 NA
ATOM     28  C   UNL     1      -0.319   8.997  21.319  0.00  0.00    +0.000 A 
ENDBRANCH  22  23
ENDBRANCH  21  22
ENDBRANCH  19  21
ENDBRANCH  16  18
ENDBRANCH   1  16
TORSDOF 6
ENDMDL
MODEL 6
REMARK VINA RESULT:      -8.6      4.790      7.648
REMARK  Name = 
REMARK  6 active torsions:
REMARK  status: ('A' for Active; 'I' for Inactive)
REMARK    1  A    between atoms: C_2  and  C_3
REMARK    2  A    between atoms: C_3  and  N_4
REMARK    3  A    between atoms: C_5  and  C_6
REMARK    4  A    between atoms: N_19  and  C_20
REMARK    5  A    between atoms: C_20  and  C_21
REMARK    6  A    between atoms: C_21  and  C_22
REMARK                            x       y       z     vdW  Elec       q    Type
REMARK                         _______ _______ _______ _____ _____    ______ ____
ROOT
ATOM      1  N   UNL     1       3.300   5.330  19.092  0.00  0.00    +0.000 N 
ATOM      2  C   UNL     1       4.528   4.969  18.513  0.00  0.00    +0.000 A 
ATOM      3  C   UNL     1       4.362   3.664  18.070  0.00  0.00    +0.000 A 
ATOM      4  C   UNL     1       3.061   3.212  18.386  0.00  0.00    +0.000 A 
ATOM      5  C   UNL     1       2.371   2.003  18.159  0.00  0.00    +0.000 A 
ATOM      6  C   UNL     1       1.058   1.852  18.608  0.00  0.00    +0.000 A 
ATOM      7  C   UNL     1       0.448   2.866  19.327  0.00  0.00    +0.000 A 
ATOM      8  C   UNL     1       1.134   4.050  19.603  0.00  0.00    +0.000 A 
ATOM      9  C   UNL     1       2.429   4.244  19.085  0.00  0.00    +0.000 A 
ENDROOT
BRANCH   2  10
ATOM     10  C   UNL     1       5.731   5.826  18.335  0.00  0.00    +0.000 A 
ATOM     11  C   UNL     1       5.811   6.856  17.387  0.00  0.00    +0.000 A 
ATOM     12  C   UNL     1       6.989   7.583  17.187  0.00  0.00    +0.000 A 
ATOM     13  C   UNL     1       8.099   7.347  17.988  0.00  0.00    +0.000 A 
ATOM     14  C   UNL     1       8.023   6.389  18.992  0.00  0.00    +0.000 A 
ATOM     15  C   UNL     1       6.855   5.632  19.156  0.00  0.00    +0.000 A 
ENDBRANCH   2  10
BRANCH   1  16
ATOM     16  C   UNL     1       3.008   6.684  19.577  0.00  0.00    +0.000 C 
BRANCH  16  18
ATOM     17  O   UNL     1       2.470   7.547  17.417  0.00  0.00    +0.000 OA
ATOM     18  C   UNL     1       2.371   7.674  18.635  0.00  0.00    +0.000 C 
ATOM     19  N   UNL     1       1.645   8.693  19.221  0.00  0.00    +0.000 N 
ATOM     20  H   UNL     1       1.867   8.907  20.188  0.00  0.00    +0.000 HD
BRANCH  19  21
ATOM     21  C   UNL     1       1.155   9.793  18.400  0.00  0.00    +0.000 C 
BRANCH  21  22
ATOM     22  C   UNL     1       0.184  10.704  19.154  0.00  0.00    +0.000 C 
BRANCH  22  23
ATOM     23  C   UNL     1      -1.178  10.720  18.524  0.00  0.00    +0.000 A 
ATOM     24  C   UNL     1      -1.491   9.911  17.432  0.00  0.00    +0.000 A 
ATOM     25  C   UNL     1      -2.773   9.961  16.883  0.00  0.00    +0.000 A 
ATOM     26  C   UNL     1      -3.691  10.831  17.447  0.00  0.00    +0.000 A 
ATOM     27  N   UNL     1      -3.420  11.637  18.494  0.00  0.00    +0.000 NA
ATOM     28  C   UNL     1      -2.174  11.564  19.009  0.00  0.00    +0.000 A 
ENDBRANCH  22  23
ENDBRANCH  21  22
ENDBRANCH  19  21
ENDBRANCH  16  18
ENDBRANCH   1  16
TORSDOF 6
ENDMDL
MODEL 7
REMARK VINA RESULT:      -8.5      4.528      7.950
REMARK  Name = 
REMARK  6 active torsions:
REMARK  status: ('A' for Active; 'I' for Inactive)
REMARK    1  A    between atoms: C_2  and  C_3
REMARK    2  A    between atoms: C_3  and  N_4
REMARK    3  A    between atoms: C_5  and  C_6
REMARK    4  A    between atoms: N_19  and  C_20
REMARK    5  A    between atoms: C_20  and  C_21
REMARK    6  A    between atoms: C_21  and  C_22
REMARK                            x       y       z     vdW  Elec       q    Type
REMARK                         _______ _______ _______ _____ _____    ______ ____
ROOT
ATOM      1  N   UNL     1       4.220   5.137  18.014  0.00  0.00    +0.000 N 
ATOM      2  C   UNL     1       3.659   3.865  18.224  0.00  0.00    +0.000 A 
ATOM      3  C   UNL     1       4.137   3.072  17.190  0.00  0.00    +0.000 A 
ATOM      4  C   UNL     1       4.963   3.840  16.339  0.00  0.00    +0.000 A 
ATOM      5  C   UNL     1       5.704   3.541  15.175  0.00  0.00    +0.000 A 
ATOM      6  C   UNL     1       6.439   4.542  14.538  0.00  0.00    +0.000 A 
ATOM      7  C   UNL     1       6.400   5.842  15.013  0.00  0.00    +0.000 A 
ATOM      8  C   UNL     1       5.633   6.165  16.134  0.00  0.00    +0.000 A 
ATOM      9  C   UNL     1       4.953   5.148  16.830  0.00  0.00    +0.000 A 
ENDROOT
BRANCH   2  10
ATOM     10  C   UNL     1       2.800   3.431  19.357  0.00  0.00    +0.000 A 
ATOM     11  C   UNL     1       1.402   3.541  19.353  0.00  0.00    +0.000 A 
ATOM     12  C   UNL     1       0.632   3.205  20.471  0.00  0.00    +0.000 A 
ATOM     13  C   UNL     1       1.240   2.676  21.602  0.00  0.00    +0.000 A 
ATOM     14  C   UNL     1       2.616   2.476  21.606  0.00  0.00    +0.000 A 
ATOM     15  C   UNL     1       3.386   2.859  20.500  0.00  0.00    +0.000 A 
ENDBRANCH   2  10
BRANCH   1  16
ATOM     16  C   UNL     1       4.066   6.247  18.961  0.00  0.00    +0.000 C 
BRANCH  16  18
ATOM     17  O   UNL     1       2.252   7.319  17.837  0.00  0.00    +0.000 OA
ATOM     18  C   UNL     1       2.813   7.084  18.905  0.00  0.00    +0.000 C 
ATOM     19  N   UNL     1       2.322   7.528  20.118  0.00  0.00    +0.000 N 
ATOM     20  H   UNL     1       2.984   7.566  20.887  0.00  0.00    +0.000 HD
BRANCH  19  21
ATOM     21  C   UNL     1       1.230   8.492  20.143  0.00  0.00    +0.000 C 
BRANCH  21  22
ATOM     22  C   UNL     1       0.453   8.469  21.461  0.00  0.00    +0.000 C 
BRANCH  22  23
ATOM     23  C   UNL     1      -0.237   9.773  21.732  0.00  0.00    +0.000 A 
ATOM     24  C   UNL     1      -0.545  10.668  20.707  0.00  0.00    +0.000 A 
ATOM     25  C   UNL     1      -1.189  11.868  21.010  0.00  0.00    +0.000 A 
ATOM     26  C   UNL     1      -1.491  12.128  22.336  0.00  0.00    +0.000 A 
ATOM     27  N   UNL     1      -1.198  11.294  23.354  0.00  0.00    +0.000 NA
ATOM     28  C   UNL     1      -0.580  10.138  23.032  0.00  0.00    +0.000 A 
ENDBRANCH  22  23
ENDBRANCH  21  22
ENDBRANCH  19  21
ENDBRANCH  16  18
ENDBRANCH   1  16
TORSDOF 6
ENDMDL
MODEL 8
REMARK VINA RESULT:      -8.5      4.522      7.936
REMARK  Name = 
REMARK  6 active torsions:
REMARK  status: ('A' for Active; 'I' for Inactive)
REMARK    1  A    between atoms: C_2  and  C_3
REMARK    2  A    between atoms: C_3  and  N_4
REMARK    3  A    between atoms: C_5  and  C_6
REMARK    4  A    between atoms: N_19  and  C_20
REMARK    5  A    between atoms: C_20  and  C_21
REMARK    6  A    between atoms: C_21  and  C_22
REMARK                            x       y       z     vdW  Elec       q    Type
REMARK                         _______ _______ _______ _____ _____    ______ ____
ROOT
ATOM      1  N   UNL     1       4.312   5.158  17.971  0.00  0.00    +0.000 N 
ATOM      2  C   UNL     1       3.729   3.903  18.216  0.00  0.00    +0.000 A 
ATOM      3  C   UNL     1       4.163   3.082  17.184  0.00  0.00    +0.000 A 
ATOM      4  C   UNL     1       4.984   3.817  16.300  0.00  0.00    +0.000 A 
ATOM      5  C   UNL     1       5.688   3.483  15.124  0.00  0.00    +0.000 A 
ATOM      6  C   UNL     1       6.430   4.456  14.452  0.00  0.00    +0.000 A 
ATOM      7  C   UNL     1       6.431   5.764  14.906  0.00  0.00    +0.000 A 
ATOM      8  C   UNL     1       5.700   6.122  16.040  0.00  0.00    +0.000 A 
ATOM      9  C   UNL     1       5.016   5.133  16.770  0.00  0.00    +0.000 A 
ENDROOT
BRANCH   2  10
ATOM     10  C   UNL     1       2.889   3.507  19.378  0.00  0.00    +0.000 A 
ATOM     11  C   UNL     1       3.414   2.990  20.570  0.00  0.00    +0.000 A 
ATOM     12  C   UNL     1       2.588   2.547  21.609  0.00  0.00    +0.000 A 
ATOM     13  C   UNL     1       1.210   2.680  21.508  0.00  0.00    +0.000 A 
ATOM     14  C   UNL     1       0.663   3.266  20.373  0.00  0.00    +0.000 A 
ATOM     15  C   UNL     1       1.493   3.666  19.317  0.00  0.00    +0.000 A 
ENDBRANCH   2  10
BRANCH   1  16
ATOM     16  C   UNL     1       4.207   6.287  18.902  0.00  0.00    +0.000 C 
BRANCH  16  18
ATOM     17  O   UNL     1       2.287   7.432  18.064  0.00  0.00    +0.000 OA
ATOM     18  C   UNL     1       2.883   6.993  19.045  0.00  0.00    +0.000 C 
ATOM     19  N   UNL     1       2.371   7.077  20.325  0.00  0.00    +0.000 N 
ATOM     20  H   UNL     1       3.038   6.984  21.085  0.00  0.00    +0.000 HD
BRANCH  19  21
ATOM     21  C   UNL     1       1.196   7.901  20.579  0.00  0.00    +0.000 C 
BRANCH  21  22
ATOM     22  C   UNL     1       1.312   8.711  21.872  0.00  0.00    +0.000 C 
BRANCH  22  23
ATOM     23  C   UNL     1       0.305   9.821  21.935  0.00  0.00    +0.000 A 
ATOM     24  C   UNL     1      -0.453  10.061  23.082  0.00  0.00    +0.000 A 
ATOM     25  C   UNL     1      -1.376  11.106  23.091  0.00  0.00    +0.000 A 
ATOM     26  C   UNL     1      -1.511  11.868  21.942  0.00  0.00    +0.000 A 
ATOM     27  N   UNL     1      -0.806  11.657  20.811  0.00  0.00    +0.000 NA
ATOM     28  C   UNL     1       0.084  10.643  20.832  0.00  0.00    +0.000 A 
ENDBRANCH  22  23
ENDBRANCH  21  22
ENDBRANCH  19  21
ENDBRANCH  16  18
ENDBRANCH   1  16
TORSDOF 6
ENDMDL
MODEL 9
REMARK VINA RESULT:      -8.5      4.726      7.984
REMARK  Name = 
REMARK  6 active torsions:
REMARK  status: ('A' for Active; 'I' for Inactive)
REMARK    1  A    between atoms: C_2  and  C_3
REMARK    2  A    between atoms: C_3  and  N_4
REMARK    3  A    between atoms: C_5  and  C_6
REMARK    4  A    between atoms: N_19  and  C_20
REMARK    5  A    between atoms: C_20  and  C_21
REMARK    6  A    between atoms: C_21  and  C_22
REMARK                            x       y       z     vdW  Elec       q    Type
REMARK                         _______ _______ _______ _____ _____    ______ ____
ROOT
ATOM      1  N   UNL     1       4.222   5.953  18.156  0.00  0.00    +0.000 N 
ATOM      2  C   UNL     1       4.133   4.767  18.906  0.00  0.00    +0.000 A 
ATOM      3  C   UNL     1       5.422   4.514  19.356  0.00  0.00    +0.000 A 
ATOM      4  C   UNL     1       6.302   5.511  18.878  0.00  0.00    +0.000 A 
ATOM      5  C   UNL     1       7.683   5.747  19.041  0.00  0.00    +0.000 A 
ATOM      6  C   UNL     1       8.283   6.844  18.423  0.00  0.00    +0.000 A 
ATOM      7  C   UNL     1       7.537   7.673  17.602  0.00  0.00    +0.000 A 
ATOM      8  C   UNL     1       6.179   7.426  17.390  0.00  0.00    +0.000 A 
ATOM      9  C   UNL     1       5.548   6.369  18.074  0.00  0.00    +0.000 A 
ENDROOT
BRANCH   2  10
ATOM     10  C   UNL     1       2.908   3.987  19.223  0.00  0.00    +0.000 A 
ATOM     11  C   UNL     1       2.302   3.100  18.322  0.00  0.00    +0.000 A 
ATOM     12  C   UNL     1       1.101   2.449  18.622  0.00  0.00    +0.000 A 
ATOM     13  C   UNL     1       0.512   2.613  19.869  0.00  0.00    +0.000 A 
ATOM     14  C   UNL     1       1.133   3.421  20.815  0.00  0.00    +0.000 A 
ATOM     15  C   UNL     1       2.312   4.106  20.491  0.00  0.00    +0.000 A 
ENDBRANCH   2  10
BRANCH   1  16
ATOM     16  C   UNL     1       3.050   6.640  17.602  0.00  0.00    +0.000 C 
BRANCH  16  18
ATOM     17  O   UNL     1       2.201   7.662  19.586  0.00  0.00    +0.000 OA
ATOM     18  C   UNL     1       2.431   7.771  18.384  0.00  0.00    +0.000 C 
ATOM     19  N   UNL     1       2.182   8.934  17.680  0.00  0.00    +0.000 N 
ATOM     20  H   UNL     1       2.101   8.844  16.673  0.00  0.00    +0.000 HD
BRANCH  19  21
ATOM     21  C   UNL     1       1.418  10.005  18.307  0.00  0.00    +0.000 C 
BRANCH  21  22
ATOM     22  C   UNL     1      -0.083   9.903  18.024  0.00  0.00    +0.000 C 
BRANCH  22  23
ATOM     23  C   UNL     1      -0.889  10.781  18.933  0.00  0.00    +0.000 A 
ATOM     24  C   UNL     1      -2.093  11.354  18.522  0.00  0.00    +0.000 A 
ATOM     25  C   UNL     1      -2.808  12.163  19.406  0.00  0.00    +0.000 A 
ATOM     26  C   UNL     1      -2.281  12.374  20.669  0.00  0.00    +0.000 A 
ATOM     27  N   UNL     1      -1.115  11.848  21.097  0.00  0.00    +0.000 NA
ATOM     28  C   UNL     1      -0.447  11.065  20.223  0.00  0.00    +0.000 A 
ENDBRANCH  22  23
ENDBRANCH  21  22
ENDBRANCH  19  21
ENDBRANCH  16  18
ENDBRANCH   1  16
TORSDOF 6
ENDMDL
