MODEL 1
REMARK VINA RESULT:      -9.0      0.000      0.000
REMARK  Name = 
REMARK  5 active torsions:
REMARK  status: ('A' for Active; 'I' for Inactive)
REMARK    1  A    between atoms: C_1  and  C_2
REMARK    2  A    between atoms: C_4  and  C_5
REMARK    3  A    between atoms: C_5  and  N_6
REMARK    4  A    between atoms: C_5  and  C_19
REMARK    5  A    between atoms: N_9  and  C_10
REMARK                            x       y       z     vdW  Elec       q    Type
REMARK                         _______ _______ _______ _____ _____    ______ ____
ROOT
ATOM      1  N   UNL     1       2.959   6.897  18.220  0.00  0.00    +0.000 N 
ATOM      2  C   UNL     1       2.265   7.928  18.795  0.00  0.00    +0.000 C 
ATOM      3  O   UNL     1       2.077   7.967  20.006  0.00  0.00    +0.000 OA
ATOM      4  N   UNL     1       1.801   8.849  17.876  0.00  0.00    +0.000 N 
ATOM      5  H   UNL     1       3.508   7.083  17.393  0.00  0.00    +0.000 HD
ATOM      6  H   UNL     1       1.737   8.518  16.927  0.00  0.00    +0.000 HD
ENDROOT
BRANCH   4   7
ATOM      7  C   UNL     1       1.078  10.023  18.211  0.00  0.00    +0.000 A 
ATOM      8  C   UNL     1      -0.329  10.040  18.282  0.00  0.00    +0.000 A 
ATOM      9  C   UNL     1      -1.038  11.220  18.515  0.00  0.00    +0.000 A 
ATOM     10  C   UNL     1      -0.317  12.373  18.709  0.00  0.00    +0.000 A 
ATOM     11  C   UNL     1       1.069  12.381  18.689  0.00  0.00    +0.000 A 
ATOM     12  C   UNL     1       1.788  11.213  18.453  0.00  0.00    +0.000 A 
ATOM     13  C   UNL     1       1.531  13.783  18.824  0.00  0.00    +0.000 C 
ATOM     14  C   UNL     1       0.228  14.428  19.307  0.00  0.00    +0.000 C 
ATOM     15  O   UNL     1      -0.885  13.604  18.902  0.00  0.00    +0.000 OA
ENDBRANCH   4   7
BRANCH   1  16
ATOM     16  C   UNL     1       3.516   5.872  19.102  0.00  0.00    +0.000 C 
BRANCH  16  20
ATOM     17  C   UNL     1       7.124   4.582  15.915  0.00  0.00    +0.000 C 
ATOM     18  C   UNL     1       6.280   4.782  17.114  0.00  0.00    +0.000 A 
ATOM     19  N   UNL     1       5.195   5.512  17.238  0.00  0.00    +0.000 NA
ATOM     20  C   UNL     1       4.811   5.318  18.549  0.00  0.00    +0.000 A 
ATOM     21  N   UNL     1       5.596   4.455  19.225  0.00  0.00    +0.000 NA
ATOM     22  N   UNL     1       6.535   4.172  18.307  0.00  0.00    +0.000 N 
ATOM     23  H   UNL     1       7.293   3.542  18.547  0.00  0.00    +0.000 HD
ENDBRANCH  16  20
BRANCH  16  24
ATOM     24  C   UNL     1       2.557   4.706  19.299  0.00  0.00    +0.000 A 
ATOM     25  C   UNL     1       2.083   4.419  20.593  0.00  0.00    +0.000 A 
ATOM     26  C   UNL     1       1.170   3.384  20.816  0.00  0.00    +0.000 A 
ATOM     27  C   UNL     1       0.706   2.624  19.747  0.00  0.00    +0.000 A 
ATOM     28  C   UNL     1       1.149   2.903  18.455  0.00  0.00    +0.000 A 
ATOM     29  C   UNL     1       2.062   3.939  18.231  0.00  0.00    +0.000 A 
ENDBRANCH  16  24
ENDBRANCH   1  16
TORSDOF 4
ENDMDL
MODEL 2
REMARK VINA RESULT:      -8.9      5.547      6.968
REMARK  Name = 
REMARK  5 active torsions:
REMARK  status: ('A' for Active; 'I' for Inactive)
REMARK    1  A    between atoms: C_1  and  C_2
REMARK    2  A    between atoms: C_4  and  C_5
REMARK    3  A    between atoms: C_5  and  N_6
REMARK    4  A    between atoms: C_5  and  C_19
REMARK    5  A    between atoms: N_9  and  C_10
REMARK                            x       y       z     vdW  Elec       q    Type
REMARK                         _______ _______ _______ _____ _____    ______ ____
ROOT
ATOM      1  N   UNL     1       7.128   7.318  17.028  0.00  0.00    +0.000 N 
ATOM      2  C   UNL     1       7.960   7.941  17.919  0.00  0.00    +0.000 C 
ATOM      3  O   UNL     1       8.371   7.356  18.916  0.00  0.00    +0.000 OA
ATOM      4  N   UNL     1       8.232   9.253  17.584  0.00  0.00    +0.000 N 
ATOM      5  H   UNL     1       7.185   7.572  16.052  0.00  0.00    +0.000 HD
ATOM      6  H   UNL     1       7.575   9.682  16.952  0.00  0.00    +0.000 HD
ENDROOT
BRANCH   4   7
ATOM      7  C   UNL     1       9.087  10.110  18.324  0.00  0.00    +0.000 A 
ATOM      8  C   UNL     1       9.023  10.198  19.729  0.00  0.00    +0.000 A 
ATOM      9  C   UNL     1       9.798  11.114  20.443  0.00  0.00    +0.000 A 
ATOM     10  C   UNL     1      10.658  11.915  19.733  0.00  0.00    +0.000 A 
ATOM     11  C   UNL     1      10.775  11.823  18.355  0.00  0.00    +0.000 A 
ATOM     12  C   UNL     1      10.005  10.917  17.630  0.00  0.00    +0.000 A 
ATOM     13  C   UNL     1      11.699  12.885  17.891  0.00  0.00    +0.000 C 
ATOM     14  C   UNL     1      12.333  13.266  19.233  0.00  0.00    +0.000 C 
ATOM     15  O   UNL     1      11.440  12.886  20.301  0.00  0.00    +0.000 OA
ENDBRANCH   4   7
BRANCH   1  16
ATOM     16  C   UNL     1       6.788   5.917  17.273  0.00  0.00    +0.000 C 
BRANCH  16  20
ATOM     17  C   UNL     1       7.441   4.673  12.491  0.00  0.00    +0.000 C 
ATOM     18  C   UNL     1       7.102   4.685  13.932  0.00  0.00    +0.000 A 
ATOM     19  N   UNL     1       7.391   5.597  14.832  0.00  0.00    +0.000 NA
ATOM     20  C   UNL     1       6.819   5.114  15.991  0.00  0.00    +0.000 A 
ATOM     21  N   UNL     1       6.144   3.958  15.825  0.00  0.00    +0.000 NA
ATOM     22  N   UNL     1       6.380   3.694  14.529  0.00  0.00    +0.000 N 
ATOM     23  H   UNL     1       6.001   2.849  14.114  0.00  0.00    +0.000 HD
ENDBRANCH  16  20
BRANCH  16  24
ATOM     24  C   UNL     1       5.404   5.764  17.887  0.00  0.00    +0.000 A 
ATOM     25  C   UNL     1       5.241   4.937  19.015  0.00  0.00    +0.000 A 
ATOM     26  C   UNL     1       3.997   4.798  19.636  0.00  0.00    +0.000 A 
ATOM     27  C   UNL     1       2.894   5.492  19.147  0.00  0.00    +0.000 A 
ATOM     28  C   UNL     1       3.037   6.329  18.042  0.00  0.00    +0.000 A 
ATOM     29  C   UNL     1       4.282   6.470  17.420  0.00  0.00    +0.000 A 
ENDBRANCH  16  24
ENDBRANCH   1  16
TORSDOF 4
ENDMDL
MODEL 3
REMARK VINA RESULT:      -8.9      0.871      1.732
REMARK  Name = 
REMARK  5 active torsions:
REMARK  status: ('A' for Active; 'I' for Inactive)
REMARK    1  A    between atoms: C_1  and  C_2
REMARK    2  A    between atoms: C_4  and  C_5
REMARK    3  A    between atoms: C_5  and  N_6
REMARK    4  A    between atoms: C_5  and  C_19
REMARK    5  A    between atoms: N_9  and  C_10
REMARK                            x       y       z     vdW  Elec       q    Type
REMARK                         _______ _______ _______ _____ _____    ______ ____
ROOT
ATOM      1  N   UNL     1       3.173   6.978  18.250  0.00  0.00    +0.000 N 
ATOM      2  C   UNL     1       2.239   7.822  18.790  0.00  0.00    +0.000 C 
ATOM      3  O   UNL     1       1.852   7.682  19.945  0.00  0.00    +0.000 OA
ATOM      4  N   UNL     1       1.790   8.776  17.898  0.00  0.00    +0.000 N 
ATOM      5  H   UNL     1       3.812   7.341  17.559  0.00  0.00    +0.000 HD
ATOM      6  H   UNL     1       1.935   8.561  16.925  0.00  0.00    +0.000 HD
ENDROOT
BRANCH   4   7
ATOM      7  C   UNL     1       0.844   9.787  18.212  0.00  0.00    +0.000 A 
ATOM      8  C   UNL     1       1.196  10.938  18.944  0.00  0.00    +0.000 A 
ATOM      9  C   UNL     1       0.242  11.880  19.334  0.00  0.00    +0.000 A 
ATOM     10  C   UNL     1      -1.060  11.667  18.954  0.00  0.00    +0.000 A 
ATOM     11  C   UNL     1      -1.431  10.567  18.198  0.00  0.00    +0.000 A 
ATOM     12  C   UNL     1      -0.491   9.618  17.806  0.00  0.00    +0.000 A 
ATOM     13  C   UNL     1      -2.906  10.577  18.049  0.00  0.00    +0.000 C 
ATOM     14  C   UNL     1      -3.190  12.017  18.485  0.00  0.00    +0.000 C 
ATOM     15  O   UNL     1      -2.101  12.485  19.308  0.00  0.00    +0.000 OA
ENDBRANCH   4   7
BRANCH   1  16
ATOM     16  C   UNL     1       3.735   5.939  19.113  0.00  0.00    +0.000 C 
BRANCH  16  20
ATOM     17  C   UNL     1       7.157   4.462  15.804  0.00  0.00    +0.000 C 
ATOM     18  C   UNL     1       6.386   4.739  17.036  0.00  0.00    +0.000 A 
ATOM     19  N   UNL     1       5.300   5.464  17.176  0.00  0.00    +0.000 NA
ATOM     20  C   UNL     1       5.001   5.361  18.519  0.00  0.00    +0.000 A 
ATOM     21  N   UNL     1       5.840   4.558  19.204  0.00  0.00    +0.000 NA
ATOM     22  N   UNL     1       6.724   4.219  18.251  0.00  0.00    +0.000 N 
ATOM     23  H   UNL     1       7.506   3.617  18.486  0.00  0.00    +0.000 HD
ENDBRANCH  16  20
BRANCH  16  24
ATOM     24  C   UNL     1       2.759   4.792  19.335  0.00  0.00    +0.000 A 
ATOM     25  C   UNL     1       2.425   4.421  20.651  0.00  0.00    +0.000 A 
ATOM     26  C   UNL     1       1.503   3.401  20.903  0.00  0.00    +0.000 A 
ATOM     27  C   UNL     1       0.889   2.741  19.843  0.00  0.00    +0.000 A 
ATOM     28  C   UNL     1       1.192   3.104  18.532  0.00  0.00    +0.000 A 
ATOM     29  C   UNL     1       2.114   4.126  18.279  0.00  0.00    +0.000 A 
ENDBRANCH  16  24
ENDBRANCH   1  16
TORSDOF 4
ENDMDL
MODEL 4
REMARK VINA RESULT:      -8.7      5.597      6.984
REMARK  Name = 
REMARK  5 active torsions:
REMARK  status: ('A' for Active; 'I' for Inactive)
REMARK    1  A    between atoms: C_1  and  C_2
REMARK    2  A    between atoms: C_4  and  C_5
REMARK    3  A    between atoms: C_5  and  N_6
REMARK    4  A    between atoms: C_5  and  C_19
REMARK    5  A    between atoms: N_9  and  C_10
REMARK                            x       y       z     vdW  Elec       q    Type
REMARK                         _______ _______ _______ _____ _____    ______ ____
ROOT
ATOM      1  N   UNL     1       6.878   7.525  17.077  0.00  0.00    +0.000 N 
ATOM      2  C   UNL     1       7.862   8.065  17.861  0.00  0.00    +0.000 C 
ATOM      3  O   UNL     1       8.550   7.358  18.590  0.00  0.00    +0.000 OA
ATOM      4  N   UNL     1       7.947   9.439  17.756  0.00  0.00    +0.000 N 
ATOM      5  H   UNL     1       6.670   7.962  16.190  0.00  0.00    +0.000 HD
ATOM      6  H   UNL     1       7.124   9.898  17.398  0.00  0.00    +0.000 HD
ENDROOT
BRANCH   4   7
ATOM      7  C   UNL     1       8.899  10.239  18.441  0.00  0.00    +0.000 A 
ATOM      8  C   UNL     1       8.967  10.279  19.848  0.00  0.00    +0.000 A 
ATOM      9  C   UNL     1       9.838  11.142  20.517  0.00  0.00    +0.000 A 
ATOM     10  C   UNL     1      10.660  11.937  19.756  0.00  0.00    +0.000 A 
ATOM     11  C   UNL     1      10.648  11.889  18.371  0.00  0.00    +0.000 A 
ATOM     12  C   UNL     1       9.781  11.037  17.692  0.00  0.00    +0.000 A 
ATOM     13  C   UNL     1      11.566  12.933  17.859  0.00  0.00    +0.000 C 
ATOM     14  C   UNL     1      12.333  13.244  19.147  0.00  0.00    +0.000 C 
ATOM     15  O   UNL     1      11.528  12.858  20.281  0.00  0.00    +0.000 OA
ENDBRANCH   4   7
BRANCH   1  16
ATOM     16  C   UNL     1       6.710   6.072  17.093  0.00  0.00    +0.000 C 
BRANCH  16  20
ATOM     17  C   UNL     1       5.429   3.407  13.081  0.00  0.00    +0.000 C 
ATOM     18  C   UNL     1       6.098   4.310  14.043  0.00  0.00    +0.000 A 
ATOM     19  N   UNL     1       5.684   4.695  15.229  0.00  0.00    +0.000 NA
ATOM     20  C   UNL     1       6.700   5.507  15.690  0.00  0.00    +0.000 A 
ATOM     21  N   UNL     1       7.750   5.597  14.848  0.00  0.00    +0.000 NA
ATOM     22  N   UNL     1       7.319   4.869  13.804  0.00  0.00    +0.000 N 
ATOM     23  H   UNL     1       7.911   4.772  12.985  0.00  0.00    +0.000 HD
ENDBRANCH  16  20
BRANCH  16  24
ATOM     24  C   UNL     1       5.413   5.655  17.773  0.00  0.00    +0.000 A 
ATOM     25  C   UNL     1       4.257   6.435  17.581  0.00  0.00    +0.000 A 
ATOM     26  C   UNL     1       3.035   6.069  18.151  0.00  0.00    +0.000 A 
ATOM     27  C   UNL     1       2.943   4.909  18.915  0.00  0.00    +0.000 A 
ATOM     28  C   UNL     1       4.072   4.113  19.103  0.00  0.00    +0.000 A 
ATOM     29  C   UNL     1       5.296   4.478  18.531  0.00  0.00    +0.000 A 
ENDBRANCH  16  24
ENDBRANCH   1  16
TORSDOF 4
ENDMDL
MODEL 5
REMARK VINA RESULT:      -8.5      0.571      1.684
REMARK  Name = 
REMARK  5 active torsions:
REMARK  status: ('A' for Active; 'I' for Inactive)
REMARK    1  A    between atoms: C_1  and  C_2
REMARK    2  A    between atoms: C_4  and  C_5
REMARK    3  A    between atoms: C_5  and  N_6
REMARK    4  A    between atoms: C_5  and  C_19
REMARK    5  A    between atoms: N_9  and  C_10
REMARK                            x       y       z     vdW  Elec       q    Type
REMARK                         _______ _______ _______ _____ _____    ______ ____
ROOT
ATOM      1  N   UNL     1       2.923   6.902  18.254  0.00  0.00    +0.000 N 
ATOM      2  C   UNL     1       2.314   7.979  18.842  0.00  0.00    +0.000 C 
ATOM      3  O   UNL     1       2.171   8.038  20.058  0.00  0.00    +0.000 OA
ATOM      4  N   UNL     1       1.876   8.919  17.930  0.00  0.00    +0.000 N 
ATOM      5  H   UNL     1       3.454   7.047  17.407  0.00  0.00    +0.000 HD
ATOM      6  H   UNL     1       1.759   8.585  16.987  0.00  0.00    +0.000 HD
ENDROOT
BRANCH   4   7
ATOM      7  C   UNL     1       1.239  10.139  18.278  0.00  0.00    +0.000 A 
ATOM      8  C   UNL     1       1.943  11.358  18.339  0.00  0.00    +0.000 A 
ATOM      9  C   UNL     1       1.333  12.536  18.777  0.00  0.00    +0.000 A 
ATOM     10  C   UNL     1       0.005  12.480  19.121  0.00  0.00    +0.000 A 
ATOM     11  C   UNL     1      -0.725  11.305  19.030  0.00  0.00    +0.000 A 
ATOM     12  C   UNL     1      -0.129  10.123  18.600  0.00  0.00    +0.000 A 
ATOM     13  C   UNL     1      -2.083  11.556  19.569  0.00  0.00    +0.000 C 
ATOM     14  C   UNL     1      -2.070  13.087  19.575  0.00  0.00    +0.000 C 
ATOM     15  O   UNL     1      -0.702  13.547  19.608  0.00  0.00    +0.000 OA
ENDBRANCH   4   7
BRANCH   1  16
ATOM     16  C   UNL     1       3.446   5.851  19.127  0.00  0.00    +0.000 C 
BRANCH  16  20
ATOM     17  C   UNL     1       7.026   4.498  15.934  0.00  0.00    +0.000 C 
ATOM     18  C   UNL     1       6.181   4.703  17.132  0.00  0.00    +0.000 A 
ATOM     19  N   UNL     1       5.123   5.470  17.265  0.00  0.00    +0.000 NA
ATOM     20  C   UNL     1       4.723   5.262  18.569  0.00  0.00    +0.000 A 
ATOM     21  N   UNL     1       5.470   4.354  19.230  0.00  0.00    +0.000 NA
ATOM     22  N   UNL     1       6.404   4.056  18.312  0.00  0.00    +0.000 N 
ATOM     23  H   UNL     1       7.136   3.393  18.542  0.00  0.00    +0.000 HD
ENDBRANCH  16  20
BRANCH  16  24
ATOM     24  C   UNL     1       2.450   4.715  19.312  0.00  0.00    +0.000 A 
ATOM     25  C   UNL     1       2.045   3.968  18.189  0.00  0.00    +0.000 A 
ATOM     26  C   UNL     1       1.165   2.891  18.317  0.00  0.00    +0.000 A 
ATOM     27  C   UNL     1       0.681   2.532  19.571  0.00  0.00    +0.000 A 
ATOM     28  C   UNL     1       1.082   3.247  20.698  0.00  0.00    +0.000 A 
ATOM     29  C   UNL     1       1.965   4.326  20.572  0.00  0.00    +0.000 A 
ENDBRANCH  16  24
ENDBRANCH   1  16
TORSDOF 4
ENDMDL
MODEL 6
REMARK VINA RESULT:      -8.3      0.883      1.181
REMARK  Name = 
REMARK  5 active torsions:
REMARK  status: ('A' for Active; 'I' for Inactive)
REMARK    1  A    between atoms: C_1  and  C_2
REMARK    2  A    between atoms: C_4  and  C_5
REMARK    3  A    between atoms: C_5  and  N_6
REMARK    4  A    between atoms: C_5  and  C_19
REMARK    5  A    between atoms: N_9  and  C_10
REMARK                            x       y       z     vdW  Elec       q    Type
REMARK                         _______ _______ _______ _____ _____    ______ ____
ROOT
ATOM      1  N   UNL     1       2.426   7.422  18.087  0.00  0.00    +0.000 N 
ATOM      2  C   UNL     1       1.813   8.391  18.835  0.00  0.00    +0.000 C 
ATOM      3  O   UNL     1       1.869   8.374  20.061  0.00  0.00    +0.000 OA
ATOM      4  N   UNL     1       1.131   9.318  18.071  0.00  0.00    +0.000 N 
ATOM      5  H   UNL     1       2.789   7.669  17.177  0.00  0.00    +0.000 HD
ATOM      6  H   UNL     1       0.895   9.019  17.139  0.00  0.00    +0.000 HD
ENDROOT
BRANCH   4   7
ATOM      7  C   UNL     1       0.435  10.437  18.598  0.00  0.00    +0.000 A 
ATOM      8  C   UNL     1      -0.938  10.384  18.910  0.00  0.00    +0.000 A 
ATOM      9  C   UNL     1      -1.639  11.514  19.335  0.00  0.00    +0.000 A 
ATOM     10  C   UNL     1      -0.938  12.687  19.474  0.00  0.00    +0.000 A 
ATOM     11  C   UNL     1       0.423  12.761  19.216  0.00  0.00    +0.000 A 
ATOM     12  C   UNL     1       1.132  11.643  18.788  0.00  0.00    +0.000 A 
ATOM     13  C   UNL     1       0.849  14.174  19.358  0.00  0.00    +0.000 C 
ATOM     14  C   UNL     1      -0.372  14.730  20.096  0.00  0.00    +0.000 C 
ATOM     15  O   UNL     1      -1.508  13.878  19.838  0.00  0.00    +0.000 OA
ENDBRANCH   4   7
BRANCH   1  16
ATOM     16  C   UNL     1       3.196   6.398  18.792  0.00  0.00    +0.000 C 
BRANCH  16  20
ATOM     17  C   UNL     1       7.695   4.580  17.655  0.00  0.00    +0.000 C 
ATOM     18  C   UNL     1       6.364   5.225  17.622  0.00  0.00    +0.000 A 
ATOM     19  N   UNL     1       5.440   5.243  18.555  0.00  0.00    +0.000 NA
ATOM     20  C   UNL     1       4.425   5.999  18.005  0.00  0.00    +0.000 A 
ATOM     21  N   UNL     1       4.712   6.488  16.781  0.00  0.00    +0.000 NA
ATOM     22  N   UNL     1       5.920   5.946  16.553  0.00  0.00    +0.000 N 
ATOM     23  H   UNL     1       6.390   6.129  15.673  0.00  0.00    +0.000 HD
ENDBRANCH  16  20
BRANCH  16  24
ATOM     24  C   UNL     1       2.376   5.141  19.045  0.00  0.00    +0.000 A 
ATOM     25  C   UNL     1       1.930   4.864  20.352  0.00  0.00    +0.000 A 
ATOM     26  C   UNL     1       1.141   3.744  20.624  0.00  0.00    +0.000 A 
ATOM     27  C   UNL     1       0.772   2.885  19.593  0.00  0.00    +0.000 A 
ATOM     28  C   UNL     1       1.187   3.150  18.290  0.00  0.00    +0.000 A 
ATOM     29  C   UNL     1       1.977   4.272  18.015  0.00  0.00    +0.000 A 
ENDBRANCH  16  24
ENDBRANCH   1  16
TORSDOF 4
ENDMDL
MODEL 7
REMARK VINA RESULT:      -8.3      1.540      1.973
REMARK  Name = 
REMARK  5 active torsions:
REMARK  status: ('A' for Active; 'I' for Inactive)
REMARK    1  A    between atoms: C_1  and  C_2
REMARK    2  A    between atoms: C_4  and  C_5
REMARK    3  A    between atoms: C_5  and  N_6
REMARK    4  A    between atoms: C_5  and  C_19
REMARK    5  A    between atoms: N_9  and  C_10
REMARK                            x       y       z     vdW  Elec       q    Type
REMARK                         _______ _______ _______ _____ _____    ______ ____
ROOT
ATOM      1  N   UNL     1       3.015   6.952  18.923  0.00  0.00    +0.000 N 
ATOM      2  C   UNL     1       2.032   7.650  19.574  0.00  0.00    +0.000 C 
ATOM      3  O   UNL     1       1.588   7.263  20.650  0.00  0.00    +0.000 OA
ATOM      4  N   UNL     1       1.606   8.763  18.877  0.00  0.00    +0.000 N 
ATOM      5  H   UNL     1       3.681   7.462  18.361  0.00  0.00    +0.000 HD
ATOM      6  H   UNL     1       1.808   8.760  17.890  0.00  0.00    +0.000 HD
ENDROOT
BRANCH   4   7
ATOM      7  C   UNL     1       0.618   9.671  19.342  0.00  0.00    +0.000 A 
ATOM      8  C   UNL     1      -0.220  10.380  18.458  0.00  0.00    +0.000 A 
ATOM      9  C   UNL     1      -1.122  11.343  18.915  0.00  0.00    +0.000 A 
ATOM     10  C   UNL     1      -1.194  11.560  20.269  0.00  0.00    +0.000 A 
ATOM     11  C   UNL     1      -0.414  10.848  21.167  0.00  0.00    +0.000 A 
ATOM     12  C   UNL     1       0.492   9.889  20.724  0.00  0.00    +0.000 A 
ATOM     13  C   UNL     1      -0.653  11.390  22.526  0.00  0.00    +0.000 C 
ATOM     14  C   UNL     1      -1.930  12.190  22.254  0.00  0.00    +0.000 C 
ATOM     15  O   UNL     1      -1.999  12.505  20.848  0.00  0.00    +0.000 OA
ENDBRANCH   4   7
BRANCH   1  16
ATOM     16  C   UNL     1       3.558   5.763  19.580  0.00  0.00    +0.000 C 
BRANCH  16  20
ATOM     17  C   UNL     1       7.004   4.955  16.070  0.00  0.00    +0.000 C 
ATOM     18  C   UNL     1       6.210   4.964  17.318  0.00  0.00    +0.000 A 
ATOM     19  N   UNL     1       5.157   5.691  17.613  0.00  0.00    +0.000 NA
ATOM     20  C   UNL     1       4.813   5.279  18.885  0.00  0.00    +0.000 A 
ATOM     21  N   UNL     1       5.589   4.287  19.365  0.00  0.00    +0.000 NA
ATOM     22  N   UNL     1       6.484   4.144  18.373  0.00  0.00    +0.000 N 
ATOM     23  H   UNL     1       7.228   3.460  18.467  0.00  0.00    +0.000 HD
ENDBRANCH  16  20
BRANCH  16  24
ATOM     24  C   UNL     1       2.561   4.614  19.594  0.00  0.00    +0.000 A 
ATOM     25  C   UNL     1       2.024   4.155  18.375  0.00  0.00    +0.000 A 
ATOM     26  C   UNL     1       1.137   3.077  18.337  0.00  0.00    +0.000 A 
ATOM     27  C   UNL     1       0.777   2.429  19.514  0.00  0.00    +0.000 A 
ATOM     28  C   UNL     1       1.310   2.854  20.730  0.00  0.00    +0.000 A 
ATOM     29  C   UNL     1       2.200   3.934  20.770  0.00  0.00    +0.000 A 
ENDBRANCH  16  24
ENDBRANCH   1  16
TORSDOF 4
ENDMDL
MODEL 8
REMARK VINA RESULT:      -8.1      1.532      1.811
REMARK  Name = 
REMARK  5 active torsions:
REMARK  status: ('A' for Active; 'I' for Inactive)
REMARK    1  A    between atoms: C_1  and  C_2
REMARK    2  A    between atoms: C_4  and  C_5
REMARK    3  A    between atoms: C_5  and  N_6
REMARK    4  A    between atoms: C_5  and  C_19
REMARK    5  A    between atoms: N_9  and  C_10
REMARK                            x       y       z     vdW  Elec       q    Type
REMARK                         _______ _______ _______ _____ _____    ______ ____
ROOT
ATOM      1  N   UNL     1       2.908   6.781  18.759  0.00  0.00    +0.000 N 
ATOM      2  C   UNL     1       2.214   7.680  19.525  0.00  0.00    +0.000 C 
ATOM      3  O   UNL     1       2.069   7.506  20.730  0.00  0.00    +0.000 OA
ATOM      4  N   UNL     1       1.697   8.731  18.793  0.00  0.00    +0.000 N 
ATOM      5  H   UNL     1       3.422   7.121  17.960  0.00  0.00    +0.000 HD
ATOM      6  H   UNL     1       1.605   8.565  17.804  0.00  0.00    +0.000 HD
ENDROOT
BRANCH   4   7
ATOM      7  C   UNL     1       0.962   9.811  19.348  0.00  0.00    +0.000 A 
ATOM      8  C   UNL     1       0.854  11.055  18.696  0.00  0.00    +0.000 A 
ATOM      9  C   UNL     1       0.213  12.144  19.292  0.00  0.00    +0.000 A 
ATOM     10  C   UNL     1      -0.344  11.957  20.533  0.00  0.00    +0.000 A 
ATOM     11  C   UNL     1      -0.293  10.732  21.182  0.00  0.00    +0.000 A 
ATOM     12  C   UNL     1       0.347   9.641  20.601  0.00  0.00    +0.000 A 
ATOM     13  C   UNL     1      -0.888  10.892  22.530  0.00  0.00    +0.000 C 
ATOM     14  C   UNL     1      -1.595  12.236  22.332  0.00  0.00    +0.000 C 
ATOM     15  O   UNL     1      -0.961  12.948  21.249  0.00  0.00    +0.000 OA
ENDBRANCH   4   7
BRANCH   1  16
ATOM     16  C   UNL     1       3.518   5.636  19.434  0.00  0.00    +0.000 C 
BRANCH  16  20
ATOM     17  C   UNL     1       6.887   4.816  15.854  0.00  0.00    +0.000 C 
ATOM     18  C   UNL     1       6.140   4.861  17.130  0.00  0.00    +0.000 A 
ATOM     19  N   UNL     1       5.047   5.533  17.415  0.00  0.00    +0.000 NA
ATOM     20  C   UNL     1       4.779   5.191  18.725  0.00  0.00    +0.000 A 
ATOM     21  N   UNL     1       5.642   4.294  19.242  0.00  0.00    +0.000 NA
ATOM     22  N   UNL     1       6.510   4.141  18.228  0.00  0.00    +0.000 N 
ATOM     23  H   UNL     1       7.303   3.519  18.339  0.00  0.00    +0.000 HD
ENDBRANCH  16  20
BRANCH  16  24
ATOM     24  C   UNL     1       2.575   4.443  19.500  0.00  0.00    +0.000 A 
ATOM     25  C   UNL     1       2.166   3.961  20.758  0.00  0.00    +0.000 A 
ATOM     26  C   UNL     1       1.269   2.895  20.867  0.00  0.00    +0.000 A 
ATOM     27  C   UNL     1       0.757   2.297  19.720  0.00  0.00    +0.000 A 
ATOM     28  C   UNL     1       1.135   2.770  18.465  0.00  0.00    +0.000 A 
ATOM     29  C   UNL     1       2.032   3.838  18.354  0.00  0.00    +0.000 A 
ENDBRANCH  16  24
ENDBRANCH   1  16
TORSDOF 4
ENDMDL
MODEL 9
REMARK VINA RESULT:      -8.1      1.679      3.717
REMARK  Name = 
REMARK  5 active torsions:
REMARK  status: ('A' for Active; 'I' for Inactive)
REMARK    1  A    between atoms: C_1  and  C_2
REMARK    2  A    between atoms: C_4  and  C_5
REMARK    3  A    between atoms: C_5  and  N_6
REMARK    4  A    between atoms: C_5  and  C_19
REMARK    5  A    between atoms: N_9  and  C_10
REMARK                            x       y       z     vdW  Elec       q    Type
REMARK                         _______ _______ _______ _____ _____    ______ ____
ROOT
ATOM      1  N   UNL     1       2.695   7.065  18.745  0.00  0.00    +0.000 N 
ATOM      2  C   UNL     1       2.190   8.272  18.339  0.00  0.00    +0.000 C 
ATOM      3  O   UNL     1       2.353   8.672  17.191  0.00  0.00    +0.000 OA
ATOM      4  N   UNL     1       1.541   8.955  19.348  0.00  0.00    +0.000 N 
ATOM      5  H   UNL     1       2.194   6.541  19.447  0.00  0.00    +0.000 HD
ATOM      6  H   UNL     1       1.779   8.671  20.285  0.00  0.00    +0.000 HD
ENDROOT
BRANCH   4   7
ATOM      7  C   UNL     1       0.906  10.214  19.185  0.00  0.00    +0.000 A 
ATOM      8  C   UNL     1      -0.480  10.327  18.954  0.00  0.00    +0.000 A 
ATOM      9  C   UNL     1      -1.083  11.560  18.697  0.00  0.00    +0.000 A 
ATOM     10  C   UNL     1      -0.284  12.677  18.707  0.00  0.00    +0.000 A 
ATOM     11  C   UNL     1       1.074  12.604  18.974  0.00  0.00    +0.000 A 
ATOM     12  C   UNL     1       1.688  11.381  19.228  0.00  0.00    +0.000 A 
ATOM     13  C   UNL     1       1.657  13.956  18.806  0.00  0.00    +0.000 C 
ATOM     14  C   UNL     1       0.369  14.785  18.808  0.00  0.00    +0.000 C 
ATOM     15  O   UNL     1      -0.736  13.940  18.426  0.00  0.00    +0.000 OA
ENDBRANCH   4   7
BRANCH   1  16
ATOM     16  C   UNL     1       3.386   6.244  17.751  0.00  0.00    +0.000 C 
BRANCH  16  20
ATOM     17  C   UNL     1       0.737   2.185  18.910  0.00  0.00    +0.000 C 
ATOM     18  C   UNL     1       1.681   3.151  18.307  0.00  0.00    +0.000 A 
ATOM     19  N   UNL     1       1.775   4.444  18.520  0.00  0.00    +0.000 NA
ATOM     20  C   UNL     1       2.831   4.837  17.722  0.00  0.00    +0.000 A 
ATOM     21  N   UNL     1       3.422   3.821  17.061  0.00  0.00    +0.000 NA
ATOM     22  N   UNL     1       2.647   2.783  17.418  0.00  0.00    +0.000 N 
ATOM     23  H   UNL     1       2.847   1.860  17.046  0.00  0.00    +0.000 HD
ENDBRANCH  16  20
BRANCH  16  24
ATOM     24  C   UNL     1       4.880   6.149  18.028  0.00  0.00    +0.000 A 
ATOM     25  C   UNL     1       5.779   6.828  17.182  0.00  0.00    +0.000 A 
ATOM     26  C   UNL     1       7.155   6.804  17.422  0.00  0.00    +0.000 A 
ATOM     27  C   UNL     1       7.659   6.108  18.517  0.00  0.00    +0.000 A 
ATOM     28  C   UNL     1       6.786   5.444  19.376  0.00  0.00    +0.000 A 
ATOM     29  C   UNL     1       5.407   5.469  19.138  0.00  0.00    +0.000 A 
ENDBRANCH  16  24
ENDBRANCH   1  16
TORSDOF 4
ENDMDL
