MODEL 1
REMARK VINA RESULT:      -9.0      0.000      0.000
REMARK  Name = 
REMARK  4 active torsions:
REMARK  status: ('A' for Active; 'I' for Inactive)
REMARK    1  A    between atoms: C_2  and  C_3
REMARK    2  A    between atoms: C_3  and  N_4
REMARK    3  A    between atoms: N_14  and  C_15
REMARK    4  A    between atoms: C_18  and  C_19
REMARK                            x       y       z     vdW  Elec       q    Type
REMARK                         _______ _______ _______ _____ _____    ______ ____
ROOT
ATOM      1  O   UNL     1       1.261   4.907  20.484  0.00  0.00    +0.000 OA
ATOM      2  C   UNL     1       2.388   5.116  20.068  0.00  0.00    +0.000 C 
ATOM      3  N   UNL     1       2.864   6.361  19.698  0.00  0.00    +0.000 N 
ATOM      4  H   UNL     1       3.821   6.412  19.357  0.00  0.00    +0.000 HD
ENDROOT
BRANCH   3   5
ATOM      5  C   UNL     1       2.129   7.573  19.708  0.00  0.00    +0.000 A 
ATOM      6  C   UNL     1       1.533   8.111  20.849  0.00  0.00    +0.000 A 
ATOM      7  C   UNL     1       0.791   9.293  20.790  0.00  0.00    +0.000 A 
ATOM      8  C   UNL     1       0.641   9.991  19.588  0.00  0.00    +0.000 A 
ATOM      9  C   UNL     1       1.298   9.495  18.460  0.00  0.00    +0.000 A 
ATOM     10  C   UNL     1       2.023   8.294  18.512  0.00  0.00    +0.000 A 
BRANCH   8  11
ATOM     11  C   UNL     1      -0.110  11.246  19.605  0.00  0.00    +0.000 A 
ATOM     12  N   UNL     1      -1.431  11.318  19.581  0.00  0.00    +0.000 NA
ATOM     13  N   UNL     1      -1.812  12.633  19.540  0.00  0.00    +0.000 NA
ATOM     14  C   UNL     1      -0.720  13.359  19.524  0.00  0.00    +0.000 A 
ATOM     15  N   UNL     1       0.376  12.532  19.580  0.00  0.00    +0.000 N 
ATOM     16  C   UNL     1       1.736  13.007  19.441  0.00  0.00    +0.000 C 
ATOM     17  C   UNL     1       1.863  14.516  19.678  0.00  0.00    +0.000 C 
ATOM     18  C   UNL     1       0.754  15.280  18.953  0.00  0.00    +0.000 C 
ATOM     19  C   UNL     1      -0.616  14.838  19.465  0.00  0.00    +0.000 C 
ENDBRANCH   8  11
ENDBRANCH   3   5
BRANCH   2  20
ATOM     20  C   UNL     1       3.447   3.986  20.025  0.00  0.00    +0.000 C 
BRANCH  20  21
ATOM     21  N   UNL     1       4.284   4.020  18.838  0.00  0.00    +0.000 N 
ATOM     22  C   UNL     1       3.736   3.888  17.495  0.00  0.00    +0.000 C 
ATOM     23  C   UNL     1       4.922   4.170  16.633  0.00  0.00    +0.000 A 
ATOM     24  C   UNL     1       5.046   4.117  15.257  0.00  0.00    +0.000 A 
ATOM     25  C   UNL     1       6.295   4.412  14.700  0.00  0.00    +0.000 A 
ATOM     26  C   UNL     1       7.390   4.759  15.515  0.00  0.00    +0.000 A 
ATOM     27  C   UNL     1       7.247   4.842  16.901  0.00  0.00    +0.000 A 
ATOM     28  C   UNL     1       6.002   4.554  17.426  0.00  0.00    +0.000 A 
ATOM     29  C   UNL     1       5.554   4.567  18.823  0.00  0.00    +0.000 C 
ATOM     30  O   UNL     1       6.196   5.001  19.763  0.00  0.00    +0.000 OA
ENDBRANCH  20  21
ENDBRANCH   2  20
TORSDOF 4
ENDMDL
MODEL 2
REMARK VINA RESULT:      -9.0      3.323     10.331
REMARK  Name = 
REMARK  4 active torsions:
REMARK  status: ('A' for Active; 'I' for Inactive)
REMARK    1  A    between atoms: C_2  and  C_3
REMARK    2  A    between atoms: C_3  and  N_4
REMARK    3  A    between atoms: N_14  and  C_15
REMARK    4  A    between atoms: C_18  and  C_19
REMARK                            x       y       z     vdW  Elec       q    Type
REMARK                         _______ _______ _______ _____ _____    ______ ____
ROOT
ATOM      1  O   UNL     1      -1.757  10.072  18.581  0.00  0.00    +0.000 OA
ATOM      2  C   UNL     1      -1.010  10.952  18.973  0.00  0.00    +0.000 C 
ATOM      3  N   UNL     1       0.338  10.776  19.228  0.00  0.00    +0.000 N 
ATOM      4  H   UNL     1       0.860  11.582  19.560  0.00  0.00    +0.000 HD
ENDROOT
BRANCH   3   5
ATOM      5  C   UNL     1       1.058   9.559  19.109  0.00  0.00    +0.000 A 
ATOM      6  C   UNL     1       1.253   8.665  20.162  0.00  0.00    +0.000 A 
ATOM      7  C   UNL     1       2.001   7.498  19.992  0.00  0.00    +0.000 A 
ATOM      8  C   UNL     1       2.559   7.174  18.753  0.00  0.00    +0.000 A 
ATOM      9  C   UNL     1       2.305   8.029  17.678  0.00  0.00    +0.000 A 
ATOM     10  C   UNL     1       1.574   9.215  17.853  0.00  0.00    +0.000 A 
BRANCH   8  11
ATOM     11  C   UNL     1       3.292   5.914  18.632  0.00  0.00    +0.000 A 
ATOM     12  N   UNL     1       4.596   5.834  18.418  0.00  0.00    +0.000 NA
ATOM     13  N   UNL     1       4.954   4.518  18.291  0.00  0.00    +0.000 NA
ATOM     14  C   UNL     1       3.863   3.800  18.413  0.00  0.00    +0.000 A 
ATOM     15  N   UNL     1       2.795   4.632  18.644  0.00  0.00    +0.000 N 
ATOM     16  C   UNL     1       1.425   4.170  18.688  0.00  0.00    +0.000 C 
ATOM     17  C   UNL     1       1.317   2.656  18.903  0.00  0.00    +0.000 C 
ATOM     18  C   UNL     1       2.303   1.904  18.010  0.00  0.00    +0.000 C 
ATOM     19  C   UNL     1       3.737   2.324  18.332  0.00  0.00    +0.000 C 
ENDBRANCH   8  11
ENDBRANCH   3   5
BRANCH   2  20
ATOM     20  C   UNL     1      -1.502  12.414  19.116  0.00  0.00    +0.000 C 
BRANCH  20  21
ATOM     21  N   UNL     1      -2.350  12.631  20.276  0.00  0.00    +0.000 N 
ATOM     22  C   UNL     1      -3.792  12.796  20.168  0.00  0.00    +0.000 C 
ATOM     23  C   UNL     1      -4.225  12.796  21.597  0.00  0.00    +0.000 A 
ATOM     24  C   UNL     1      -5.482  12.997  22.138  0.00  0.00    +0.000 A 
ATOM     25  C   UNL     1      -5.607  12.966  23.531  0.00  0.00    +0.000 A 
ATOM     26  C   UNL     1      -4.490  12.730  24.356  0.00  0.00    +0.000 A 
ATOM     27  C   UNL     1      -3.232  12.496  23.800  0.00  0.00    +0.000 A 
ATOM     28  C   UNL     1      -3.136  12.523  22.422  0.00  0.00    +0.000 A 
ATOM     29  C   UNL     1      -1.965  12.306  21.565  0.00  0.00    +0.000 C 
ATOM     30  O   UNL     1      -0.882  11.897  21.944  0.00  0.00    +0.000 OA
ENDBRANCH  20  21
ENDBRANCH   2  20
TORSDOF 4
ENDMDL
MODEL 3
REMARK VINA RESULT:      -8.9      3.174     10.245
REMARK  Name = 
REMARK  4 active torsions:
REMARK  status: ('A' for Active; 'I' for Inactive)
REMARK    1  A    between atoms: C_2  and  C_3
REMARK    2  A    between atoms: C_3  and  N_4
REMARK    3  A    between atoms: N_14  and  C_15
REMARK    4  A    between atoms: C_18  and  C_19
REMARK                            x       y       z     vdW  Elec       q    Type
REMARK                         _______ _______ _______ _____ _____    ______ ____
ROOT
ATOM      1  O   UNL     1      -1.268  10.252  17.854  0.00  0.00    +0.000 OA
ATOM      2  C   UNL     1      -0.675  11.037  18.573  0.00  0.00    +0.000 C 
ATOM      3  N   UNL     1       0.517  10.757  19.218  0.00  0.00    +0.000 N 
ATOM      4  H   UNL     1       0.916  11.489  19.800  0.00  0.00    +0.000 HD
ENDROOT
BRANCH   3   5
ATOM      5  C   UNL     1       1.218   9.525  19.179  0.00  0.00    +0.000 A 
ATOM      6  C   UNL     1       1.953   9.083  18.080  0.00  0.00    +0.000 A 
ATOM      7  C   UNL     1       2.595   7.842  18.088  0.00  0.00    +0.000 A 
ATOM      8  C   UNL     1       2.543   7.012  19.211  0.00  0.00    +0.000 A 
ATOM      9  C   UNL     1       1.870   7.483  20.340  0.00  0.00    +0.000 A 
ATOM     10  C   UNL     1       1.203   8.718  20.325  0.00  0.00    +0.000 A 
BRANCH   8  11
ATOM     11  C   UNL     1       3.275   5.747  19.171  0.00  0.00    +0.000 A 
ATOM     12  N   UNL     1       4.586   5.645  19.322  0.00  0.00    +0.000 NA
ATOM     13  N   UNL     1       4.960   4.338  19.165  0.00  0.00    +0.000 NA
ATOM     14  C   UNL     1       3.877   3.647  18.903  0.00  0.00    +0.000 A 
ATOM     15  N   UNL     1       2.790   4.487  18.911  0.00  0.00    +0.000 N 
ATOM     16  C   UNL     1       1.461   4.067  18.523  0.00  0.00    +0.000 C 
ATOM     17  C   UNL     1       1.291   2.544  18.543  0.00  0.00    +0.000 C 
ATOM     18  C   UNL     1       2.486   1.851  17.888  0.00  0.00    +0.000 C 
ATOM     19  C   UNL     1       3.773   2.191  18.639  0.00  0.00    +0.000 C 
ENDBRANCH   8  11
ENDBRANCH   3   5
BRANCH   2  20
ATOM     20  C   UNL     1      -1.164  12.498  18.738  0.00  0.00    +0.000 C 
BRANCH  20  21
ATOM     21  N   UNL     1      -2.016  12.697  19.898  0.00  0.00    +0.000 N 
ATOM     22  C   UNL     1      -3.469  12.644  19.816  0.00  0.00    +0.000 C 
ATOM     23  C   UNL     1      -3.876  12.713  21.251  0.00  0.00    +0.000 A 
ATOM     24  C   UNL     1      -5.140  12.783  21.807  0.00  0.00    +0.000 A 
ATOM     25  C   UNL     1      -5.238  12.862  23.201  0.00  0.00    +0.000 A 
ATOM     26  C   UNL     1      -4.087  12.863  24.011  0.00  0.00    +0.000 A 
ATOM     27  C   UNL     1      -2.816  12.760  23.443  0.00  0.00    +0.000 A 
ATOM     28  C   UNL     1      -2.746  12.675  22.065  0.00  0.00    +0.000 A 
ATOM     29  C   UNL     1      -1.569  12.548  21.199  0.00  0.00    +0.000 C 
ATOM     30  O   UNL     1      -0.433  12.334  21.582  0.00  0.00    +0.000 OA
ENDBRANCH  20  21
ENDBRANCH   2  20
TORSDOF 4
ENDMDL
MODEL 4
REMARK VINA RESULT:      -8.8      3.510     10.564
REMARK  Name = 
REMARK  4 active torsions:
REMARK  status: ('A' for Active; 'I' for Inactive)
REMARK    1  A    between atoms: C_2  and  C_3
REMARK    2  A    between atoms: C_3  and  N_4
REMARK    3  A    between atoms: N_14  and  C_15
REMARK    4  A    between atoms: C_18  and  C_19
REMARK                            x       y       z     vdW  Elec       q    Type
REMARK                         _______ _______ _______ _____ _____    ______ ____
ROOT
ATOM      1  O   UNL     1      -1.320   9.924  17.515  0.00  0.00    +0.000 OA
ATOM      2  C   UNL     1      -0.872  10.729  18.313  0.00  0.00    +0.000 C 
ATOM      3  N   UNL     1       0.255  10.516  19.087  0.00  0.00    +0.000 N 
ATOM      4  H   UNL     1       0.531  11.259  19.725  0.00  0.00    +0.000 HD
ENDROOT
BRANCH   3   5
ATOM      5  C   UNL     1       1.045   9.339  19.106  0.00  0.00    +0.000 A 
ATOM      6  C   UNL     1       1.769   8.870  18.009  0.00  0.00    +0.000 A 
ATOM      7  C   UNL     1       2.502   7.684  18.078  0.00  0.00    +0.000 A 
ATOM      8  C   UNL     1       2.555   6.937  19.259  0.00  0.00    +0.000 A 
ATOM      9  C   UNL     1       1.893   7.441  20.379  0.00  0.00    +0.000 A 
ATOM     10  C   UNL     1       1.135   8.620  20.305  0.00  0.00    +0.000 A 
BRANCH   8  11
ATOM     11  C   UNL     1       3.379   5.729  19.276  0.00  0.00    +0.000 A 
ATOM     12  N   UNL     1       4.702   5.735  19.302  0.00  0.00    +0.000 NA
ATOM     13  N   UNL     1       5.162   4.447  19.247  0.00  0.00    +0.000 NA
ATOM     14  C   UNL     1       4.118   3.658  19.171  0.00  0.00    +0.000 A 
ATOM     15  N   UNL     1       2.973   4.417  19.202  0.00  0.00    +0.000 N 
ATOM     16  C   UNL     1       1.650   3.867  18.998  0.00  0.00    +0.000 C 
ATOM     17  C   UNL     1       1.605   2.347  19.195  0.00  0.00    +0.000 C 
ATOM     18  C   UNL     1       2.784   1.669  18.498  0.00  0.00    +0.000 C 
ATOM     19  C   UNL     1       4.105   2.178  19.073  0.00  0.00    +0.000 C 
ENDBRANCH   8  11
ENDBRANCH   3   5
BRANCH   2  20
ATOM     20  C   UNL     1      -1.483  12.146  18.449  0.00  0.00    +0.000 C 
BRANCH  20  21
ATOM     21  N   UNL     1      -2.689  12.183  19.258  0.00  0.00    +0.000 N 
ATOM     22  C   UNL     1      -2.737  12.839  20.558  0.00  0.00    +0.000 C 
ATOM     23  C   UNL     1      -4.189  12.778  20.897  0.00  0.00    +0.000 A 
ATOM     24  C   UNL     1      -4.843  13.171  22.050  0.00  0.00    +0.000 A 
ATOM     25  C   UNL     1      -6.227  12.980  22.116  0.00  0.00    +0.000 A 
ATOM     26  C   UNL     1      -6.933  12.410  21.039  0.00  0.00    +0.000 A 
ATOM     27  C   UNL     1      -6.270  12.045  19.866  0.00  0.00    +0.000 A 
ATOM     28  C   UNL     1      -4.905  12.253  19.823  0.00  0.00    +0.000 A 
ATOM     29  C   UNL     1      -3.955  11.982  18.737  0.00  0.00    +0.000 C 
ATOM     30  O   UNL     1      -4.258  11.663  17.601  0.00  0.00    +0.000 OA
ENDBRANCH  20  21
ENDBRANCH   2  20
TORSDOF 4
ENDMDL
MODEL 5
REMARK VINA RESULT:      -8.7      3.238     10.008
REMARK  Name = 
REMARK  4 active torsions:
REMARK  status: ('A' for Active; 'I' for Inactive)
REMARK    1  A    between atoms: C_2  and  C_3
REMARK    2  A    between atoms: C_3  and  N_4
REMARK    3  A    between atoms: N_14  and  C_15
REMARK    4  A    between atoms: C_18  and  C_19
REMARK                            x       y       z     vdW  Elec       q    Type
REMARK                         _______ _______ _______ _____ _____    ______ ____
ROOT
ATOM      1  O   UNL     1       1.260  11.657  21.189  0.00  0.00    +0.000 OA
ATOM      2  C   UNL     1       0.523  11.701  20.220  0.00  0.00    +0.000 C 
ATOM      3  N   UNL     1       0.392  10.683  19.292  0.00  0.00    +0.000 N 
ATOM      4  H   UNL     1      -0.249  10.836  18.518  0.00  0.00    +0.000 HD
ENDROOT
BRANCH   3   5
ATOM      5  C   UNL     1       1.102   9.456  19.294  0.00  0.00    +0.000 A 
ATOM      6  C   UNL     1       1.147   8.586  20.383  0.00  0.00    +0.000 A 
ATOM      7  C   UNL     1       1.893   7.405  20.338  0.00  0.00    +0.000 A 
ATOM      8  C   UNL     1       2.599   7.044  19.188  0.00  0.00    +0.000 A 
ATOM      9  C   UNL     1       2.497   7.874  18.070  0.00  0.00    +0.000 A 
ATOM     10  C   UNL     1       1.769   9.073  18.123  0.00  0.00    +0.000 A 
BRANCH   8  11
ATOM     11  C   UNL     1       3.322   5.772  19.191  0.00  0.00    +0.000 A 
ATOM     12  N   UNL     1       4.626   5.662  19.391  0.00  0.00    +0.000 NA
ATOM     13  N   UNL     1       4.994   4.349  19.265  0.00  0.00    +0.000 NA
ATOM     14  C   UNL     1       3.915   3.664  18.973  0.00  0.00    +0.000 A 
ATOM     15  N   UNL     1       2.836   4.512  18.931  0.00  0.00    +0.000 N 
ATOM     16  C   UNL     1       1.518   4.099  18.500  0.00  0.00    +0.000 C 
ATOM     17  C   UNL     1       1.334   2.577  18.534  0.00  0.00    +0.000 C 
ATOM     18  C   UNL     1       2.546   1.866  17.933  0.00  0.00    +0.000 C 
ATOM     19  C   UNL     1       3.808   2.205  18.725  0.00  0.00    +0.000 C 
ENDBRANCH   8  11
ENDBRANCH   3   5
BRANCH   2  20
ATOM     20  C   UNL     1      -0.442  12.894  20.001  0.00  0.00    +0.000 C 
BRANCH  20  21
ATOM     21  N   UNL     1      -1.830  12.495  19.840  0.00  0.00    +0.000 N 
ATOM     22  C   UNL     1      -2.875  12.918  20.762  0.00  0.00    +0.000 C 
ATOM     23  C   UNL     1      -4.115  12.431  20.090  0.00  0.00    +0.000 A 
ATOM     24  C   UNL     1      -5.427  12.466  20.526  0.00  0.00    +0.000 A 
ATOM     25  C   UNL     1      -6.408  11.913  19.696  0.00  0.00    +0.000 A 
ATOM     26  C   UNL     1      -6.070  11.343  18.453  0.00  0.00    +0.000 A 
ATOM     27  C   UNL     1      -4.748  11.340  18.007  0.00  0.00    +0.000 A 
ATOM     28  C   UNL     1      -3.800  11.900  18.841  0.00  0.00    +0.000 A 
ATOM     29  C   UNL     1      -2.354  12.049  18.640  0.00  0.00    +0.000 C 
ATOM     30  O   UNL     1      -1.763  11.833  17.597  0.00  0.00    +0.000 OA
ENDBRANCH  20  21
ENDBRANCH   2  20
TORSDOF 4
ENDMDL
MODEL 6
REMARK VINA RESULT:      -8.7      3.514     10.459
REMARK  Name = 
REMARK  4 active torsions:
REMARK  status: ('A' for Active; 'I' for Inactive)
REMARK    1  A    between atoms: C_2  and  C_3
REMARK    2  A    between atoms: C_3  and  N_4
REMARK    3  A    between atoms: N_14  and  C_15
REMARK    4  A    between atoms: C_18  and  C_19
REMARK                            x       y       z     vdW  Elec       q    Type
REMARK                         _______ _______ _______ _____ _____    ______ ____
ROOT
ATOM      1  O   UNL     1      -1.464  10.565  19.327  0.00  0.00    +0.000 OA
ATOM      2  C   UNL     1      -0.587  11.279  19.780  0.00  0.00    +0.000 C 
ATOM      3  N   UNL     1       0.750  10.929  19.844  0.00  0.00    +0.000 N 
ATOM      4  H   UNL     1       1.392  11.605  20.251  0.00  0.00    +0.000 HD
ENDROOT
BRANCH   3   5
ATOM      5  C   UNL     1       1.310   9.693  19.433  0.00  0.00    +0.000 A 
ATOM      6  C   UNL     1       1.800   9.450  18.149  0.00  0.00    +0.000 A 
ATOM      7  C   UNL     1       2.309   8.199  17.792  0.00  0.00    +0.000 A 
ATOM      8  C   UNL     1       2.367   7.154  18.719  0.00  0.00    +0.000 A 
ATOM      9  C   UNL     1       1.946   7.415  20.025  0.00  0.00    +0.000 A 
ATOM     10  C   UNL     1       1.411   8.664  20.378  0.00  0.00    +0.000 A 
BRANCH   8  11
ATOM     11  C   UNL     1       2.954   5.884  18.293  0.00  0.00    +0.000 A 
ATOM     12  N   UNL     1       3.962   5.783  17.442  0.00  0.00    +0.000 NA
ATOM     13  N   UNL     1       4.225   4.460  17.207  0.00  0.00    +0.000 NA
ATOM     14  C   UNL     1       3.366   3.757  17.904  0.00  0.00    +0.000 A 
ATOM     15  N   UNL     1       2.556   4.608  18.616  0.00  0.00    +0.000 N 
ATOM     16  C   UNL     1       1.412   4.160  19.381  0.00  0.00    +0.000 C 
ATOM     17  C   UNL     1       1.456   2.659  19.687  0.00  0.00    +0.000 C 
ATOM     18  C   UNL     1       1.853   1.858  18.448  0.00  0.00    +0.000 C 
ATOM     19  C   UNL     1       3.241   2.280  17.966  0.00  0.00    +0.000 C 
ENDBRANCH   8  11
ENDBRANCH   3   5
BRANCH   2  20
ATOM     20  C   UNL     1      -0.890  12.730  20.232  0.00  0.00    +0.000 C 
BRANCH  20  21
ATOM     21  N   UNL     1      -2.020  12.831  21.139  0.00  0.00    +0.000 N 
ATOM     22  C   UNL     1      -3.392  12.955  20.666  0.00  0.00    +0.000 C 
ATOM     23  C   UNL     1      -4.182  12.834  21.926  0.00  0.00    +0.000 A 
ATOM     24  C   UNL     1      -5.544  12.953  22.129  0.00  0.00    +0.000 A 
ATOM     25  C   UNL     1      -6.026  12.812  23.435  0.00  0.00    +0.000 A 
ATOM     26  C   UNL     1      -5.153  12.552  24.507  0.00  0.00    +0.000 A 
ATOM     27  C   UNL     1      -3.782  12.402  24.289  0.00  0.00    +0.000 A 
ATOM     28  C   UNL     1      -3.332  12.536  22.990  0.00  0.00    +0.000 A 
ATOM     29  C   UNL     1      -1.968  12.422  22.460  0.00  0.00    +0.000 C 
ATOM     30  O   UNL     1      -1.002  12.022  23.085  0.00  0.00    +0.000 OA
ENDBRANCH  20  21
ENDBRANCH   2  20
TORSDOF 4
ENDMDL
MODEL 7
REMARK VINA RESULT:      -8.7      2.164      3.019
REMARK  Name = 
REMARK  4 active torsions:
REMARK  status: ('A' for Active; 'I' for Inactive)
REMARK    1  A    between atoms: C_2  and  C_3
REMARK    2  A    between atoms: C_3  and  N_4
REMARK    3  A    between atoms: N_14  and  C_15
REMARK    4  A    between atoms: C_18  and  C_19
REMARK                            x       y       z     vdW  Elec       q    Type
REMARK                         _______ _______ _______ _____ _____    ______ ____
ROOT
ATOM      1  O   UNL     1       3.042   4.551  17.777  0.00  0.00    +0.000 OA
ATOM      2  C   UNL     1       4.117   5.112  17.894  0.00  0.00    +0.000 C 
ATOM      3  N   UNL     1       4.270   6.441  18.248  0.00  0.00    +0.000 N 
ATOM      4  H   UNL     1       5.218   6.803  18.306  0.00  0.00    +0.000 HD
ENDROOT
BRANCH   3   5
ATOM      5  C   UNL     1       3.222   7.363  18.499  0.00  0.00    +0.000 A 
ATOM      6  C   UNL     1       2.844   8.370  17.611  0.00  0.00    +0.000 A 
ATOM      7  C   UNL     1       1.825   9.272  17.928  0.00  0.00    +0.000 A 
ATOM      8  C   UNL     1       1.133   9.179  19.139  0.00  0.00    +0.000 A 
ATOM      9  C   UNL     1       1.458   8.127  19.998  0.00  0.00    +0.000 A 
ATOM     10  C   UNL     1       2.498   7.236  19.691  0.00  0.00    +0.000 A 
BRANCH   8  11
ATOM     11  C   UNL     1       0.047  10.126  19.389  0.00  0.00    +0.000 A 
ATOM     12  N   UNL     1      -0.616  10.761  18.435  0.00  0.00    +0.000 NA
ATOM     13  N   UNL     1      -1.519  11.618  19.005  0.00  0.00    +0.000 NA
ATOM     14  C   UNL     1      -1.393  11.515  20.306  0.00  0.00    +0.000 A 
ATOM     15  N   UNL     1      -0.432  10.578  20.596  0.00  0.00    +0.000 N 
ATOM     16  C   UNL     1       0.048  10.322  21.937  0.00  0.00    +0.000 C 
ATOM     17  C   UNL     1      -0.904  10.847  23.017  0.00  0.00    +0.000 C 
ATOM     18  C   UNL     1      -1.390  12.257  22.681  0.00  0.00    +0.000 C 
ATOM     19  C   UNL     1      -2.142  12.256  21.351  0.00  0.00    +0.000 C 
ENDBRANCH   8  11
ENDBRANCH   3   5
BRANCH   2  20
ATOM     20  C   UNL     1       5.447   4.329  17.759  0.00  0.00    +0.000 C 
BRANCH  20  21
ATOM     21  N   UNL     1       5.956   4.276  16.399  0.00  0.00    +0.000 N 
ATOM     22  C   UNL     1       5.295   3.514  15.349  0.00  0.00    +0.000 C 
ATOM     23  C   UNL     1       6.057   3.915  14.130  0.00  0.00    +0.000 A 
ATOM     24  C   UNL     1       5.945   3.460  12.829  0.00  0.00    +0.000 A 
ATOM     25  C   UNL     1       6.811   3.997  11.871  0.00  0.00    +0.000 A 
ATOM     26  C   UNL     1       7.763   4.975  12.219  0.00  0.00    +0.000 A 
ATOM     27  C   UNL     1       7.847   5.452  13.527  0.00  0.00    +0.000 A 
ATOM     28  C   UNL     1       6.976   4.912  14.453  0.00  0.00    +0.000 A 
ATOM     29  C   UNL     1       6.825   5.219  15.880  0.00  0.00    +0.000 C 
ATOM     30  O   UNL     1       7.362   6.146  16.461  0.00  0.00    +0.000 OA
ENDBRANCH  20  21
ENDBRANCH   2  20
TORSDOF 4
ENDMDL
MODEL 8
REMARK VINA RESULT:      -8.7      1.566      2.203
REMARK  Name = 
REMARK  4 active torsions:
REMARK  status: ('A' for Active; 'I' for Inactive)
REMARK    1  A    between atoms: C_2  and  C_3
REMARK    2  A    between atoms: C_3  and  N_4
REMARK    3  A    between atoms: N_14  and  C_15
REMARK    4  A    between atoms: C_18  and  C_19
REMARK                            x       y       z     vdW  Elec       q    Type
REMARK                         _______ _______ _______ _____ _____    ______ ____
ROOT
ATOM      1  O   UNL     1       1.187   4.405  19.626  0.00  0.00    +0.000 OA
ATOM      2  C   UNL     1       2.377   4.657  19.559  0.00  0.00    +0.000 C 
ATOM      3  N   UNL     1       2.918   5.922  19.709  0.00  0.00    +0.000 N 
ATOM      4  H   UNL     1       3.927   6.012  19.625  0.00  0.00    +0.000 HD
ENDROOT
BRANCH   3   5
ATOM      5  C   UNL     1       2.190   7.119  19.929  0.00  0.00    +0.000 A 
ATOM      6  C   UNL     1       2.059   8.134  18.982  0.00  0.00    +0.000 A 
ATOM      7  C   UNL     1       1.357   9.307  19.269  0.00  0.00    +0.000 A 
ATOM      8  C   UNL     1       0.741   9.492  20.509  0.00  0.00    +0.000 A 
ATOM      9  C   UNL     1       0.807   8.448  21.434  0.00  0.00    +0.000 A 
ATOM     10  C   UNL     1       1.533   7.279  21.156  0.00  0.00    +0.000 A 
BRANCH   8  11
ATOM     11  C   UNL     1      -0.017  10.724  20.728  0.00  0.00    +0.000 A 
ATOM     12  N   UNL     1       0.212  11.567  21.723  0.00  0.00    +0.000 NA
ATOM     13  N   UNL     1      -0.710  12.579  21.680  0.00  0.00    +0.000 NA
ATOM     14  C   UNL     1      -1.509  12.341  20.668  0.00  0.00    +0.000 A 
ATOM     15  N   UNL     1      -1.104  11.195  20.029  0.00  0.00    +0.000 N 
ATOM     16  C   UNL     1      -1.852  10.578  18.955  0.00  0.00    +0.000 C 
ATOM     17  C   UNL     1      -2.860  11.536  18.310  0.00  0.00    +0.000 C 
ATOM     18  C   UNL     1      -3.633  12.315  19.374  0.00  0.00    +0.000 C 
ATOM     19  C   UNL     1      -2.674  13.146  20.226  0.00  0.00    +0.000 C 
ENDBRANCH   8  11
ENDBRANCH   3   5
BRANCH   2  20
ATOM     20  C   UNL     1       3.427   3.527  19.408  0.00  0.00    +0.000 C 
BRANCH  20  21
ATOM     21  N   UNL     1       4.324   3.715  18.281  0.00  0.00    +0.000 N 
ATOM     22  C   UNL     1       3.866   3.649  16.900  0.00  0.00    +0.000 C 
ATOM     23  C   UNL     1       5.073   4.085  16.138  0.00  0.00    +0.000 A 
ATOM     24  C   UNL     1       5.279   4.149  14.772  0.00  0.00    +0.000 A 
ATOM     25  C   UNL     1       6.531   4.579  14.318  0.00  0.00    +0.000 A 
ATOM     26  C   UNL     1       7.547   4.941  15.224  0.00  0.00    +0.000 A 
ATOM     27  C   UNL     1       7.320   4.904  16.600  0.00  0.00    +0.000 A 
ATOM     28  C   UNL     1       6.073   4.484  17.023  0.00  0.00    +0.000 A 
ATOM     29  C   UNL     1       5.547   4.354  18.386  0.00  0.00    +0.000 C 
ATOM     30  O   UNL     1       6.097   4.760  19.394  0.00  0.00    +0.000 OA
ENDBRANCH  20  21
ENDBRANCH   2  20
TORSDOF 4
ENDMDL
MODEL 9
REMARK VINA RESULT:      -8.6      1.438      1.935
REMARK  Name = 
REMARK  4 active torsions:
REMARK  status: ('A' for Active; 'I' for Inactive)
REMARK    1  A    between atoms: C_2  and  C_3
REMARK    2  A    between atoms: C_3  and  N_4
REMARK    3  A    between atoms: N_14  and  C_15
REMARK    4  A    between atoms: C_18  and  C_19
REMARK                            x       y       z     vdW  Elec       q    Type
REMARK                         _______ _______ _______ _____ _____    ______ ____
ROOT
ATOM      1  O   UNL     1       1.361   4.187  20.476  0.00  0.00    +0.000 OA
ATOM      2  C   UNL     1       2.366   4.362  19.811  0.00  0.00    +0.000 C 
ATOM      3  N   UNL     1       2.856   5.604  19.446  0.00  0.00    +0.000 N 
ATOM      4  H   UNL     1       3.701   5.626  18.881  0.00  0.00    +0.000 HD
ENDROOT
BRANCH   3   5
ATOM      5  C   UNL     1       2.265   6.856  19.752  0.00  0.00    +0.000 A 
ATOM      6  C   UNL     1       1.757   7.190  21.008  0.00  0.00    +0.000 A 
ATOM      7  C   UNL     1       1.154   8.429  21.240  0.00  0.00    +0.000 A 
ATOM      8  C   UNL     1       1.064   9.387  20.226  0.00  0.00    +0.000 A 
ATOM      9  C   UNL     1       1.637   9.085  18.989  0.00  0.00    +0.000 A 
ATOM     10  C   UNL     1       2.220   7.831  18.747  0.00  0.00    +0.000 A 
BRANCH   8  11
ATOM     11  C   UNL     1       0.463  10.681  20.549  0.00  0.00    +0.000 A 
ATOM     12  N   UNL     1       0.926  11.501  21.479  0.00  0.00    +0.000 NA
ATOM     13  N   UNL     1       0.101  12.589  21.574  0.00  0.00    +0.000 NA
ATOM     14  C   UNL     1      -0.873  12.422  20.712  0.00  0.00    +0.000 A 
ATOM     15  N   UNL     1      -0.680  11.244  20.033  0.00  0.00    +0.000 N 
ATOM     16  C   UNL     1      -1.648  10.695  19.107  0.00  0.00    +0.000 C 
ATOM     17  C   UNL     1      -2.662  11.737  18.624  0.00  0.00    +0.000 C 
ATOM     18  C   UNL     1      -3.177  12.582  19.789  0.00  0.00    +0.000 C 
ATOM     19  C   UNL     1      -2.021  13.326  20.456  0.00  0.00    +0.000 C 
ENDBRANCH   8  11
ENDBRANCH   3   5
BRANCH   2  20
ATOM     20  C   UNL     1       3.270   3.172  19.399  0.00  0.00    +0.000 C 
BRANCH  20  21
ATOM     21  N   UNL     1       4.174   3.481  18.304  0.00  0.00    +0.000 N 
ATOM     22  C   UNL     1       3.722   3.571  16.922  0.00  0.00    +0.000 C 
ATOM     23  C   UNL     1       4.934   4.084  16.219  0.00  0.00    +0.000 A 
ATOM     24  C   UNL     1       5.147   4.299  14.870  0.00  0.00    +0.000 A 
ATOM     25  C   UNL     1       6.402   4.772  14.472  0.00  0.00    +0.000 A 
ATOM     26  C   UNL     1       7.415   5.027  15.416  0.00  0.00    +0.000 A 
ATOM     27  C   UNL     1       7.181   4.837  16.779  0.00  0.00    +0.000 A 
ATOM     28  C   UNL     1       5.931   4.378  17.147  0.00  0.00    +0.000 A 
ATOM     29  C   UNL     1       5.398   4.099  18.485  0.00  0.00    +0.000 C 
ATOM     30  O   UNL     1       5.945   4.388  19.535  0.00  0.00    +0.000 OA
ENDBRANCH  20  21
ENDBRANCH   2  20
TORSDOF 4
ENDMDL
