MODEL 1
REMARK VINA RESULT:      -8.2      0.000      0.000
REMARK  Name = 
REMARK  9 active torsions:
REMARK  status: ('A' for Active; 'I' for Inactive)
REMARK    1  A    between atoms: C_1  and  C_2
REMARK    2  A    between atoms: C_2  and  C_3
REMARK    3  A    between atoms: C_2  and  C_10
REMARK    4  A    between atoms: C_3  and  C_4
REMARK    5  A    between atoms: N_8  and  C_9
REMARK    6  A    between atoms: C_14  and  N_15
REMARK    7  A    between atoms: C_19  and  C_20
REMARK    8  A    between atoms: C_20  and  O_21
REMARK    9  A    between atoms: C_23  and  C_24
REMARK                            x       y       z     vdW  Elec       q    Type
REMARK                         _______ _______ _______ _____ _____    ______ ____
ROOT
ATOM      1  C   UNL     1       2.390   7.337  19.389  0.00  0.00    +0.000 A 
ATOM      2  C   UNL     1       2.973   7.711  18.167  0.00  0.00    +0.000 A 
ATOM      3  C   UNL     1       2.544   8.840  17.454  0.00  0.00    +0.000 A 
ATOM      4  C   UNL     1       1.507   9.641  17.934  0.00  0.00    +0.000 A 
ATOM      5  C   UNL     1       0.927   9.353  19.156  0.00  0.00    +0.000 A 
ATOM      6  C   UNL     1       1.349   8.161  19.841  0.00  0.00    +0.000 A 
ENDROOT
BRANCH   5   7
ATOM      7  N   UNL     1       0.070  10.226  19.799  0.00  0.00    +0.000 N 
ATOM      8  C   UNL     1      -0.942  11.237  19.331  0.00  0.00    +0.000 C 
ATOM      9  C   UNL     1      -1.351  11.870  20.679  0.00  0.00    +0.000 A 
ATOM     10  C   UNL     1      -2.467  12.582  21.109  0.00  0.00    +0.000 A 
ATOM     11  C   UNL     1      -2.748  12.598  22.497  0.00  0.00    +0.000 A 
ATOM     12  C   UNL     1      -2.077  11.667  23.319  0.00  0.00    +0.000 A 
ATOM     13  C   UNL     1      -0.981  10.957  22.837  0.00  0.00    +0.000 A 
ATOM     14  C   UNL     1      -0.468  11.352  21.624  0.00  0.00    +0.000 A 
ATOM     15  C   UNL     1       0.737  10.831  20.939  0.00  0.00    +0.000 C 
BRANCH  13  16
ATOM     16  C   UNL     1      -0.626   9.577  23.343  0.00  0.00    +0.000 C 
ATOM     17  F   UNL     1      -0.855   8.592  22.431  0.00  0.00    +0.000 F 
ATOM     18  F   UNL     1       0.715   9.499  23.622  0.00  0.00    +0.000 F 
ENDBRANCH  13  16
BRANCH  11  19
ATOM     19  C   UNL     1      -3.864  13.385  23.136  0.00  0.00    +0.000 C 
BRANCH  19  20
ATOM     20  O   UNL     1      -4.965  12.556  23.476  0.00  0.00    +0.000 OA
ATOM     21  H   UNL     1      -4.588  11.752  23.874  0.00  0.00    +0.000 HD
ENDBRANCH  19  20
ENDBRANCH  11  19
ENDBRANCH   5   7
BRANCH   1  23
ATOM     22  C   UNL     1       1.766   5.220  20.699  0.00  0.00    +0.000 C 
ATOM     23  C   UNL     1       2.903   6.064  20.085  0.00  0.00    +0.000 C 
BRANCH  23  24
ATOM     24  C   UNL     1       3.954   5.128  19.394  0.00  0.00    +0.000 C 
BRANCH  24  25
ATOM     25  C   UNL     1       3.413   3.948  18.657  0.00  0.00    +0.000 A 
ATOM     26  N   UNL     1       2.671   3.971  17.567  0.00  0.00    +0.000 NA
ATOM     27  N   UNL     1       2.426   2.674  17.171  0.00  0.00    +0.000 NA
ATOM     28  C   UNL     1       3.028   1.881  18.024  0.00  0.00    +0.000 A 
ATOM     29  N   UNL     1       3.660   2.630  18.973  0.00  0.00    +0.000 N 
ATOM     30  C   UNL     1       4.436   2.099  20.063  0.00  0.00    +0.000 C 
ENDBRANCH  24  25
ENDBRANCH  23  24
ENDBRANCH   1  23
TORSDOF 7
ENDMDL
MODEL 2
REMARK VINA RESULT:      -8.0      1.576      1.989
REMARK  Name = 
REMARK  9 active torsions:
REMARK  status: ('A' for Active; 'I' for Inactive)
REMARK    1  A    between atoms: C_1  and  C_2
REMARK    2  A    between atoms: C_2  and  C_3
REMARK    3  A    between atoms: C_2  and  C_10
REMARK    4  A    between atoms: C_3  and  C_4
REMARK    5  A    between atoms: N_8  and  C_9
REMARK    6  A    between atoms: C_14  and  N_15
REMARK    7  A    between atoms: C_19  and  C_20
REMARK    8  A    between atoms: C_20  and  O_21
REMARK    9  A    between atoms: C_23  and  C_24
REMARK                            x       y       z     vdW  Elec       q    Type
REMARK                         _______ _______ _______ _____ _____    ______ ____
ROOT
ATOM      1  C   UNL     1       2.605   6.922  19.320  0.00  0.00    +0.000 A 
ATOM      2  C   UNL     1       3.251   7.259  18.118  0.00  0.00    +0.000 A 
ATOM      3  C   UNL     1       2.902   8.400  17.382  0.00  0.00    +0.000 A 
ATOM      4  C   UNL     1       1.885   9.252  17.818  0.00  0.00    +0.000 A 
ATOM      5  C   UNL     1       1.246   9.002  19.019  0.00  0.00    +0.000 A 
ATOM      6  C   UNL     1       1.587   7.797  19.727  0.00  0.00    +0.000 A 
ENDROOT
BRANCH   5   7
ATOM      7  N   UNL     1       0.408   9.918  19.624  0.00  0.00    +0.000 N 
ATOM      8  C   UNL     1      -0.571  10.941  19.112  0.00  0.00    +0.000 C 
ATOM      9  C   UNL     1      -0.977  11.628  20.433  0.00  0.00    +0.000 A 
ATOM     10  C   UNL     1      -2.077  12.385  20.827  0.00  0.00    +0.000 A 
ATOM     11  C   UNL     1      -2.371  12.453  22.211  0.00  0.00    +0.000 A 
ATOM     12  C   UNL     1      -1.736  11.531  23.070  0.00  0.00    +0.000 A 
ATOM     13  C   UNL     1      -0.655  10.776  22.624  0.00  0.00    +0.000 A 
ATOM     14  C   UNL     1      -0.118  11.117  21.405  0.00  0.00    +0.000 A 
ATOM     15  C   UNL     1       1.079  10.541  20.751  0.00  0.00    +0.000 C 
BRANCH  13  16
ATOM     16  C   UNL     1      -0.344   9.404  23.178  0.00  0.00    +0.000 C 
ATOM     17  F   UNL     1      -0.664   8.392  22.325  0.00  0.00    +0.000 F 
ATOM     18  F   UNL     1       1.003   9.271  23.400  0.00  0.00    +0.000 F 
ENDBRANCH  13  16
BRANCH  11  19
ATOM     19  C   UNL     1      -3.473  13.292  22.811  0.00  0.00    +0.000 C 
BRANCH  19  20
ATOM     20  O   UNL     1      -4.672  13.200  22.058  0.00  0.00    +0.000 OA
ATOM     21  H   UNL     1      -4.935  12.264  22.075  0.00  0.00    +0.000 HD
ENDBRANCH  19  20
ENDBRANCH  11  19
ENDBRANCH   5   7
BRANCH   1  23
ATOM     22  C   UNL     1       1.916   5.052  20.936  0.00  0.00    +0.000 C 
ATOM     23  C   UNL     1       3.032   5.633  20.043  0.00  0.00    +0.000 C 
BRANCH  23  24
ATOM     24  C   UNL     1       3.764   4.476  19.277  0.00  0.00    +0.000 C 
BRANCH  24  25
ATOM     25  C   UNL     1       5.194   4.712  18.921  0.00  0.00    +0.000 A 
ATOM     26  N   UNL     1       6.154   5.112  19.733  0.00  0.00    +0.000 NA
ATOM     27  N   UNL     1       7.338   5.155  19.030  0.00  0.00    +0.000 NA
ATOM     28  C   UNL     1       7.081   4.776  17.801  0.00  0.00    +0.000 A 
ATOM     29  N   UNL     1       5.754   4.486  17.683  0.00  0.00    +0.000 N 
ATOM     30  C   UNL     1       5.113   4.024  16.480  0.00  0.00    +0.000 C 
ENDBRANCH  24  25
ENDBRANCH  23  24
ENDBRANCH   1  23
TORSDOF 7
ENDMDL
MODEL 3
REMARK VINA RESULT:      -7.8      4.544      9.198
REMARK  Name = 
REMARK  9 active torsions:
REMARK  status: ('A' for Active; 'I' for Inactive)
REMARK    1  A    between atoms: C_1  and  C_2
REMARK    2  A    between atoms: C_2  and  C_3
REMARK    3  A    between atoms: C_2  and  C_10
REMARK    4  A    between atoms: C_3  and  C_4
REMARK    5  A    between atoms: N_8  and  C_9
REMARK    6  A    between atoms: C_14  and  N_15
REMARK    7  A    between atoms: C_19  and  C_20
REMARK    8  A    between atoms: C_20  and  O_21
REMARK    9  A    between atoms: C_23  and  C_24
REMARK                            x       y       z     vdW  Elec       q    Type
REMARK                         _______ _______ _______ _____ _____    ______ ____
ROOT
ATOM      1  C   UNL     1       0.132   9.869  19.912  0.00  0.00    +0.000 A 
ATOM      2  C   UNL     1       0.180   9.517  21.271  0.00  0.00    +0.000 A 
ATOM      3  C   UNL     1       0.958   8.447  21.735  0.00  0.00    +0.000 A 
ATOM      4  C   UNL     1       1.720   7.678  20.853  0.00  0.00    +0.000 A 
ATOM      5  C   UNL     1       1.753   8.006  19.509  0.00  0.00    +0.000 A 
ATOM      6  C   UNL     1       0.906   9.074  19.053  0.00  0.00    +0.000 A 
ENDROOT
BRANCH   5   7
ATOM      7  N   UNL     1       2.658   7.447  18.627  0.00  0.00    +0.000 N 
ATOM      8  C   UNL     1       3.544   8.002  17.543  0.00  0.00    +0.000 C 
ATOM      9  C   UNL     1       4.124   6.695  16.959  0.00  0.00    +0.000 A 
ATOM     10  C   UNL     1       5.260   6.396  16.212  0.00  0.00    +0.000 A 
ATOM     11  C   UNL     1       5.745   5.066  16.252  0.00  0.00    +0.000 A 
ATOM     12  C   UNL     1       5.248   4.208  17.256  0.00  0.00    +0.000 A 
ATOM     13  C   UNL     1       4.123   4.562  17.996  0.00  0.00    +0.000 A 
ATOM     14  C   UNL     1       3.416   5.661  17.568  0.00  0.00    +0.000 A 
ATOM     15  C   UNL     1       2.146   6.189  18.115  0.00  0.00    +0.000 C 
BRANCH  13  16
ATOM     16  C   UNL     1       3.909   4.089  19.416  0.00  0.00    +0.000 C 
ATOM     17  F   UNL     1       4.784   3.120  19.801  0.00  0.00    +0.000 F 
ATOM     18  F   UNL     1       4.108   5.119  20.300  0.00  0.00    +0.000 F 
ENDBRANCH  13  16
BRANCH  11  19
ATOM     19  C   UNL     1       6.911   4.555  15.441  0.00  0.00    +0.000 C 
BRANCH  19  20
ATOM     20  O   UNL     1       7.614   5.613  14.809  0.00  0.00    +0.000 OA
ATOM     21  H   UNL     1       7.096   5.852  14.020  0.00  0.00    +0.000 HD
ENDBRANCH  19  20
ENDBRANCH  11  19
ENDBRANCH   5   7
BRANCH   1  23
ATOM     22  C   UNL     1      -0.273  12.401  20.008  0.00  0.00    +0.000 C 
ATOM     23  C   UNL     1      -0.776  11.037  19.490  0.00  0.00    +0.000 C 
BRANCH  23  24
ATOM     24  C   UNL     1      -1.285  11.178  18.013  0.00  0.00    +0.000 C 
BRANCH  24  25
ATOM     25  C   UNL     1      -2.754  11.368  17.829  0.00  0.00    +0.000 A 
ATOM     26  N   UNL     1      -3.615  11.786  18.737  0.00  0.00    +0.000 NA
ATOM     27  N   UNL     1      -4.861  11.879  18.156  0.00  0.00    +0.000 NA
ATOM     28  C   UNL     1      -4.738  11.520  16.901  0.00  0.00    +0.000 A 
ATOM     29  N   UNL     1      -3.438  11.192  16.647  0.00  0.00    +0.000 N 
ATOM     30  C   UNL     1      -2.928  10.766  15.371  0.00  0.00    +0.000 C 
ENDBRANCH  24  25
ENDBRANCH  23  24
ENDBRANCH   1  23
TORSDOF 7
ENDMDL
MODEL 4
REMARK VINA RESULT:      -7.7      2.585      3.201
REMARK  Name = 
REMARK  9 active torsions:
REMARK  status: ('A' for Active; 'I' for Inactive)
REMARK    1  A    between atoms: C_1  and  C_2
REMARK    2  A    between atoms: C_2  and  C_3
REMARK    3  A    between atoms: C_2  and  C_10
REMARK    4  A    between atoms: C_3  and  C_4
REMARK    5  A    between atoms: N_8  and  C_9
REMARK    6  A    between atoms: C_14  and  N_15
REMARK    7  A    between atoms: C_19  and  C_20
REMARK    8  A    between atoms: C_20  and  O_21
REMARK    9  A    between atoms: C_23  and  C_24
REMARK                            x       y       z     vdW  Elec       q    Type
REMARK                         _______ _______ _______ _____ _____    ______ ____
ROOT
ATOM      1  C   UNL     1       2.841   6.390  19.451  0.00  0.00    +0.000 A 
ATOM      2  C   UNL     1       3.273   6.802  18.179  0.00  0.00    +0.000 A 
ATOM      3  C   UNL     1       2.835   8.001  17.598  0.00  0.00    +0.000 A 
ATOM      4  C   UNL     1       1.941   8.838  18.267  0.00  0.00    +0.000 A 
ATOM      5  C   UNL     1       1.518   8.512  19.543  0.00  0.00    +0.000 A 
ATOM      6  C   UNL     1       1.941   7.253  20.094  0.00  0.00    +0.000 A 
ENDROOT
BRANCH   5   7
ATOM      7  N   UNL     1       0.831   9.398  20.351  0.00  0.00    +0.000 N 
ATOM      8  C   UNL     1       0.185   9.295  21.707  0.00  0.00    +0.000 C 
ATOM      9  C   UNL     1      -0.473  10.687  21.811  0.00  0.00    +0.000 A 
ATOM     10  C   UNL     1      -0.913  11.467  22.877  0.00  0.00    +0.000 A 
ATOM     11  C   UNL     1      -1.020  12.865  22.674  0.00  0.00    +0.000 A 
ATOM     12  C   UNL     1      -0.402  13.418  21.531  0.00  0.00    +0.000 A 
ATOM     13  C   UNL     1       0.046  12.596  20.502  0.00  0.00    +0.000 A 
ATOM     14  C   UNL     1      -0.322  11.272  20.555  0.00  0.00    +0.000 A 
ATOM     15  C   UNL     1      -0.058  10.218  19.550  0.00  0.00    +0.000 C 
BRANCH  13  16
ATOM     16  C   UNL     1       1.214  12.972  19.618  0.00  0.00    +0.000 C 
ATOM     17  F   UNL     1       0.849  13.676  18.511  0.00  0.00    +0.000 F 
ATOM     18  F   UNL     1       2.080  13.795  20.293  0.00  0.00    +0.000 F 
ENDBRANCH  13  16
BRANCH  11  19
ATOM     19  C   UNL     1      -1.556  13.839  23.693  0.00  0.00    +0.000 C 
BRANCH  19  20
ATOM     20  O   UNL     1      -2.973  13.797  23.765  0.00  0.00    +0.000 OA
ATOM     21  H   UNL     1      -3.191  13.415  24.633  0.00  0.00    +0.000 HD
ENDBRANCH  19  20
ENDBRANCH  11  19
ENDBRANCH   5   7
BRANCH   1  23
ATOM     22  C   UNL     1       2.250   4.244  20.727  0.00  0.00    +0.000 C 
ATOM     23  C   UNL     1       3.348   5.043  19.995  0.00  0.00    +0.000 C 
BRANCH  23  24
ATOM     24  C   UNL     1       4.210   4.081  19.106  0.00  0.00    +0.000 C 
BRANCH  24  25
ATOM     25  C   UNL     1       5.616   4.504  18.834  0.00  0.00    +0.000 A 
ATOM     26  N   UNL     1       6.504   4.906  19.723  0.00  0.00    +0.000 NA
ATOM     27  N   UNL     1       7.696   5.153  19.076  0.00  0.00    +0.000 NA
ATOM     28  C   UNL     1       7.515   4.893  17.804  0.00  0.00    +0.000 A 
ATOM     29  N   UNL     1       6.230   4.482  17.602  0.00  0.00    +0.000 N 
ATOM     30  C   UNL     1       5.676   4.096  16.331  0.00  0.00    +0.000 C 
ENDBRANCH  24  25
ENDBRANCH  23  24
ENDBRANCH   1  23
TORSDOF 7
ENDMDL
MODEL 5
REMARK VINA RESULT:      -7.7      2.769      4.260
REMARK  Name = 
REMARK  9 active torsions:
REMARK  status: ('A' for Active; 'I' for Inactive)
REMARK    1  A    between atoms: C_1  and  C_2
REMARK    2  A    between atoms: C_2  and  C_3
REMARK    3  A    between atoms: C_2  and  C_10
REMARK    4  A    between atoms: C_3  and  C_4
REMARK    5  A    between atoms: N_8  and  C_9
REMARK    6  A    between atoms: C_14  and  N_15
REMARK    7  A    between atoms: C_19  and  C_20
REMARK    8  A    between atoms: C_20  and  O_21
REMARK    9  A    between atoms: C_23  and  C_24
REMARK                            x       y       z     vdW  Elec       q    Type
REMARK                         _______ _______ _______ _____ _____    ______ ____
ROOT
ATOM      1  C   UNL     1       3.139   4.059  19.048  0.00  0.00    +0.000 A 
ATOM      2  C   UNL     1       2.656   3.417  20.201  0.00  0.00    +0.000 A 
ATOM      3  C   UNL     1       1.947   4.108  21.194  0.00  0.00    +0.000 A 
ATOM      4  C   UNL     1       1.696   5.476  21.077  0.00  0.00    +0.000 A 
ATOM      5  C   UNL     1       2.103   6.154  19.942  0.00  0.00    +0.000 A 
ATOM      6  C   UNL     1       2.872   5.434  18.963  0.00  0.00    +0.000 A 
ENDROOT
BRANCH   5   7
ATOM      7  N   UNL     1       1.686   7.439  19.650  0.00  0.00    +0.000 N 
ATOM      8  C   UNL     1       1.700   8.288  18.408  0.00  0.00    +0.000 C 
ATOM      9  C   UNL     1       1.181   9.626  18.976  0.00  0.00    +0.000 A 
ATOM     10  C   UNL     1       0.579  10.745  18.407  0.00  0.00    +0.000 A 
ATOM     11  C   UNL     1      -0.201  11.576  19.249  0.00  0.00    +0.000 A 
ATOM     12  C   UNL     1      -0.568  11.078  20.517  0.00  0.00    +0.000 A 
ATOM     13  C   UNL     1       0.043   9.939  21.034  0.00  0.00    +0.000 A 
ATOM     14  C   UNL     1       1.141   9.460  20.359  0.00  0.00    +0.000 A 
ATOM     15  C   UNL     1       2.019   8.332  20.745  0.00  0.00    +0.000 C 
BRANCH  13  16
ATOM     16  C   UNL     1      -0.665   9.006  21.991  0.00  0.00    +0.000 C 
ATOM     17  F   UNL     1      -0.812   7.743  21.503  0.00  0.00    +0.000 F 
ATOM     18  F   UNL     1       0.063   8.860  23.144  0.00  0.00    +0.000 F 
ENDBRANCH  13  16
BRANCH  11  19
ATOM     19  C   UNL     1      -0.850  12.866  18.813  0.00  0.00    +0.000 C 
BRANCH  19  20
ATOM     20  O   UNL     1      -0.987  12.936  17.402  0.00  0.00    +0.000 OA
ATOM     21  H   UNL     1      -1.337  12.073  17.119  0.00  0.00    +0.000 HD
ENDBRANCH  19  20
ENDBRANCH  11  19
ENDBRANCH   5   7
BRANCH   1  23
ATOM     22  C   UNL     1       3.517   1.743  18.011  0.00  0.00    +0.000 C 
ATOM     23  C   UNL     1       3.935   3.228  18.027  0.00  0.00    +0.000 C 
BRANCH  23  24
ATOM     24  C   UNL     1       4.158   3.739  16.561  0.00  0.00    +0.000 C 
BRANCH  24  25
ATOM     25  C   UNL     1       5.519   4.259  16.236  0.00  0.00    +0.000 A 
ATOM     26  N   UNL     1       6.440   4.650  17.096  0.00  0.00    +0.000 NA
ATOM     27  N   UNL     1       7.573   5.007  16.398  0.00  0.00    +0.000 NA
ATOM     28  C   UNL     1       7.326   4.824  15.124  0.00  0.00    +0.000 A 
ATOM     29  N   UNL     1       6.054   4.355  14.971  0.00  0.00    +0.000 N 
ATOM     30  C   UNL     1       5.441   4.025  13.711  0.00  0.00    +0.000 C 
ENDBRANCH  24  25
ENDBRANCH  23  24
ENDBRANCH   1  23
TORSDOF 7
ENDMDL
MODEL 6
REMARK VINA RESULT:      -7.7      3.767      9.034
REMARK  Name = 
REMARK  9 active torsions:
REMARK  status: ('A' for Active; 'I' for Inactive)
REMARK    1  A    between atoms: C_1  and  C_2
REMARK    2  A    between atoms: C_2  and  C_3
REMARK    3  A    between atoms: C_2  and  C_10
REMARK    4  A    between atoms: C_3  and  C_4
REMARK    5  A    between atoms: N_8  and  C_9
REMARK    6  A    between atoms: C_14  and  N_15
REMARK    7  A    between atoms: C_19  and  C_20
REMARK    8  A    between atoms: C_20  and  O_21
REMARK    9  A    between atoms: C_23  and  C_24
REMARK                            x       y       z     vdW  Elec       q    Type
REMARK                         _______ _______ _______ _____ _____    ______ ____
ROOT
ATOM      1  C   UNL     1       0.677   9.458  20.272  0.00  0.00    +0.000 A 
ATOM      2  C   UNL     1       0.609  10.242  19.107  0.00  0.00    +0.000 A 
ATOM      3  C   UNL     1       1.310   9.903  17.942  0.00  0.00    +0.000 A 
ATOM      4  C   UNL     1       2.116   8.764  17.894  0.00  0.00    +0.000 A 
ATOM      5  C   UNL     1       2.185   7.925  18.991  0.00  0.00    +0.000 A 
ATOM      6  C   UNL     1       1.498   8.323  20.191  0.00  0.00    +0.000 A 
ENDROOT
BRANCH   5   7
ATOM      7  N   UNL     1       2.763   6.671  18.938  0.00  0.00    +0.000 N 
ATOM      8  C   UNL     1       4.171   6.174  18.744  0.00  0.00    +0.000 C 
ATOM      9  C   UNL     1       3.925   4.651  18.677  0.00  0.00    +0.000 A 
ATOM     10  C   UNL     1       4.731   3.536  18.884  0.00  0.00    +0.000 A 
ATOM     11  C   UNL     1       4.096   2.313  19.215  0.00  0.00    +0.000 A 
ATOM     12  C   UNL     1       2.740   2.355  19.605  0.00  0.00    +0.000 A 
ATOM     13  C   UNL     1       1.980   3.503  19.402  0.00  0.00    +0.000 A 
ATOM     14  C   UNL     1       2.541   4.494  18.630  0.00  0.00    +0.000 A 
ATOM     15  C   UNL     1       1.915   5.761  18.190  0.00  0.00    +0.000 C 
BRANCH  13  16
ATOM     16  C   UNL     1       0.819   3.872  20.298  0.00  0.00    +0.000 C 
ATOM     17  F   UNL     1       0.616   2.986  21.311  0.00  0.00    +0.000 F 
ATOM     18  F   UNL     1       1.055   5.073  20.917  0.00  0.00    +0.000 F 
ENDBRANCH  13  16
BRANCH  11  19
ATOM     19  C   UNL     1       4.812   0.997  19.390  0.00  0.00    +0.000 C 
BRANCH  19  20
ATOM     20  O   UNL     1       5.531   0.949  20.613  0.00  0.00    +0.000 OA
ATOM     21  H   UNL     1       6.185   0.235  20.517  0.00  0.00    +0.000 HD
ENDBRANCH  19  20
ENDBRANCH  11  19
ENDBRANCH   5   7
BRANCH   1  23
ATOM     22  C   UNL     1       0.361   9.220  22.807  0.00  0.00    +0.000 C 
ATOM     23  C   UNL     1      -0.100   9.925  21.515  0.00  0.00    +0.000 C 
BRANCH  23  24
ATOM     24  C   UNL     1      -0.348  11.448  21.793  0.00  0.00    +0.000 C 
BRANCH  24  25
ATOM     25  C   UNL     1      -1.744  11.844  22.140  0.00  0.00    +0.000 A 
ATOM     26  N   UNL     1      -2.316  11.765  23.326  0.00  0.00    +0.000 NA
ATOM     27  N   UNL     1      -3.591  12.281  23.238  0.00  0.00    +0.000 NA
ATOM     28  C   UNL     1      -3.774  12.671  22.001  0.00  0.00    +0.000 A 
ATOM     29  N   UNL     1      -2.647  12.421  21.273  0.00  0.00    +0.000 N 
ATOM     30  C   UNL     1      -2.478  12.732  19.879  0.00  0.00    +0.000 C 
ENDBRANCH  24  25
ENDBRANCH  23  24
ENDBRANCH   1  23
TORSDOF 7
ENDMDL
MODEL 7
REMARK VINA RESULT:      -7.5      0.831      1.199
REMARK  Name = 
REMARK  9 active torsions:
REMARK  status: ('A' for Active; 'I' for Inactive)
REMARK    1  A    between atoms: C_1  and  C_2
REMARK    2  A    between atoms: C_2  and  C_3
REMARK    3  A    between atoms: C_2  and  C_10
REMARK    4  A    between atoms: C_3  and  C_4
REMARK    5  A    between atoms: N_8  and  C_9
REMARK    6  A    between atoms: C_14  and  N_15
REMARK    7  A    between atoms: C_19  and  C_20
REMARK    8  A    between atoms: C_20  and  O_21
REMARK    9  A    between atoms: C_23  and  C_24
REMARK                            x       y       z     vdW  Elec       q    Type
REMARK                         _______ _______ _______ _____ _____    ______ ____
ROOT
ATOM      1  C   UNL     1       2.372   7.124  19.471  0.00  0.00    +0.000 A 
ATOM      2  C   UNL     1       3.000   7.432  18.253  0.00  0.00    +0.000 A 
ATOM      3  C   UNL     1       2.651   8.565  17.504  0.00  0.00    +0.000 A 
ATOM      4  C   UNL     1       1.653   9.437  17.943  0.00  0.00    +0.000 A 
ATOM      5  C   UNL     1       1.033   9.215  19.159  0.00  0.00    +0.000 A 
ATOM      6  C   UNL     1       1.372   8.018  19.882  0.00  0.00    +0.000 A 
ENDROOT
BRANCH   5   7
ATOM      7  N   UNL     1       0.217  10.151  19.763  0.00  0.00    +0.000 N 
ATOM      8  C   UNL     1      -0.714  11.217  19.250  0.00  0.00    +0.000 C 
ATOM      9  C   UNL     1      -1.120  11.898  20.575  0.00  0.00    +0.000 A 
ATOM     10  C   UNL     1      -2.200  12.688  20.960  0.00  0.00    +0.000 A 
ATOM     11  C   UNL     1      -2.519  12.745  22.339  0.00  0.00    +0.000 A 
ATOM     12  C   UNL     1      -1.934  11.787  23.195  0.00  0.00    +0.000 A 
ATOM     13  C   UNL     1      -0.873  11.000  22.756  0.00  0.00    +0.000 A 
ATOM     14  C   UNL     1      -0.300  11.340  21.554  0.00  0.00    +0.000 A 
ATOM     15  C   UNL     1       0.888  10.731  20.913  0.00  0.00    +0.000 C 
BRANCH  13  16
ATOM     16  C   UNL     1      -0.623   9.609  23.293  0.00  0.00    +0.000 C 
ATOM     17  F   UNL     1      -0.861   8.627  22.380  0.00  0.00    +0.000 F 
ATOM     18  F   UNL     1       0.695   9.459  23.642  0.00  0.00    +0.000 F 
ENDBRANCH  13  16
BRANCH  11  19
ATOM     19  C   UNL     1      -3.600  13.613  22.932  0.00  0.00    +0.000 C 
BRANCH  19  20
ATOM     20  O   UNL     1      -3.064  14.777  23.542  0.00  0.00    +0.000 OA
ATOM     21  H   UNL     1      -2.101  14.735  23.411  0.00  0.00    +0.000 HD
ENDBRANCH  19  20
ENDBRANCH  11  19
ENDBRANCH   5   7
BRANCH   1  23
ATOM     22  C   UNL     1       1.619   4.877  20.454  0.00  0.00    +0.000 C 
ATOM     23  C   UNL     1       2.797   5.842  20.209  0.00  0.00    +0.000 C 
BRANCH  23  24
ATOM     24  C   UNL     1       4.069   5.036  19.770  0.00  0.00    +0.000 C 
BRANCH  24  25
ATOM     25  C   UNL     1       3.833   3.676  19.202  0.00  0.00    +0.000 A 
ATOM     26  N   UNL     1       3.530   2.582  19.874  0.00  0.00    +0.000 NA
ATOM     27  N   UNL     1       3.340   1.551  18.980  0.00  0.00    +0.000 NA
ATOM     28  C   UNL     1       3.526   2.035  17.776  0.00  0.00    +0.000 A 
ATOM     29  N   UNL     1       3.835   3.361  17.861  0.00  0.00    +0.000 N 
ATOM     30  C   UNL     1       4.091   4.224  16.739  0.00  0.00    +0.000 C 
ENDBRANCH  24  25
ENDBRANCH  23  24
ENDBRANCH   1  23
TORSDOF 7
ENDMDL
MODEL 8
REMARK VINA RESULT:      -7.4      2.152      2.657
REMARK  Name = 
REMARK  9 active torsions:
REMARK  status: ('A' for Active; 'I' for Inactive)
REMARK    1  A    between atoms: C_1  and  C_2
REMARK    2  A    between atoms: C_2  and  C_3
REMARK    3  A    between atoms: C_2  and  C_10
REMARK    4  A    between atoms: C_3  and  C_4
REMARK    5  A    between atoms: N_8  and  C_9
REMARK    6  A    between atoms: C_14  and  N_15
REMARK    7  A    between atoms: C_19  and  C_20
REMARK    8  A    between atoms: C_20  and  O_21
REMARK    9  A    between atoms: C_23  and  C_24
REMARK                            x       y       z     vdW  Elec       q    Type
REMARK                         _______ _______ _______ _____ _____    ______ ____
ROOT
ATOM      1  C   UNL     1       2.232   7.363  19.571  0.00  0.00    +0.000 A 
ATOM      2  C   UNL     1       2.511   7.688  18.232  0.00  0.00    +0.000 A 
ATOM      3  C   UNL     1       2.003   8.847  17.628  0.00  0.00    +0.000 A 
ATOM      4  C   UNL     1       1.190   9.730  18.339  0.00  0.00    +0.000 A 
ATOM      5  C   UNL     1       0.920   9.492  19.674  0.00  0.00    +0.000 A 
ATOM      6  C   UNL     1       1.409   8.271  20.255  0.00  0.00    +0.000 A 
ENDROOT
BRANCH   5   7
ATOM      7  N   UNL     1       0.328  10.432  20.496  0.00  0.00    +0.000 N 
ATOM      8  C   UNL     1       0.036  10.499  21.971  0.00  0.00    +0.000 C 
ATOM      9  C   UNL     1      -0.761  11.820  22.040  0.00  0.00    +0.000 A 
ATOM     10  C   UNL     1      -1.041  12.724  23.061  0.00  0.00    +0.000 A 
ATOM     11  C   UNL     1      -1.377  14.051  22.696  0.00  0.00    +0.000 A 
ATOM     12  C   UNL     1      -1.123  14.458  21.369  0.00  0.00    +0.000 A 
ATOM     13  C   UNL     1      -0.821  13.520  20.386  0.00  0.00    +0.000 A 
ATOM     14  C   UNL     1      -0.987  12.195  20.717  0.00  0.00    +0.000 A 
ATOM     15  C   UNL     1      -0.826  11.017  19.836  0.00  0.00    +0.000 C 
BRANCH  13  16
ATOM     16  C   UNL     1       0.047  13.851  19.193  0.00  0.00    +0.000 C 
ATOM     17  F   UNL     1       1.247  13.207  19.204  0.00  0.00    +0.000 F 
ATOM     18  F   UNL     1      -0.561  13.450  18.031  0.00  0.00    +0.000 F 
ENDBRANCH  13  16
BRANCH  11  19
ATOM     19  C   UNL     1      -1.787  15.128  23.669  0.00  0.00    +0.000 C 
BRANCH  19  20
ATOM     20  O   UNL     1      -1.074  15.030  24.892  0.00  0.00    +0.000 OA
ATOM     21  H   UNL     1      -1.080  14.088  25.138  0.00  0.00    +0.000 HD
ENDBRANCH  19  20
ENDBRANCH  11  19
ENDBRANCH   5   7
BRANCH   1  23
ATOM     22  C   UNL     1       1.714   5.126  20.713  0.00  0.00    +0.000 C 
ATOM     23  C   UNL     1       2.805   6.054  20.141  0.00  0.00    +0.000 C 
BRANCH  23  24
ATOM     24  C   UNL     1       3.861   5.214  19.343  0.00  0.00    +0.000 C 
BRANCH  24  25
ATOM     25  C   UNL     1       3.348   4.016  18.616  0.00  0.00    +0.000 A 
ATOM     26  N   UNL     1       2.614   4.012  17.519  0.00  0.00    +0.000 NA
ATOM     27  N   UNL     1       2.396   2.706  17.137  0.00  0.00    +0.000 NA
ATOM     28  C   UNL     1       3.006   1.935  18.003  0.00  0.00    +0.000 A 
ATOM     29  N   UNL     1       3.618   2.706  18.948  0.00  0.00    +0.000 N 
ATOM     30  C   UNL     1       4.395   2.203  20.049  0.00  0.00    +0.000 C 
ENDBRANCH  24  25
ENDBRANCH  23  24
ENDBRANCH   1  23
TORSDOF 7
ENDMDL
MODEL 9
REMARK VINA RESULT:      -7.4      2.579      4.248
REMARK  Name = 
REMARK  9 active torsions:
REMARK  status: ('A' for Active; 'I' for Inactive)
REMARK    1  A    between atoms: C_1  and  C_2
REMARK    2  A    between atoms: C_2  and  C_3
REMARK    3  A    between atoms: C_2  and  C_10
REMARK    4  A    between atoms: C_3  and  C_4
REMARK    5  A    between atoms: N_8  and  C_9
REMARK    6  A    between atoms: C_14  and  N_15
REMARK    7  A    between atoms: C_19  and  C_20
REMARK    8  A    between atoms: C_20  and  O_21
REMARK    9  A    between atoms: C_23  and  C_24
REMARK                            x       y       z     vdW  Elec       q    Type
REMARK                         _______ _______ _______ _____ _____    ______ ____
ROOT
ATOM      1  C   UNL     1       2.996   3.924  19.102  0.00  0.00    +0.000 A 
ATOM      2  C   UNL     1       2.543   3.345  20.299  0.00  0.00    +0.000 A 
ATOM      3  C   UNL     1       1.910   4.100  21.296  0.00  0.00    +0.000 A 
ATOM      4  C   UNL     1       1.707   5.472  21.139  0.00  0.00    +0.000 A 
ATOM      5  C   UNL     1       2.086   6.091  19.961  0.00  0.00    +0.000 A 
ATOM      6  C   UNL     1       2.780   5.305  18.977  0.00  0.00    +0.000 A 
ENDROOT
BRANCH   5   7
ATOM      7  N   UNL     1       1.707   7.380  19.640  0.00  0.00    +0.000 N 
ATOM      8  C   UNL     1       1.787   8.216  18.391  0.00  0.00    +0.000 C 
ATOM      9  C   UNL     1       1.271   9.570  18.924  0.00  0.00    +0.000 A 
ATOM     10  C   UNL     1       0.715  10.694  18.320  0.00  0.00    +0.000 A 
ATOM     11  C   UNL     1      -0.082  11.549  19.121  0.00  0.00    +0.000 A 
ATOM     12  C   UNL     1      -0.510  11.071  20.378  0.00  0.00    +0.000 A 
ATOM     13  C   UNL     1       0.058   9.926  20.931  0.00  0.00    +0.000 A 
ATOM     14  C   UNL     1       1.173   9.419  20.306  0.00  0.00    +0.000 A 
ATOM     15  C   UNL     1       2.012   8.279  20.738  0.00  0.00    +0.000 C 
BRANCH  13  16
ATOM     16  C   UNL     1      -0.706   9.018  21.867  0.00  0.00    +0.000 C 
ATOM     17  F   UNL     1      -0.780   7.730  21.429  0.00  0.00    +0.000 F 
ATOM     18  F   UNL     1      -0.076   8.944  23.084  0.00  0.00    +0.000 F 
ENDBRANCH  13  16
BRANCH  11  19
ATOM     19  C   UNL     1      -0.688  12.846  18.646  0.00  0.00    +0.000 C 
BRANCH  19  20
ATOM     20  O   UNL     1      -1.289  12.709  17.368  0.00  0.00    +0.000 OA
ATOM     21  H   UNL     1      -2.235  12.902  17.489  0.00  0.00    +0.000 HD
ENDBRANCH  19  20
ENDBRANCH  11  19
ENDBRANCH   5   7
BRANCH   1  23
ATOM     22  C   UNL     1       2.731   2.150  17.268  0.00  0.00    +0.000 C 
ATOM     23  C   UNL     1       3.710   3.025  18.078  0.00  0.00    +0.000 C 
BRANCH  23  24
ATOM     24  C   UNL     1       4.827   3.594  17.135  0.00  0.00    +0.000 C 
BRANCH  24  25
ATOM     25  C   UNL     1       5.910   4.388  17.789  0.00  0.00    +0.000 A 
ATOM     26  N   UNL     1       6.233   4.378  19.068  0.00  0.00    +0.000 NA
ATOM     27  N   UNL     1       7.319   5.204  19.256  0.00  0.00    +0.000 NA
ATOM     28  C   UNL     1       7.644   5.700  18.087  0.00  0.00    +0.000 A 
ATOM     29  N   UNL     1       6.793   5.218  17.136  0.00  0.00    +0.000 N 
ATOM     30  C   UNL     1       6.856   5.535  15.733  0.00  0.00    +0.000 C 
ENDBRANCH  24  25
ENDBRANCH  23  24
ENDBRANCH   1  23
TORSDOF 7
ENDMDL
