MODEL 1
REMARK VINA RESULT:      -8.8      0.000      0.000
REMARK  Name = 
REMARK  4 active torsions:
REMARK  status: ('A' for Active; 'I' for Inactive)
REMARK    1  A    between atoms: C_5  and  C_6
REMARK    2  A    between atoms: C_6  and  C_7
REMARK    3  A    between atoms: C_13  and  C_14
REMARK    4  A    between atoms: N_20  and  C_21
REMARK                            x       y       z     vdW  Elec       q    Type
REMARK                         _______ _______ _______ _____ _____    ______ ____
ROOT
ATOM      1  O   UNL     1       3.603   2.418  16.808  0.00  0.00    +0.000 OA
ATOM      2  C   UNL     1       4.159   3.404  17.256  0.00  0.00    +0.000 C 
ATOM      3  C   UNL     1       5.216   4.083  16.513  0.00  0.00    +0.000 A 
ATOM      4  C   UNL     1       5.709   3.755  15.265  0.00  0.00    +0.000 A 
ATOM      5  C   UNL     1       6.697   4.577  14.719  0.00  0.00    +0.000 A 
ATOM      6  C   UNL     1       7.176   5.672  15.472  0.00  0.00    +0.000 A 
ATOM      7  C   UNL     1       6.686   5.975  16.759  0.00  0.00    +0.000 A 
ATOM      8  C   UNL     1       5.669   5.167  17.258  0.00  0.00    +0.000 A 
ATOM      9  C   UNL     1       4.894   5.242  18.537  0.00  0.00    +0.000 C 
ATOM     10  N   UNL     1       3.986   4.104  18.452  0.00  0.00    +0.000 N 
ENDROOT
BRANCH  10  11
ATOM     11  C   UNL     1       3.105   3.740  19.505  0.00  0.00    +0.000 A 
ATOM     12  C   UNL     1       1.781   4.201  19.538  0.00  0.00    +0.000 A 
ATOM     13  C   UNL     1       0.894   3.792  20.536  0.00  0.00    +0.000 A 
ATOM     14  C   UNL     1       1.320   2.929  21.536  0.00  0.00    +0.000 A 
ATOM     15  C   UNL     1       2.639   2.481  21.541  0.00  0.00    +0.000 A 
ATOM     16  C   UNL     1       3.524   2.882  20.532  0.00  0.00    +0.000 A 
ENDBRANCH  10  11
BRANCH   7  17
ATOM     17  C   UNL     1       7.246   7.123  17.558  0.00  0.00    +0.000 C 
ATOM     18  F   UNL     1       7.774   6.748  18.755  0.00  0.00    +0.000 F 
ATOM     19  F   UNL     1       8.237   7.781  16.897  0.00  0.00    +0.000 F 
ATOM     20  F   UNL     1       6.302   8.061  17.841  0.00  0.00    +0.000 F 
ENDBRANCH   7  17
BRANCH   5  21
ATOM     21  C   UNL     1       7.187   4.331  13.306  0.00  0.00    +0.000 C 
BRANCH  21  22
ATOM     22  C   UNL     1       6.186   3.586  12.475  0.00  0.00    +0.000 C 
ATOM     23  C   UNL     1       4.964   4.012  12.126  0.00  0.00    +0.000 C 
ATOM     24  C   UNL     1       4.189   2.961  11.405  0.00  0.00    +0.000 C 
ATOM     25  C   UNL     1       5.241   1.907  11.073  0.00  0.00    +0.000 C 
ATOM     26  C   UNL     1       6.449   2.200  11.964  0.00  0.00    +0.000 C 
ENDBRANCH  21  22
ENDBRANCH   5  21
TORSDOF 4
ENDMDL
MODEL 2
REMARK VINA RESULT:      -8.8      0.088      1.196
REMARK  Name = 
REMARK  4 active torsions:
REMARK  status: ('A' for Active; 'I' for Inactive)
REMARK    1  A    between atoms: C_5  and  C_6
REMARK    2  A    between atoms: C_6  and  C_7
REMARK    3  A    between atoms: C_13  and  C_14
REMARK    4  A    between atoms: N_20  and  C_21
REMARK                            x       y       z     vdW  Elec       q    Type
REMARK                         _______ _______ _______ _____ _____    ______ ____
ROOT
ATOM      1  O   UNL     1       3.637   2.412  16.806  0.00  0.00    +0.000 OA
ATOM      2  C   UNL     1       4.187   3.401  17.253  0.00  0.00    +0.000 C 
ATOM      3  C   UNL     1       5.240   4.086  16.509  0.00  0.00    +0.000 A 
ATOM      4  C   UNL     1       5.735   3.759  15.262  0.00  0.00    +0.000 A 
ATOM      5  C   UNL     1       6.718   4.587  14.714  0.00  0.00    +0.000 A 
ATOM      6  C   UNL     1       7.191   5.685  15.466  0.00  0.00    +0.000 A 
ATOM      7  C   UNL     1       6.699   5.986  16.753  0.00  0.00    +0.000 A 
ATOM      8  C   UNL     1       5.687   5.173  17.252  0.00  0.00    +0.000 A 
ATOM      9  C   UNL     1       4.912   5.245  18.532  0.00  0.00    +0.000 C 
ATOM     10  N   UNL     1       4.010   4.101  18.448  0.00  0.00    +0.000 N 
ENDROOT
BRANCH  10  11
ATOM     11  C   UNL     1       3.132   3.733  19.501  0.00  0.00    +0.000 A 
ATOM     12  C   UNL     1       3.506   2.787  20.465  0.00  0.00    +0.000 A 
ATOM     13  C   UNL     1       2.670   2.472  21.539  0.00  0.00    +0.000 A 
ATOM     14  C   UNL     1       1.429   3.084  21.658  0.00  0.00    +0.000 A 
ATOM     15  C   UNL     1       1.023   4.005  20.697  0.00  0.00    +0.000 A 
ATOM     16  C   UNL     1       1.868   4.330  19.628  0.00  0.00    +0.000 A 
ENDBRANCH  10  11
BRANCH   7  17
ATOM     17  C   UNL     1       7.253   7.139  17.550  0.00  0.00    +0.000 C 
ATOM     18  F   UNL     1       6.323   8.083  17.862  0.00  0.00    +0.000 F 
ATOM     19  F   UNL     1       7.797   6.739  18.732  0.00  0.00    +0.000 F 
ATOM     20  F   UNL     1       8.244   7.793  16.887  0.00  0.00    +0.000 F 
ENDBRANCH   7  17
BRANCH   5  21
ATOM     21  C   UNL     1       7.209   4.343  13.302  0.00  0.00    +0.000 C 
BRANCH  21  22
ATOM     22  C   UNL     1       6.211   3.593  12.470  0.00  0.00    +0.000 C 
ATOM     23  C   UNL     1       4.985   4.012  12.127  0.00  0.00    +0.000 C 
ATOM     24  C   UNL     1       4.215   2.958  11.404  0.00  0.00    +0.000 C 
ATOM     25  C   UNL     1       5.274   1.913  11.064  0.00  0.00    +0.000 C 
ATOM     26  C   UNL     1       6.483   2.212  11.952  0.00  0.00    +0.000 C 
ENDBRANCH  21  22
ENDBRANCH   5  21
TORSDOF 4
ENDMDL
MODEL 3
REMARK VINA RESULT:      -8.7      0.079      1.426
REMARK  Name = 
REMARK  4 active torsions:
REMARK  status: ('A' for Active; 'I' for Inactive)
REMARK    1  A    between atoms: C_5  and  C_6
REMARK    2  A    between atoms: C_6  and  C_7
REMARK    3  A    between atoms: C_13  and  C_14
REMARK    4  A    between atoms: N_20  and  C_21
REMARK                            x       y       z     vdW  Elec       q    Type
REMARK                         _______ _______ _______ _____ _____    ______ ____
ROOT
ATOM      1  O   UNL     1       3.643   2.390  16.794  0.00  0.00    +0.000 OA
ATOM      2  C   UNL     1       4.184   3.384  17.243  0.00  0.00    +0.000 C 
ATOM      3  C   UNL     1       5.235   4.077  16.502  0.00  0.00    +0.000 A 
ATOM      4  C   UNL     1       5.736   3.754  15.256  0.00  0.00    +0.000 A 
ATOM      5  C   UNL     1       6.715   4.589  14.712  0.00  0.00    +0.000 A 
ATOM      6  C   UNL     1       7.177   5.691  15.465  0.00  0.00    +0.000 A 
ATOM      7  C   UNL     1       6.678   5.988  16.750  0.00  0.00    +0.000 A 
ATOM      8  C   UNL     1       5.670   5.168  17.247  0.00  0.00    +0.000 A 
ATOM      9  C   UNL     1       4.891   5.233  18.524  0.00  0.00    +0.000 C 
ATOM     10  N   UNL     1       3.998   4.083  18.437  0.00  0.00    +0.000 N 
ENDROOT
BRANCH  10  11
ATOM     11  C   UNL     1       3.118   3.708  19.487  0.00  0.00    +0.000 A 
ATOM     12  C   UNL     1       3.511   2.793  20.473  0.00  0.00    +0.000 A 
ATOM     13  C   UNL     1       2.672   2.473  21.544  0.00  0.00    +0.000 A 
ATOM     14  C   UNL     1       1.411   3.048  21.636  0.00  0.00    +0.000 A 
ATOM     15  C   UNL     1       0.988   3.937  20.652  0.00  0.00    +0.000 A 
ATOM     16  C   UNL     1       1.836   4.267  19.587  0.00  0.00    +0.000 A 
ENDBRANCH  10  11
BRANCH   7  17
ATOM     17  C   UNL     1       7.220   7.145  17.550  0.00  0.00    +0.000 C 
ATOM     18  F   UNL     1       8.229   7.814  16.927  0.00  0.00    +0.000 F 
ATOM     19  F   UNL     1       6.267   8.075  17.830  0.00  0.00    +0.000 F 
ATOM     20  F   UNL     1       7.719   6.750  18.752  0.00  0.00    +0.000 F 
ENDBRANCH   7  17
BRANCH   5  21
ATOM     21  C   UNL     1       7.213   4.348  13.302  0.00  0.00    +0.000 C 
BRANCH  21  22
ATOM     22  C   UNL     1       6.246   3.546  12.482  0.00  0.00    +0.000 C 
ATOM     23  C   UNL     1       6.450   2.319  11.985  0.00  0.00    +0.000 C 
ATOM     24  C   UNL     1       5.326   1.876  11.109  0.00  0.00    +0.000 C 
ATOM     25  C   UNL     1       4.229   2.897  11.394  0.00  0.00    +0.000 C 
ATOM     26  C   UNL     1       4.905   4.085  12.080  0.00  0.00    +0.000 C 
ENDBRANCH  21  22
ENDBRANCH   5  21
TORSDOF 4
ENDMDL
MODEL 4
REMARK VINA RESULT:      -8.3      4.367      6.001
REMARK  Name = 
REMARK  4 active torsions:
REMARK  status: ('A' for Active; 'I' for Inactive)
REMARK    1  A    between atoms: C_5  and  C_6
REMARK    2  A    between atoms: C_6  and  C_7
REMARK    3  A    between atoms: C_13  and  C_14
REMARK    4  A    between atoms: N_20  and  C_21
REMARK                            x       y       z     vdW  Elec       q    Type
REMARK                         _______ _______ _______ _____ _____    ______ ____
ROOT
ATOM      1  O   UNL     1       2.470   8.120  17.888  0.00  0.00    +0.000 OA
ATOM      2  C   UNL     1       2.265   7.362  18.818  0.00  0.00    +0.000 C 
ATOM      3  C   UNL     1       2.621   5.948  18.738  0.00  0.00    +0.000 A 
ATOM      4  C   UNL     1       3.218   5.292  17.680  0.00  0.00    +0.000 A 
ATOM      5  C   UNL     1       3.513   3.935  17.837  0.00  0.00    +0.000 A 
ATOM      6  C   UNL     1       3.153   3.288  19.040  0.00  0.00    +0.000 A 
ATOM      7  C   UNL     1       2.512   3.964  20.099  0.00  0.00    +0.000 A 
ATOM      8  C   UNL     1       2.275   5.325  19.932  0.00  0.00    +0.000 A 
ATOM      9  C   UNL     1       1.681   6.339  20.861  0.00  0.00    +0.000 C 
ATOM     10  N   UNL     1       1.709   7.572  20.081  0.00  0.00    +0.000 N 
ENDROOT
BRANCH  10  11
ATOM     11  C   UNL     1       1.160   8.794  20.552  0.00  0.00    +0.000 A 
ATOM     12  C   UNL     1       0.902   9.860  19.680  0.00  0.00    +0.000 A 
ATOM     13  C   UNL     1       0.302  11.039  20.128  0.00  0.00    +0.000 A 
ATOM     14  C   UNL     1      -0.033  11.183  21.469  0.00  0.00    +0.000 A 
ATOM     15  C   UNL     1       0.242  10.149  22.360  0.00  0.00    +0.000 A 
ATOM     16  C   UNL     1       0.831   8.963  21.905  0.00  0.00    +0.000 A 
ENDBRANCH  10  11
BRANCH   7  17
ATOM     17  C   UNL     1       2.101   3.239  21.353  0.00  0.00    +0.000 C 
ATOM     18  F   UNL     1       2.361   3.933  22.495  0.00  0.00    +0.000 F 
ATOM     19  F   UNL     1       0.770   2.957  21.378  0.00  0.00    +0.000 F 
ATOM     20  F   UNL     1       2.736   2.043  21.488  0.00  0.00    +0.000 F 
ENDBRANCH   7  17
BRANCH   5  21
ATOM     21  C   UNL     1       4.275   3.198  16.755  0.00  0.00    +0.000 C 
BRANCH  21  22
ATOM     22  C   UNL     1       5.411   4.006  16.203  0.00  0.00    +0.000 C 
ATOM     23  C   UNL     1       5.619   4.313  14.915  0.00  0.00    +0.000 C 
ATOM     24  C   UNL     1       6.916   5.020  14.711  0.00  0.00    +0.000 C 
ATOM     25  C   UNL     1       7.345   5.395  16.126  0.00  0.00    +0.000 C 
ATOM     26  C   UNL     1       6.508   4.538  17.077  0.00  0.00    +0.000 C 
ENDBRANCH  21  22
ENDBRANCH   5  21
TORSDOF 4
ENDMDL
MODEL 5
REMARK VINA RESULT:      -8.2      4.355      5.963
REMARK  Name = 
REMARK  4 active torsions:
REMARK  status: ('A' for Active; 'I' for Inactive)
REMARK    1  A    between atoms: C_5  and  C_6
REMARK    2  A    between atoms: C_6  and  C_7
REMARK    3  A    between atoms: C_13  and  C_14
REMARK    4  A    between atoms: N_20  and  C_21
REMARK                            x       y       z     vdW  Elec       q    Type
REMARK                         _______ _______ _______ _____ _____    ______ ____
ROOT
ATOM      1  O   UNL     1       2.396   8.116  17.852  0.00  0.00    +0.000 OA
ATOM      2  C   UNL     1       2.222   7.362  18.792  0.00  0.00    +0.000 C 
ATOM      3  C   UNL     1       2.595   5.952  18.714  0.00  0.00    +0.000 A 
ATOM      4  C   UNL     1       3.177   5.296  17.647  0.00  0.00    +0.000 A 
ATOM      5  C   UNL     1       3.492   3.945  17.807  0.00  0.00    +0.000 A 
ATOM      6  C   UNL     1       3.169   3.302  19.023  0.00  0.00    +0.000 A 
ATOM      7  C   UNL     1       2.543   3.977  20.091  0.00  0.00    +0.000 A 
ATOM      8  C   UNL     1       2.285   5.334  19.920  0.00  0.00    +0.000 A 
ATOM      9  C   UNL     1       1.699   6.346  20.855  0.00  0.00    +0.000 C 
ATOM     10  N   UNL     1       1.692   7.574  20.066  0.00  0.00    +0.000 N 
ENDROOT
BRANCH  10  11
ATOM     11  C   UNL     1       1.139   8.792  20.541  0.00  0.00    +0.000 A 
ATOM     12  C   UNL     1       0.952   9.888  19.688  0.00  0.00    +0.000 A 
ATOM     13  C   UNL     1       0.348  11.065  20.136  0.00  0.00    +0.000 A 
ATOM     14  C   UNL     1      -0.063  11.177  21.458  0.00  0.00    +0.000 A 
ATOM     15  C   UNL     1       0.139  10.112  22.332  0.00  0.00    +0.000 A 
ATOM     16  C   UNL     1       0.733   8.928  21.877  0.00  0.00    +0.000 A 
ENDBRANCH  10  11
BRANCH   7  17
ATOM     17  C   UNL     1       2.170   3.256  21.360  0.00  0.00    +0.000 C 
ATOM     18  F   UNL     1       0.856   2.906  21.422  0.00  0.00    +0.000 F 
ATOM     19  F   UNL     1       2.875   2.105  21.530  0.00  0.00    +0.000 F 
ATOM     20  F   UNL     1       2.411   4.007  22.468  0.00  0.00    +0.000 F 
ENDBRANCH   7  17
BRANCH   5  21
ATOM     21  C   UNL     1       4.239   3.209  16.714  0.00  0.00    +0.000 C 
BRANCH  21  22
ATOM     22  C   UNL     1       5.413   3.987  16.199  0.00  0.00    +0.000 C 
ATOM     23  C   UNL     1       6.410   4.503  16.931  0.00  0.00    +0.000 C 
ATOM     24  C   UNL     1       7.341   5.327  16.107  0.00  0.00    +0.000 C 
ATOM     25  C   UNL     1       6.948   4.983  14.673  0.00  0.00    +0.000 C 
ATOM     26  C   UNL     1       5.571   4.322  14.745  0.00  0.00    +0.000 C 
ENDBRANCH  21  22
ENDBRANCH   5  21
TORSDOF 4
ENDMDL
MODEL 6
REMARK VINA RESULT:      -8.2      5.171      6.886
REMARK  Name = 
REMARK  4 active torsions:
REMARK  status: ('A' for Active; 'I' for Inactive)
REMARK    1  A    between atoms: C_5  and  C_6
REMARK    2  A    between atoms: C_6  and  C_7
REMARK    3  A    between atoms: C_13  and  C_14
REMARK    4  A    between atoms: N_20  and  C_21
REMARK                            x       y       z     vdW  Elec       q    Type
REMARK                         _______ _______ _______ _____ _____    ______ ____
ROOT
ATOM      1  O   UNL     1       1.618  10.438  18.660  0.00  0.00    +0.000 OA
ATOM      2  C   UNL     1       1.481   9.406  19.290  0.00  0.00    +0.000 C 
ATOM      3  C   UNL     1       2.159   8.176  18.888  0.00  0.00    +0.000 A 
ATOM      4  C   UNL     1       3.014   8.000  17.819  0.00  0.00    +0.000 A 
ATOM      5  C   UNL     1       3.590   6.738  17.647  0.00  0.00    +0.000 A 
ATOM      6  C   UNL     1       3.246   5.697  18.537  0.00  0.00    +0.000 A 
ATOM      7  C   UNL     1       2.344   5.884  19.605  0.00  0.00    +0.000 A 
ATOM      8  C   UNL     1       1.823   7.162  19.780  0.00  0.00    +0.000 A 
ATOM      9  C   UNL     1       0.905   7.713  20.827  0.00  0.00    +0.000 C 
ATOM     10  N   UNL     1       0.743   9.110  20.437  0.00  0.00    +0.000 N 
ENDROOT
BRANCH  10  11
ATOM     11  C   UNL     1      -0.123  10.005  21.119  0.00  0.00    +0.000 A 
ATOM     12  C   UNL     1      -0.314   9.920  22.504  0.00  0.00    +0.000 A 
ATOM     13  C   UNL     1      -1.114  10.839  23.187  0.00  0.00    +0.000 A 
ATOM     14  C   UNL     1      -1.759  11.853  22.490  0.00  0.00    +0.000 A 
ATOM     15  C   UNL     1      -1.609  11.940  21.108  0.00  0.00    +0.000 A 
ATOM     16  C   UNL     1      -0.795  11.024  20.428  0.00  0.00    +0.000 A 
ENDBRANCH  10  11
BRANCH   7  17
ATOM     17  C   UNL     1       1.961   4.744  20.512  0.00  0.00    +0.000 C 
ATOM     18  F   UNL     1       2.477   3.544  20.128  0.00  0.00    +0.000 F 
ATOM     19  F   UNL     1       2.373   4.940  21.794  0.00  0.00    +0.000 F 
ATOM     20  F   UNL     1       0.613   4.569  20.577  0.00  0.00    +0.000 F 
ENDBRANCH   7  17
BRANCH   5  21
ATOM     21  C   UNL     1       4.626   6.523  16.562  0.00  0.00    +0.000 C 
BRANCH  21  22
ATOM     22  C   UNL     1       5.899   5.936  17.095  0.00  0.00    +0.000 C 
ATOM     23  C   UNL     1       6.604   6.381  18.144  0.00  0.00    +0.000 C 
ATOM     24  C   UNL     1       7.886   5.637  18.313  0.00  0.00    +0.000 C 
ATOM     25  C   UNL     1       7.725   4.434  17.388  0.00  0.00    +0.000 C 
ATOM     26  C   UNL     1       6.567   4.762  16.444  0.00  0.00    +0.000 C 
ENDBRANCH  21  22
ENDBRANCH   5  21
TORSDOF 4
ENDMDL
MODEL 7
REMARK VINA RESULT:      -8.2      5.142      6.829
REMARK  Name = 
REMARK  4 active torsions:
REMARK  status: ('A' for Active; 'I' for Inactive)
REMARK    1  A    between atoms: C_5  and  C_6
REMARK    2  A    between atoms: C_6  and  C_7
REMARK    3  A    between atoms: C_13  and  C_14
REMARK    4  A    between atoms: N_20  and  C_21
REMARK                            x       y       z     vdW  Elec       q    Type
REMARK                         _______ _______ _______ _____ _____    ______ ____
ROOT
ATOM      1  O   UNL     1       1.730  10.374  18.678  0.00  0.00    +0.000 OA
ATOM      2  C   UNL     1       1.567   9.348  19.313  0.00  0.00    +0.000 C 
ATOM      3  C   UNL     1       2.204   8.097  18.910  0.00  0.00    +0.000 A 
ATOM      4  C   UNL     1       3.045   7.892  17.834  0.00  0.00    +0.000 A 
ATOM      5  C   UNL     1       3.582   6.614  17.661  0.00  0.00    +0.000 A 
ATOM      6  C   UNL     1       3.213   5.586  18.557  0.00  0.00    +0.000 A 
ATOM      7  C   UNL     1       2.326   5.803  19.631  0.00  0.00    +0.000 A 
ATOM      8  C   UNL     1       1.845   7.097  19.807  0.00  0.00    +0.000 A 
ATOM      9  C   UNL     1       0.952   7.678  20.859  0.00  0.00    +0.000 C 
ATOM     10  N   UNL     1       0.829   9.078  20.467  0.00  0.00    +0.000 N 
ENDROOT
BRANCH  10  11
ATOM     11  C   UNL     1      -0.005  10.000  21.152  0.00  0.00    +0.000 A 
ATOM     12  C   UNL     1      -0.611  11.071  20.481  0.00  0.00    +0.000 A 
ATOM     13  C   UNL     1      -1.483  11.942  21.138  0.00  0.00    +0.000 A 
ATOM     14  C   UNL     1      -1.751  11.770  22.490  0.00  0.00    +0.000 A 
ATOM     15  C   UNL     1      -1.137  10.731  23.185  0.00  0.00    +0.000 A 
ATOM     16  C   UNL     1      -0.273   9.851  22.521  0.00  0.00    +0.000 A 
ENDBRANCH  10  11
BRANCH   7  17
ATOM     17  C   UNL     1       1.916   4.678  20.545  0.00  0.00    +0.000 C 
ATOM     18  F   UNL     1       0.568   4.502  20.624  0.00  0.00    +0.000 F 
ATOM     19  F   UNL     1       2.430   3.479  20.157  0.00  0.00    +0.000 F 
ATOM     20  F   UNL     1       2.343   4.871  21.822  0.00  0.00    +0.000 F 
ENDBRANCH   7  17
BRANCH   5  21
ATOM     21  C   UNL     1       4.602   6.365  16.570  0.00  0.00    +0.000 C 
BRANCH  21  22
ATOM     22  C   UNL     1       5.907   5.859  17.110  0.00  0.00    +0.000 C 
ATOM     23  C   UNL     1       6.644   6.427  18.074  0.00  0.00    +0.000 C 
ATOM     24  C   UNL     1       7.946   5.725  18.270  0.00  0.00    +0.000 C 
ATOM     25  C   UNL     1       7.771   4.425  17.490  0.00  0.00    +0.000 C 
ATOM     26  C   UNL     1       6.571   4.630  16.564  0.00  0.00    +0.000 C 
ENDBRANCH  21  22
ENDBRANCH   5  21
TORSDOF 4
ENDMDL
MODEL 8
REMARK VINA RESULT:      -8.2      4.364      6.034
REMARK  Name = 
REMARK  4 active torsions:
REMARK  status: ('A' for Active; 'I' for Inactive)
REMARK    1  A    between atoms: C_5  and  C_6
REMARK    2  A    between atoms: C_6  and  C_7
REMARK    3  A    between atoms: C_13  and  C_14
REMARK    4  A    between atoms: N_20  and  C_21
REMARK                            x       y       z     vdW  Elec       q    Type
REMARK                         _______ _______ _______ _____ _____    ______ ____
ROOT
ATOM      1  O   UNL     1       2.463   8.105  17.874  0.00  0.00    +0.000 OA
ATOM      2  C   UNL     1       2.253   7.344  18.801  0.00  0.00    +0.000 C 
ATOM      3  C   UNL     1       2.621   5.933  18.723  0.00  0.00    +0.000 A 
ATOM      4  C   UNL     1       3.236   5.283  17.671  0.00  0.00    +0.000 A 
ATOM      5  C   UNL     1       3.539   3.928  17.830  0.00  0.00    +0.000 A 
ATOM      6  C   UNL     1       3.171   3.277  19.029  0.00  0.00    +0.000 A 
ATOM      7  C   UNL     1       2.513   3.947  20.081  0.00  0.00    +0.000 A 
ATOM      8  C   UNL     1       2.267   5.306  19.913  0.00  0.00    +0.000 A 
ATOM      9  C   UNL     1       1.654   6.314  20.836  0.00  0.00    +0.000 C 
ATOM     10  N   UNL     1       1.681   7.548  20.058  0.00  0.00    +0.000 N 
ENDROOT
BRANCH  10  11
ATOM     11  C   UNL     1       1.118   8.766  20.524  0.00  0.00    +0.000 A 
ATOM     12  C   UNL     1       0.825   8.959  21.881  0.00  0.00    +0.000 A 
ATOM     13  C   UNL     1       0.332  10.179  22.352  0.00  0.00    +0.000 A 
ATOM     14  C   UNL     1       0.102  11.225  21.468  0.00  0.00    +0.000 A 
ATOM     15  C   UNL     1       0.358  11.046  20.111  0.00  0.00    +0.000 A 
ATOM     16  C   UNL     1       0.864   9.827  19.642  0.00  0.00    +0.000 A 
ENDBRANCH  10  11
BRANCH   7  17
ATOM     17  C   UNL     1       2.093   3.217  21.330  0.00  0.00    +0.000 C 
ATOM     18  F   UNL     1       2.358   3.901  22.477  0.00  0.00    +0.000 F 
ATOM     19  F   UNL     1       0.759   2.948  21.350  0.00  0.00    +0.000 F 
ATOM     20  F   UNL     1       2.717   2.015  21.457  0.00  0.00    +0.000 F 
ENDBRANCH   7  17
BRANCH   5  21
ATOM     21  C   UNL     1       4.319   3.198  16.757  0.00  0.00    +0.000 C 
BRANCH  21  22
ATOM     22  C   UNL     1       5.464   4.010  16.229  0.00  0.00    +0.000 C 
ATOM     23  C   UNL     1       6.448   4.564  16.950  0.00  0.00    +0.000 C 
ATOM     24  C   UNL     1       7.347   5.411  16.114  0.00  0.00    +0.000 C 
ATOM     25  C   UNL     1       6.957   5.043  14.686  0.00  0.00    +0.000 C 
ATOM     26  C   UNL     1       5.603   4.337  14.772  0.00  0.00    +0.000 C 
ENDBRANCH  21  22
ENDBRANCH   5  21
TORSDOF 4
ENDMDL
MODEL 9
REMARK VINA RESULT:      -8.1      3.712      7.692
REMARK  Name = 
REMARK  4 active torsions:
REMARK  status: ('A' for Active; 'I' for Inactive)
REMARK    1  A    between atoms: C_5  and  C_6
REMARK    2  A    between atoms: C_6  and  C_7
REMARK    3  A    between atoms: C_13  and  C_14
REMARK    4  A    between atoms: N_20  and  C_21
REMARK                            x       y       z     vdW  Elec       q    Type
REMARK                         _______ _______ _______ _____ _____    ______ ____
ROOT
ATOM      1  O   UNL     1       5.280   7.030  15.952  0.00  0.00    +0.000 OA
ATOM      2  C   UNL     1       4.921   5.898  16.221  0.00  0.00    +0.000 C 
ATOM      3  C   UNL     1       4.119   5.618  17.409  0.00  0.00    +0.000 A 
ATOM      4  C   UNL     1       3.656   6.525  18.342  0.00  0.00    +0.000 A 
ATOM      5  C   UNL     1       2.861   6.039  19.383  0.00  0.00    +0.000 A 
ATOM      6  C   UNL     1       2.601   4.653  19.462  0.00  0.00    +0.000 A 
ATOM      7  C   UNL     1       3.108   3.735  18.519  0.00  0.00    +0.000 A 
ATOM      8  C   UNL     1       3.857   4.253  17.467  0.00  0.00    +0.000 A 
ATOM      9  C   UNL     1       4.482   3.582  16.283  0.00  0.00    +0.000 C 
ATOM     10  N   UNL     1       5.127   4.680  15.571  0.00  0.00    +0.000 N 
ENDROOT
BRANCH  10  11
ATOM     11  C   UNL     1       5.918   4.486  14.408  0.00  0.00    +0.000 A 
ATOM     12  C   UNL     1       5.496   3.639  13.374  0.00  0.00    +0.000 A 
ATOM     13  C   UNL     1       6.241   3.496  12.201  0.00  0.00    +0.000 A 
ATOM     14  C   UNL     1       7.438   4.184  12.048  0.00  0.00    +0.000 A 
ATOM     15  C   UNL     1       7.892   5.008  13.073  0.00  0.00    +0.000 A 
ATOM     16  C   UNL     1       7.137   5.160  14.244  0.00  0.00    +0.000 A 
ENDBRANCH  10  11
BRANCH   7  17
ATOM     17  C   UNL     1       2.851   2.257  18.652  0.00  0.00    +0.000 C 
ATOM     18  F   UNL     1       2.031   1.937  19.691  0.00  0.00    +0.000 F 
ATOM     19  F   UNL     1       2.275   1.727  17.539  0.00  0.00    +0.000 F 
ATOM     20  F   UNL     1       3.998   1.551  18.849  0.00  0.00    +0.000 F 
ENDBRANCH   7  17
BRANCH   5  21
ATOM     21  C   UNL     1       2.231   7.005  20.365  0.00  0.00    +0.000 C 
BRANCH  21  22
ATOM     22  C   UNL     1       1.657   8.215  19.689  0.00  0.00    +0.000 C 
ATOM     23  C   UNL     1       1.860   8.590  18.419  0.00  0.00    +0.000 C 
ATOM     24  C   UNL     1       1.240   9.914  18.120  0.00  0.00    +0.000 C 
ATOM     25  C   UNL     1       0.337  10.165  19.324  0.00  0.00    +0.000 C 
ATOM     26  C   UNL     1       0.792   9.199  20.420  0.00  0.00    +0.000 C 
ENDBRANCH  21  22
ENDBRANCH   5  21
TORSDOF 4
ENDMDL
