MODEL 1
REMARK VINA RESULT:      -8.3      0.000      0.000
REMARK  Name = 
REMARK  7 active torsions:
REMARK  status: ('A' for Active; 'I' for Inactive)
REMARK    1  A    between atoms: C_1  and  C_2
REMARK    2  A    between atoms: C_9  and  N_10
REMARK    3  A    between atoms: N_10  and  C_11
REMARK    4  A    between atoms: C_11  and  C_12
REMARK    5  A    between atoms: C_11  and  C_13
REMARK    6  A    between atoms: C_16  and  C_17
REMARK    7  A    between atoms: C_20  and  C_21
REMARK                            x       y       z     vdW  Elec       q    Type
REMARK                         _______ _______ _______ _____ _____    ______ ____
ROOT
ATOM      1  N   UNL     1       2.541   4.853  19.359  0.00  0.00    +0.000 N 
ATOM      2  H   UNL     1       2.160   4.491  18.489  0.00  0.00    +0.000 HD
ENDROOT
BRANCH   1  11
ATOM      3  C   UNL     1      -0.180  10.396  22.182  0.00  0.00    +0.000 C 
ATOM      4  C   UNL     1       0.187  10.949  20.830  0.00  0.00    +0.000 C 
ATOM      5  O   UNL     1      -0.122  12.116  20.555  0.00  0.00    +0.000 OA
ATOM      6  N   UNL     1       0.882  10.165  19.936  0.00  0.00    +0.000 N 
ATOM      7  C   UNL     1       1.348  10.733  18.663  0.00  0.00    +0.000 C 
ATOM      8  C   UNL     1       1.883   9.574  17.814  0.00  0.00    +0.000 C 
ATOM      9  C   UNL     1       1.934   8.457  18.812  0.00  0.00    +0.000 A 
ATOM     10  C   UNL     1       2.383   7.150  18.599  0.00  0.00    +0.000 A 
ATOM     11  C   UNL     1       2.259   6.195  19.622  0.00  0.00    +0.000 A 
ATOM     12  C   UNL     1       1.675   6.617  20.827  0.00  0.00    +0.000 A 
ATOM     13  C   UNL     1       1.193   7.913  21.023  0.00  0.00    +0.000 A 
ATOM     14  C   UNL     1       1.326   8.835  20.012  0.00  0.00    +0.000 A 
ENDBRANCH   1  11
BRANCH   1  15
ATOM     15  C   UNL     1       3.805   4.222  19.793  0.00  0.00    +0.000 C 
ATOM     16  C   UNL     1       3.604   2.701  19.921  0.00  0.00    +0.000 C 
BRANCH  15  17
ATOM     17  C   UNL     1       5.019   4.451  18.940  0.00  0.00    +0.000 A 
ATOM     18  N   UNL     1       6.279   4.515  19.329  0.00  0.00    +0.000 NA
ATOM     19  N   UNL     1       7.037   4.559  18.181  0.00  0.00    +0.000 NA
ATOM     20  C   UNL     1       6.195   4.529  17.169  0.00  0.00    +0.000 A 
ATOM     21  O   UNL     1       4.880   4.484  17.582  0.00  0.00    +0.000 OA
BRANCH  20  22
ATOM     22  C   UNL     1       6.445   4.452  15.748  0.00  0.00    +0.000 A 
ATOM     23  C   UNL     1       5.633   3.658  14.915  0.00  0.00    +0.000 A 
ATOM     24  C   UNL     1       5.854   3.624  13.541  0.00  0.00    +0.000 A 
ATOM     25  C   UNL     1       6.890   4.369  12.966  0.00  0.00    +0.000 A 
ATOM     26  C   UNL     1       7.151   4.331  11.491  0.00  0.00    +0.000 C 
ATOM     27  C   UNL     1       7.697   5.159  13.796  0.00  0.00    +0.000 A 
ATOM     28  C   UNL     1       7.474   5.201  15.164  0.00  0.00    +0.000 A 
ENDBRANCH  20  22
ENDBRANCH  15  17
ENDBRANCH   1  15
TORSDOF 4
ENDMDL
MODEL 2
REMARK VINA RESULT:      -8.3      3.333      5.040
REMARK  Name = 
REMARK  7 active torsions:
REMARK  status: ('A' for Active; 'I' for Inactive)
REMARK    1  A    between atoms: C_1  and  C_2
REMARK    2  A    between atoms: C_9  and  N_10
REMARK    3  A    between atoms: N_10  and  C_11
REMARK    4  A    between atoms: C_11  and  C_12
REMARK    5  A    between atoms: C_11  and  C_13
REMARK    6  A    between atoms: C_16  and  C_17
REMARK    7  A    between atoms: C_20  and  C_21
REMARK                            x       y       z     vdW  Elec       q    Type
REMARK                         _______ _______ _______ _____ _____    ______ ____
ROOT
ATOM      1  N   UNL     1       1.097  10.037  19.677  0.00  0.00    +0.000 N 
ATOM      2  H   UNL     1       1.850  10.715  19.748  0.00  0.00    +0.000 HD
ENDROOT
BRANCH   1  11
ATOM      3  C   UNL     1      -5.119  12.756  19.409  0.00  0.00    +0.000 C 
ATOM      4  C   UNL     1      -5.115  11.994  18.109  0.00  0.00    +0.000 C 
ATOM      5  O   UNL     1      -6.142  11.980  17.418  0.00  0.00    +0.000 OA
ATOM      6  N   UNL     1      -3.968  11.352  17.696  0.00  0.00    +0.000 N 
ATOM      7  C   UNL     1      -3.917  10.708  16.376  0.00  0.00    +0.000 C 
ATOM      8  C   UNL     1      -2.610   9.911  16.307  0.00  0.00    +0.000 C 
ATOM      9  C   UNL     1      -1.879  10.409  17.517  0.00  0.00    +0.000 A 
ATOM     10  C   UNL     1      -0.597  10.047  17.942  0.00  0.00    +0.000 A 
ATOM     11  C   UNL     1      -0.105  10.531  19.166  0.00  0.00    +0.000 A 
ATOM     12  C   UNL     1      -0.950  11.369  19.910  0.00  0.00    +0.000 A 
ATOM     13  C   UNL     1      -2.244  11.698  19.501  0.00  0.00    +0.000 A 
ATOM     14  C   UNL     1      -2.707  11.218  18.299  0.00  0.00    +0.000 A 
ENDBRANCH   1  11
BRANCH   1  15
ATOM     15  C   UNL     1       1.129   8.964  20.693  0.00  0.00    +0.000 C 
ATOM     16  C   UNL     1      -0.306   8.652  21.158  0.00  0.00    +0.000 C 
BRANCH  15  17
ATOM     17  C   UNL     1       1.774   7.665  20.304  0.00  0.00    +0.000 A 
ATOM     18  N   UNL     1       1.541   6.466  20.805  0.00  0.00    +0.000 NA
ATOM     19  N   UNL     1       2.233   5.576  20.016  0.00  0.00    +0.000 NA
ATOM     20  C   UNL     1       2.849   6.286  19.093  0.00  0.00    +0.000 A 
ATOM     21  O   UNL     1       2.619   7.639  19.232  0.00  0.00    +0.000 OA
BRANCH  20  22
ATOM     22  C   UNL     1       3.629   5.861  17.954  0.00  0.00    +0.000 A 
ATOM     23  C   UNL     1       4.353   6.795  17.187  0.00  0.00    +0.000 A 
ATOM     24  C   UNL     1       5.136   6.371  16.118  0.00  0.00    +0.000 A 
ATOM     25  C   UNL     1       5.210   5.014  15.780  0.00  0.00    +0.000 A 
ATOM     26  C   UNL     1       6.036   4.545  14.622  0.00  0.00    +0.000 C 
ATOM     27  C   UNL     1       4.490   4.087  16.544  0.00  0.00    +0.000 A 
ATOM     28  C   UNL     1       3.715   4.505  17.615  0.00  0.00    +0.000 A 
ENDBRANCH  20  22
ENDBRANCH  15  17
ENDBRANCH   1  15
TORSDOF 4
ENDMDL
MODEL 3
REMARK VINA RESULT:      -8.2      0.396      1.009
REMARK  Name = 
REMARK  7 active torsions:
REMARK  status: ('A' for Active; 'I' for Inactive)
REMARK    1  A    between atoms: C_1  and  C_2
REMARK    2  A    between atoms: C_9  and  N_10
REMARK    3  A    between atoms: N_10  and  C_11
REMARK    4  A    between atoms: C_11  and  C_12
REMARK    5  A    between atoms: C_11  and  C_13
REMARK    6  A    between atoms: C_16  and  C_17
REMARK    7  A    between atoms: C_20  and  C_21
REMARK                            x       y       z     vdW  Elec       q    Type
REMARK                         _______ _______ _______ _____ _____    ______ ____
ROOT
ATOM      1  N   UNL     1       2.286   5.142  19.575  0.00  0.00    +0.000 N 
ATOM      2  H   UNL     1       1.907   4.767  18.710  0.00  0.00    +0.000 HD
ENDROOT
BRANCH   1  11
ATOM      3  C   UNL     1      -0.360  10.834  22.166  0.00  0.00    +0.000 C 
ATOM      4  C   UNL     1       0.073  11.342  20.816  0.00  0.00    +0.000 C 
ATOM      5  O   UNL     1      -0.189  12.511  20.502  0.00  0.00    +0.000 OA
ATOM      6  N   UNL     1       0.775  10.516  19.966  0.00  0.00    +0.000 N 
ATOM      7  C   UNL     1       1.304  11.038  18.699  0.00  0.00    +0.000 C 
ATOM      8  C   UNL     1       1.833   9.843  17.897  0.00  0.00    +0.000 C 
ATOM      9  C   UNL     1       1.812   8.749  18.922  0.00  0.00    +0.000 A 
ATOM     10  C   UNL     1       2.227   7.424  18.757  0.00  0.00    +0.000 A 
ATOM     11  C   UNL     1       2.036   6.498  19.796  0.00  0.00    +0.000 A 
ATOM     12  C   UNL     1       1.423   6.968  20.969  0.00  0.00    +0.000 A 
ATOM     13  C   UNL     1       0.975   8.283  21.116  0.00  0.00    +0.000 A 
ATOM     14  C   UNL     1       1.174   9.175  20.089  0.00  0.00    +0.000 A 
ENDBRANCH   1  11
BRANCH   1  15
ATOM     15  C   UNL     1       3.526   4.491  20.045  0.00  0.00    +0.000 C 
ATOM     16  C   UNL     1       3.278   2.981  20.222  0.00  0.00    +0.000 C 
BRANCH  15  17
ATOM     17  C   UNL     1       4.755   4.655  19.199  0.00  0.00    +0.000 A 
ATOM     18  N   UNL     1       6.014   4.662  19.596  0.00  0.00    +0.000 NA
ATOM     19  N   UNL     1       6.781   4.660  18.454  0.00  0.00    +0.000 NA
ATOM     20  C   UNL     1       5.944   4.663  17.435  0.00  0.00    +0.000 A 
ATOM     21  O   UNL     1       4.626   4.685  17.839  0.00  0.00    +0.000 OA
BRANCH  20  22
ATOM     22  C   UNL     1       6.200   4.564  16.017  0.00  0.00    +0.000 A 
ATOM     23  C   UNL     1       7.310   5.208  15.438  0.00  0.00    +0.000 A 
ATOM     24  C   UNL     1       7.573   5.072  14.078  0.00  0.00    +0.000 A 
ATOM     25  C   UNL     1       6.735   4.302  13.262  0.00  0.00    +0.000 A 
ATOM     26  C   UNL     1       6.996   4.159  11.794  0.00  0.00    +0.000 C 
ATOM     27  C   UNL     1       5.631   3.661  13.840  0.00  0.00    +0.000 A 
ATOM     28  C   UNL     1       5.371   3.789  15.196  0.00  0.00    +0.000 A 
ENDBRANCH  20  22
ENDBRANCH  15  17
ENDBRANCH   1  15
TORSDOF 4
ENDMDL
MODEL 4
REMARK VINA RESULT:      -8.1      0.981      1.173
REMARK  Name = 
REMARK  7 active torsions:
REMARK  status: ('A' for Active; 'I' for Inactive)
REMARK    1  A    between atoms: C_1  and  C_2
REMARK    2  A    between atoms: C_9  and  N_10
REMARK    3  A    between atoms: N_10  and  C_11
REMARK    4  A    between atoms: C_11  and  C_12
REMARK    5  A    between atoms: C_11  and  C_13
REMARK    6  A    between atoms: C_16  and  C_17
REMARK    7  A    between atoms: C_20  and  C_21
REMARK                            x       y       z     vdW  Elec       q    Type
REMARK                         _______ _______ _______ _____ _____    ______ ____
ROOT
ATOM      1  N   UNL     1       2.412   6.276  19.218  0.00  0.00    +0.000 N 
ATOM      2  H   UNL     1       2.407   6.205  18.205  0.00  0.00    +0.000 HD
ENDROOT
BRANCH   1  11
ATOM      3  C   UNL     1      -1.008  10.696  23.074  0.00  0.00    +0.000 C 
ATOM      4  C   UNL     1      -0.784  11.542  21.848  0.00  0.00    +0.000 C 
ATOM      5  O   UNL     1      -1.279  12.677  21.803  0.00  0.00    +0.000 OA
ATOM      6  N   UNL     1      -0.014  11.058  20.813  0.00  0.00    +0.000 N 
ATOM      7  C   UNL     1       0.308  11.920  19.667  0.00  0.00    +0.000 C 
ATOM      8  C   UNL     1       0.979  11.039  18.607  0.00  0.00    +0.000 C 
ATOM      9  C   UNL     1       1.240   9.777  19.373  0.00  0.00    +0.000 A 
ATOM     10  C   UNL     1       1.874   8.620  18.911  0.00  0.00    +0.000 A 
ATOM     11  C   UNL     1       1.939   7.483  19.735  0.00  0.00    +0.000 A 
ATOM     12  C   UNL     1       1.346   7.577  21.004  0.00  0.00    +0.000 A 
ATOM     13  C   UNL     1       0.680   8.721  21.448  0.00  0.00    +0.000 A 
ATOM     14  C   UNL     1       0.630   9.824  20.630  0.00  0.00    +0.000 A 
ENDBRANCH   1  11
BRANCH   1  15
ATOM     15  C   UNL     1       3.480   5.505  19.889  0.00  0.00    +0.000 C 
ATOM     16  C   UNL     1       2.919   4.151  20.359  0.00  0.00    +0.000 C 
BRANCH  15  17
ATOM     17  C   UNL     1       4.731   5.233  19.105  0.00  0.00    +0.000 A 
ATOM     18  N   UNL     1       5.905   4.844  19.566  0.00  0.00    +0.000 NA
ATOM     19  N   UNL     1       6.678   4.556  18.465  0.00  0.00    +0.000 NA
ATOM     20  C   UNL     1       5.933   4.795  17.405  0.00  0.00    +0.000 A 
ATOM     21  O   UNL     1       4.678   5.257  17.740  0.00  0.00    +0.000 OA
BRANCH  20  22
ATOM     22  C   UNL     1       6.203   4.571  16.004  0.00  0.00    +0.000 A 
ATOM     23  C   UNL     1       5.358   3.754  15.229  0.00  0.00    +0.000 A 
ATOM     24  C   UNL     1       5.601   3.578  13.870  0.00  0.00    +0.000 A 
ATOM     25  C   UNL     1       6.693   4.202  13.253  0.00  0.00    +0.000 A 
ATOM     26  C   UNL     1       6.977   4.009  11.795  0.00  0.00    +0.000 C 
ATOM     27  C   UNL     1       7.533   5.015  14.026  0.00  0.00    +0.000 A 
ATOM     28  C   UNL     1       7.288   5.198  15.378  0.00  0.00    +0.000 A 
ENDBRANCH  20  22
ENDBRANCH  15  17
ENDBRANCH   1  15
TORSDOF 4
ENDMDL
MODEL 5
REMARK VINA RESULT:      -8.0      0.839      1.327
REMARK  Name = 
REMARK  7 active torsions:
REMARK  status: ('A' for Active; 'I' for Inactive)
REMARK    1  A    between atoms: C_1  and  C_2
REMARK    2  A    between atoms: C_9  and  N_10
REMARK    3  A    between atoms: N_10  and  C_11
REMARK    4  A    between atoms: C_11  and  C_12
REMARK    5  A    between atoms: C_11  and  C_13
REMARK    6  A    between atoms: C_16  and  C_17
REMARK    7  A    between atoms: C_20  and  C_21
REMARK                            x       y       z     vdW  Elec       q    Type
REMARK                         _______ _______ _______ _____ _____    ______ ____
ROOT
ATOM      1  N   UNL     1       2.177   3.729  19.666  0.00  0.00    +0.000 N 
ATOM      2  H   UNL     1       1.385   3.296  19.200  0.00  0.00    +0.000 HD
ENDROOT
BRANCH   1  11
ATOM      3  C   UNL     1       0.509   9.984  21.712  0.00  0.00    +0.000 C 
ATOM      4  C   UNL     1       0.938  10.281  20.299  0.00  0.00    +0.000 C 
ATOM      5  O   UNL     1       0.828  11.437  19.868  0.00  0.00    +0.000 OA
ATOM      6  N   UNL     1       1.468   9.277  19.520  0.00  0.00    +0.000 N 
ATOM      7  C   UNL     1       1.999   9.582  18.183  0.00  0.00    +0.000 C 
ATOM      8  C   UNL     1       2.308   8.245  17.499  0.00  0.00    +0.000 C 
ATOM      9  C   UNL     1       2.187   7.278  18.638  0.00  0.00    +0.000 A 
ATOM     10  C   UNL     1       2.400   5.897  18.604  0.00  0.00    +0.000 A 
ATOM     11  C   UNL     1       2.135   5.122  19.746  0.00  0.00    +0.000 A 
ATOM     12  C   UNL     1       1.658   5.795  20.882  0.00  0.00    +0.000 A 
ATOM     13  C   UNL     1       1.410   7.170  20.900  0.00  0.00    +0.000 A 
ATOM     14  C   UNL     1       1.678   7.912  19.775  0.00  0.00    +0.000 A 
ENDBRANCH   1  11
BRANCH   1  15
ATOM     15  C   UNL     1       3.452   2.993  19.535  0.00  0.00    +0.000 C 
ATOM     16  C   UNL     1       3.199   1.646  18.832  0.00  0.00    +0.000 C 
BRANCH  15  17
ATOM     17  C   UNL     1       4.574   3.680  18.812  0.00  0.00    +0.000 A 
ATOM     18  N   UNL     1       5.693   4.156  19.325  0.00  0.00    +0.000 NA
ATOM     19  N   UNL     1       6.480   4.529  18.259  0.00  0.00    +0.000 NA
ATOM     20  C   UNL     1       5.790   4.267  17.168  0.00  0.00    +0.000 A 
ATOM     21  O   UNL     1       4.545   3.742  17.448  0.00  0.00    +0.000 OA
BRANCH  20  22
ATOM     22  C   UNL     1       6.168   4.366  15.777  0.00  0.00    +0.000 A 
ATOM     23  C   UNL     1       7.286   5.128  15.387  0.00  0.00    +0.000 A 
ATOM     24  C   UNL     1       7.669   5.183  14.050  0.00  0.00    +0.000 A 
ATOM     25  C   UNL     1       6.946   4.490  13.071  0.00  0.00    +0.000 A 
ATOM     26  C   UNL     1       7.336   4.552  11.626  0.00  0.00    +0.000 C 
ATOM     27  C   UNL     1       5.834   3.732  13.461  0.00  0.00    +0.000 A 
ATOM     28  C   UNL     1       5.455   3.669  14.793  0.00  0.00    +0.000 A 
ENDBRANCH  20  22
ENDBRANCH  15  17
ENDBRANCH   1  15
TORSDOF 4
ENDMDL
MODEL 6
REMARK VINA RESULT:      -8.0      2.415      3.360
REMARK  Name = 
REMARK  7 active torsions:
REMARK  status: ('A' for Active; 'I' for Inactive)
REMARK    1  A    between atoms: C_1  and  C_2
REMARK    2  A    between atoms: C_9  and  N_10
REMARK    3  A    between atoms: N_10  and  C_11
REMARK    4  A    between atoms: C_11  and  C_12
REMARK    5  A    between atoms: C_11  and  C_13
REMARK    6  A    between atoms: C_16  and  C_17
REMARK    7  A    between atoms: C_20  and  C_21
REMARK                            x       y       z     vdW  Elec       q    Type
REMARK                         _______ _______ _______ _____ _____    ______ ____
ROOT
ATOM      1  N   UNL     1       2.389   3.472  19.172  0.00  0.00    +0.000 N 
ATOM      2  H   UNL     1       1.601   3.066  18.675  0.00  0.00    +0.000 HD
ENDROOT
BRANCH   1  11
ATOM      3  C   UNL     1       0.574   9.270  22.203  0.00  0.00    +0.000 C 
ATOM      4  C   UNL     1       0.865   9.783  20.817  0.00  0.00    +0.000 C 
ATOM      5  O   UNL     1       0.658  10.978  20.564  0.00  0.00    +0.000 OA
ATOM      6  N   UNL     1       1.380   8.931  19.866  0.00  0.00    +0.000 N 
ATOM      7  C   UNL     1       1.778   9.449  18.549  0.00  0.00    +0.000 C 
ATOM      8  C   UNL     1       2.098   8.241  17.661  0.00  0.00    +0.000 C 
ATOM      9  C   UNL     1       2.125   7.122  18.658  0.00  0.00    +0.000 A 
ATOM     10  C   UNL     1       2.407   5.775  18.413  0.00  0.00    +0.000 A 
ATOM     11  C   UNL     1       2.281   4.836  19.450  0.00  0.00    +0.000 A 
ATOM     12  C   UNL     1       1.867   5.316  20.703  0.00  0.00    +0.000 A 
ATOM     13  C   UNL     1       1.550   6.656  20.935  0.00  0.00    +0.000 A 
ATOM     14  C   UNL     1       1.682   7.561  19.908  0.00  0.00    +0.000 A 
ENDBRANCH   1  11
BRANCH   1  15
ATOM     15  C   UNL     1       3.693   2.834  18.895  0.00  0.00    +0.000 C 
ATOM     16  C   UNL     1       3.465   1.478  18.201  0.00  0.00    +0.000 C 
BRANCH  15  17
ATOM     17  C   UNL     1       4.678   3.608  18.068  0.00  0.00    +0.000 A 
ATOM     18  N   UNL     1       4.856   3.554  16.761  0.00  0.00    +0.000 NA
ATOM     19  N   UNL     1       5.735   4.564  16.447  0.00  0.00    +0.000 NA
ATOM     20  C   UNL     1       6.045   5.163  17.579  0.00  0.00    +0.000 A 
ATOM     21  O   UNL     1       5.422   4.586  18.665  0.00  0.00    +0.000 OA
BRANCH  20  22
ATOM     22  C   UNL     1       6.844   6.342  17.824  0.00  0.00    +0.000 A 
ATOM     23  C   UNL     1       6.613   7.530  17.105  0.00  0.00    +0.000 A 
ATOM     24  C   UNL     1       7.358   8.674  17.378  0.00  0.00    +0.000 A 
ATOM     25  C   UNL     1       8.354   8.659  18.362  0.00  0.00    +0.000 A 
ATOM     26  C   UNL     1       9.176   9.877  18.655  0.00  0.00    +0.000 C 
ATOM     27  C   UNL     1       8.583   7.476  19.076  0.00  0.00    +0.000 A 
ATOM     28  C   UNL     1       7.836   6.337  18.812  0.00  0.00    +0.000 A 
ENDBRANCH  20  22
ENDBRANCH  15  17
ENDBRANCH   1  15
TORSDOF 4
ENDMDL
MODEL 7
REMARK VINA RESULT:      -7.9      3.077      8.529
REMARK  Name = 
REMARK  7 active torsions:
REMARK  status: ('A' for Active; 'I' for Inactive)
REMARK    1  A    between atoms: C_1  and  C_2
REMARK    2  A    between atoms: C_9  and  N_10
REMARK    3  A    between atoms: N_10  and  C_11
REMARK    4  A    between atoms: C_11  and  C_12
REMARK    5  A    between atoms: C_11  and  C_13
REMARK    6  A    between atoms: C_16  and  C_17
REMARK    7  A    between atoms: C_20  and  C_21
REMARK                            x       y       z     vdW  Elec       q    Type
REMARK                         _______ _______ _______ _____ _____    ______ ____
ROOT
ATOM      1  N   UNL     1       1.605   8.409  21.367  0.00  0.00    +0.000 N 
ATOM      2  H   UNL     1       2.320   9.124  21.273  0.00  0.00    +0.000 HD
ENDROOT
BRANCH   1  11
ATOM      3  C   UNL     1       2.000   1.894  19.495  0.00  0.00    +0.000 C 
ATOM      4  C   UNL     1       2.890   2.517  18.452  0.00  0.00    +0.000 C 
ATOM      5  O   UNL     1       3.475   1.781  17.645  0.00  0.00    +0.000 OA
ATOM      6  N   UNL     1       3.020   3.887  18.391  0.00  0.00    +0.000 N 
ATOM      7  C   UNL     1       3.790   4.509  17.305  0.00  0.00    +0.000 C 
ATOM      8  C   UNL     1       3.926   5.999  17.637  0.00  0.00    +0.000 C 
ATOM      9  C   UNL     1       2.959   6.154  18.771  0.00  0.00    +0.000 A 
ATOM     10  C   UNL     1       2.639   7.329  19.459  0.00  0.00    +0.000 A 
ATOM     11  C   UNL     1       1.787   7.274  20.574  0.00  0.00    +0.000 A 
ATOM     12  C   UNL     1       1.295   6.013  20.944  0.00  0.00    +0.000 A 
ATOM     13  C   UNL     1       1.646   4.836  20.279  0.00  0.00    +0.000 A 
ATOM     14  C   UNL     1       2.479   4.910  19.187  0.00  0.00    +0.000 A 
ENDBRANCH   1  11
BRANCH   1  15
ATOM     15  C   UNL     1       0.258   8.918  21.702  0.00  0.00    +0.000 C 
ATOM     16  C   UNL     1       0.276   9.524  23.118  0.00  0.00    +0.000 C 
BRANCH  15  17
ATOM     17  C   UNL     1      -0.344   9.937  20.778  0.00  0.00    +0.000 A 
ATOM     18  N   UNL     1      -0.126  11.239  20.759  0.00  0.00    +0.000 NA
ATOM     19  N   UNL     1      -0.756  11.721  19.634  0.00  0.00    +0.000 NA
ATOM     20  C   UNL     1      -1.325  10.688  19.046  0.00  0.00    +0.000 A 
ATOM     21  O   UNL     1      -1.122   9.513  19.739  0.00  0.00    +0.000 OA
BRANCH  20  22
ATOM     22  C   UNL     1      -2.028  10.601  17.787  0.00  0.00    +0.000 A 
ATOM     23  C   UNL     1      -1.618   9.691  16.794  0.00  0.00    +0.000 A 
ATOM     24  C   UNL     1      -2.327   9.583  15.602  0.00  0.00    +0.000 A 
ATOM     25  C   UNL     1      -3.452  10.382  15.365  0.00  0.00    +0.000 A 
ATOM     26  C   UNL     1      -4.216  10.289  14.080  0.00  0.00    +0.000 C 
ATOM     27  C   UNL     1      -3.859  11.287  16.354  0.00  0.00    +0.000 A 
ATOM     28  C   UNL     1      -3.159  11.390  17.547  0.00  0.00    +0.000 A 
ENDBRANCH  20  22
ENDBRANCH  15  17
ENDBRANCH   1  15
TORSDOF 4
ENDMDL
MODEL 8
REMARK VINA RESULT:      -7.9      2.196      8.647
REMARK  Name = 
REMARK  7 active torsions:
REMARK  status: ('A' for Active; 'I' for Inactive)
REMARK    1  A    between atoms: C_1  and  C_2
REMARK    2  A    between atoms: C_9  and  N_10
REMARK    3  A    between atoms: N_10  and  C_11
REMARK    4  A    between atoms: C_11  and  C_12
REMARK    5  A    between atoms: C_11  and  C_13
REMARK    6  A    between atoms: C_16  and  C_17
REMARK    7  A    between atoms: C_20  and  C_21
REMARK                            x       y       z     vdW  Elec       q    Type
REMARK                         _______ _______ _______ _____ _____    ______ ____
ROOT
ATOM      1  N   UNL     1       3.397   3.617  19.746  0.00  0.00    +0.000 N 
ATOM      2  H   UNL     1       3.951   3.150  20.458  0.00  0.00    +0.000 HD
ENDROOT
BRANCH   1  11
ATOM      3  C   UNL     1       6.221   4.034  13.585  0.00  0.00    +0.000 C 
ATOM      4  C   UNL     1       7.132   4.959  14.350  0.00  0.00    +0.000 C 
ATOM      5  O   UNL     1       8.106   5.458  13.769  0.00  0.00    +0.000 OA
ATOM      6  N   UNL     1       6.856   5.259  15.665  0.00  0.00    +0.000 N 
ATOM      7  C   UNL     1       7.668   6.251  16.383  0.00  0.00    +0.000 C 
ATOM      8  C   UNL     1       7.256   6.198  17.859  0.00  0.00    +0.000 C 
ATOM      9  C   UNL     1       6.017   5.357  17.804  0.00  0.00    +0.000 A 
ATOM     10  C   UNL     1       5.185   5.001  18.871  0.00  0.00    +0.000 A 
ATOM     11  C   UNL     1       4.120   4.111  18.658  0.00  0.00    +0.000 A 
ATOM     12  C   UNL     1       3.948   3.616  17.355  0.00  0.00    +0.000 A 
ATOM     13  C   UNL     1       4.803   3.943  16.301  0.00  0.00    +0.000 A 
ATOM     14  C   UNL     1       5.838   4.818  16.527  0.00  0.00    +0.000 A 
ENDBRANCH   1  11
BRANCH   1  15
ATOM     15  C   UNL     1       2.183   4.294  20.248  0.00  0.00    +0.000 C 
ATOM     16  C   UNL     1       1.990   3.966  21.740  0.00  0.00    +0.000 C 
BRANCH  15  17
ATOM     17  C   UNL     1       2.112   5.785  20.096  0.00  0.00    +0.000 A 
ATOM     18  N   UNL     1       2.547   6.516  19.087  0.00  0.00    +0.000 NA
ATOM     19  N   UNL     1       2.102   7.798  19.316  0.00  0.00    +0.000 NA
ATOM     20  C   UNL     1       1.434   7.771  20.452  0.00  0.00    +0.000 A 
ATOM     21  O   UNL     1       1.420   6.515  21.021  0.00  0.00    +0.000 OA
BRANCH  20  22
ATOM     22  C   UNL     1       0.674   8.806  21.113  0.00  0.00    +0.000 A 
ATOM     23  C   UNL     1       0.385   8.720  22.488  0.00  0.00    +0.000 A 
ATOM     24  C   UNL     1      -0.310   9.742  23.127  0.00  0.00    +0.000 A 
ATOM     25  C   UNL     1      -0.741  10.867  22.413  0.00  0.00    +0.000 A 
ATOM     26  C   UNL     1      -1.504  11.969  23.083  0.00  0.00    +0.000 C 
ATOM     27  C   UNL     1      -0.452  10.952  21.044  0.00  0.00    +0.000 A 
ATOM     28  C   UNL     1       0.248   9.938  20.408  0.00  0.00    +0.000 A 
ENDBRANCH  20  22
ENDBRANCH  15  17
ENDBRANCH   1  15
TORSDOF 4
ENDMDL
MODEL 9
REMARK VINA RESULT:      -7.9      3.391      9.598
REMARK  Name = 
REMARK  7 active torsions:
REMARK  status: ('A' for Active; 'I' for Inactive)
REMARK    1  A    between atoms: C_1  and  C_2
REMARK    2  A    between atoms: C_9  and  N_10
REMARK    3  A    between atoms: N_10  and  C_11
REMARK    4  A    between atoms: C_11  and  C_12
REMARK    5  A    between atoms: C_11  and  C_13
REMARK    6  A    between atoms: C_16  and  C_17
REMARK    7  A    between atoms: C_20  and  C_21
REMARK                            x       y       z     vdW  Elec       q    Type
REMARK                         _______ _______ _______ _____ _____    ______ ____
ROOT
ATOM      1  N   UNL     1       1.213   8.807  20.413  0.00  0.00    +0.000 N 
ATOM      2  H   UNL     1       1.366   9.127  21.365  0.00  0.00    +0.000 HD
ENDROOT
BRANCH   1  11
ATOM      3  C   UNL     1       4.158   3.842  16.840  0.00  0.00    +0.000 C 
ATOM      4  C   UNL     1       3.515   3.027  17.932  0.00  0.00    +0.000 C 
ATOM      5  O   UNL     1       3.598   1.792  17.887  0.00  0.00    +0.000 OA
ATOM      6  N   UNL     1       2.873   3.662  18.972  0.00  0.00    +0.000 N 
ATOM      7  C   UNL     1       2.348   2.883  20.101  0.00  0.00    +0.000 C 
ATOM      8  C   UNL     1       1.515   3.836  20.966  0.00  0.00    +0.000 C 
ATOM      9  C   UNL     1       1.878   5.172  20.392  0.00  0.00    +0.000 A 
ATOM     10  C   UNL     1       1.436   6.428  20.820  0.00  0.00    +0.000 A 
ATOM     11  C   UNL     1       1.792   7.577  20.095  0.00  0.00    +0.000 A 
ATOM     12  C   UNL     1       2.589   7.395  18.954  0.00  0.00    +0.000 A 
ATOM     13  C   UNL     1       2.998   6.136  18.508  0.00  0.00    +0.000 A 
ATOM     14  C   UNL     1       2.642   5.023  19.232  0.00  0.00    +0.000 A 
ENDBRANCH   1  11
BRANCH   1  15
ATOM     15  C   UNL     1       1.072   9.885  19.411  0.00  0.00    +0.000 C 
ATOM     16  C   UNL     1      -0.200   9.647  18.576  0.00  0.00    +0.000 C 
BRANCH  15  17
ATOM     17  C   UNL     1       1.026  11.297  19.919  0.00  0.00    +0.000 A 
ATOM     18  N   UNL     1       1.318  11.729  21.132  0.00  0.00    +0.000 NA
ATOM     19  N   UNL     1       1.302  13.103  21.068  0.00  0.00    +0.000 NA
ATOM     20  C   UNL     1       0.993  13.422  19.827  0.00  0.00    +0.000 A 
ATOM     21  O   UNL     1       0.778  12.312  19.039  0.00  0.00    +0.000 OA
BRANCH  20  22
ATOM     22  C   UNL     1       0.935  14.713  19.182  0.00  0.00    +0.000 A 
ATOM     23  C   UNL     1      -0.300  15.351  18.958  0.00  0.00    +0.000 A 
ATOM     24  C   UNL     1      -0.344  16.615  18.375  0.00  0.00    +0.000 A 
ATOM     25  C   UNL     1       0.835  17.266  17.993  0.00  0.00    +0.000 A 
ATOM     26  C   UNL     1       0.802  18.619  17.350  0.00  0.00    +0.000 C 
ATOM     27  C   UNL     1       2.063  16.630  18.217  0.00  0.00    +0.000 A 
ATOM     28  C   UNL     1       2.110  15.375  18.805  0.00  0.00    +0.000 A 
ENDBRANCH  20  22
ENDBRANCH  15  17
ENDBRANCH   1  15
TORSDOF 4
ENDMDL
