MODEL 1
REMARK VINA RESULT:      -7.8      0.000      0.000
REMARK  Name = 
REMARK  6 active torsions:
REMARK  status: ('A' for Active; 'I' for Inactive)
REMARK    1  A    between atoms: C_1  and  N_2
REMARK    2  A    between atoms: C_6  and  C_7
REMARK    3  A    between atoms: C_7  and  C_8
REMARK    4  A    between atoms: C_8  and  C_9
REMARK    5  A    between atoms: C_13  and  N_14
REMARK    6  A    between atoms: C_20  and  C_21
REMARK                            x       y       z     vdW  Elec       q    Type
REMARK                         _______ _______ _______ _____ _____    ______ ____
ROOT
ATOM      1  C   UNL     1       3.256   4.074  19.466  0.00  0.00    +0.000 A 
ATOM      2  C   UNL     1       2.898   3.619  18.180  0.00  0.00    +0.000 A 
ATOM      3  C   UNL     1       3.855   3.209  17.257  0.00  0.00    +0.000 A 
ATOM      4  C   UNL     1       5.202   3.377  17.544  0.00  0.00    +0.000 A 
ATOM      5  C   UNL     1       5.571   4.118  18.674  0.00  0.00    +0.000 A 
ATOM      6  C   UNL     1       4.627   4.308  19.687  0.00  0.00    +0.000 A 
ENDROOT
BRANCH   5   7
ATOM      7  N   UNL     1       6.665   5.079  18.580  0.00  0.00    +0.000 N 
ATOM      8  C   UNL     1       6.131   6.397  18.121  0.00  0.00    +0.000 C 
ATOM      9  C   UNL     1       6.197   6.226  16.639  0.00  0.00    +0.000 A 
ATOM     10  C   UNL     1       5.211   6.430  15.699  0.00  0.00    +0.000 A 
ATOM     11  F   UNL     1       4.102   7.108  16.018  0.00  0.00    +0.000 F 
ATOM     12  C   UNL     1       5.281   5.757  14.473  0.00  0.00    +0.000 A 
ATOM     13  C   UNL     1       6.358   4.888  14.179  0.00  0.00    +0.000 A 
ATOM     14  C   UNL     1       7.377   4.714  15.130  0.00  0.00    +0.000 A 
ATOM     15  C   UNL     1       7.254   5.358  16.351  0.00  0.00    +0.000 A 
ATOM     16  C   UNL     1       7.680   4.759  17.638  0.00  0.00    +0.000 C 
ATOM     17  O   UNL     1       8.591   3.951  17.746  0.00  0.00    +0.000 OA
BRANCH  13  18
ATOM     18  C   UNL     1       6.357   3.994  13.013  0.00  0.00    +0.000 C 
ATOM     19  C   UNL     1       5.366   3.181  12.653  0.00  0.00    +0.000 C 
ATOM     20  F   UNL     1       5.479   2.388  11.571  0.00  0.00    +0.000 F 
ENDBRANCH  13  18
ENDBRANCH   5   7
BRANCH   1  21
ATOM     21  C   UNL     1       2.167   4.296  20.617  0.00  0.00    +0.000 C 
ATOM     22  C   UNL     1       0.727   3.835  20.243  0.00  0.00    +0.000 C 
ATOM     23  O   UNL     1       0.676   2.899  21.335  0.00  0.00    +0.000 OA
ATOM     24  C   UNL     1       2.054   3.165  21.677  0.00  0.00    +0.000 C 
BRANCH  21  25
ATOM     25  C   UNL     1       2.158   5.741  21.165  0.00  0.00    +0.000 C 
BRANCH  25  31
ATOM     26  C   UNL     1       1.001   8.638  21.606  0.00  0.00    +0.000 C 
ATOM     27  N   UNL     1       1.517   8.086  20.381  0.00  0.00    +0.000 N 
ATOM     28  C   UNL     1       1.631   8.764  19.207  0.00  0.00    +0.000 A 
ATOM     29  N   UNL     1       2.115   7.972  18.286  0.00  0.00    +0.000 NA
ATOM     30  N   UNL     1       2.369   6.760  18.879  0.00  0.00    +0.000 NA
ATOM     31  C   UNL     1       2.001   6.823  20.143  0.00  0.00    +0.000 A 
ENDBRANCH  25  31
ENDBRANCH  21  25
ENDBRANCH   1  21
TORSDOF 5
ENDMDL
MODEL 2
REMARK VINA RESULT:      -7.8      8.339     11.595
REMARK  Name = 
REMARK  6 active torsions:
REMARK  status: ('A' for Active; 'I' for Inactive)
REMARK    1  A    between atoms: C_1  and  N_2
REMARK    2  A    between atoms: C_6  and  C_7
REMARK    3  A    between atoms: C_7  and  C_8
REMARK    4  A    between atoms: C_8  and  C_9
REMARK    5  A    between atoms: C_13  and  N_14
REMARK    6  A    between atoms: C_20  and  C_21
REMARK                            x       y       z     vdW  Elec       q    Type
REMARK                         _______ _______ _______ _____ _____    ______ ____
ROOT
ATOM      1  C   UNL     1      -3.650  11.286  18.120  0.00  0.00    +0.000 A 
ATOM      2  C   UNL     1      -3.496  10.640  16.877  0.00  0.00    +0.000 A 
ATOM      3  C   UNL     1      -2.345   9.923  16.562  0.00  0.00    +0.000 A 
ATOM      4  C   UNL     1      -1.261   9.953  17.427  0.00  0.00    +0.000 A 
ATOM      5  C   UNL     1      -1.275  10.844  18.508  0.00  0.00    +0.000 A 
ATOM      6  C   UNL     1      -2.501  11.363  18.931  0.00  0.00    +0.000 A 
ENDROOT
BRANCH   5   7
ATOM      7  N   UNL     1      -0.071  11.602  18.833  0.00  0.00    +0.000 N 
ATOM      8  C   UNL     1       0.753  10.832  19.812  0.00  0.00    +0.000 C 
ATOM      9  C   UNL     1       0.157  11.290  21.102  0.00  0.00    +0.000 A 
ATOM     10  C   UNL     1      -0.312  10.537  22.156  0.00  0.00    +0.000 A 
ATOM     11  F   UNL     1      -0.009   9.236  22.245  0.00  0.00    +0.000 F 
ATOM     12  C   UNL     1      -1.267  11.085  23.021  0.00  0.00    +0.000 A 
ATOM     13  C   UNL     1      -1.742  12.405  22.841  0.00  0.00    +0.000 A 
ATOM     14  C   UNL     1      -1.231  13.178  21.785  0.00  0.00    +0.000 A 
ATOM     15  C   UNL     1      -0.322  12.590  20.919  0.00  0.00    +0.000 A 
ATOM     16  C   UNL     1      -0.290  12.858  19.462  0.00  0.00    +0.000 C 
ATOM     17  O   UNL     1      -0.642  13.912  18.954  0.00  0.00    +0.000 OA
BRANCH  13  18
ATOM     18  C   UNL     1      -2.897  12.937  23.575  0.00  0.00    +0.000 C 
ATOM     19  C   UNL     1      -3.804  12.216  24.233  0.00  0.00    +0.000 C 
ATOM     20  F   UNL     1      -4.838  12.809  24.859  0.00  0.00    +0.000 F 
ENDBRANCH  13  18
ENDBRANCH   5   7
BRANCH   1  21
ATOM     21  C   UNL     1      -5.057  11.885  18.592  0.00  0.00    +0.000 C 
ATOM     22  C   UNL     1      -5.898  12.534  17.455  0.00  0.00    +0.000 C 
ATOM     23  O   UNL     1      -6.997  11.629  17.666  0.00  0.00    +0.000 OA
ATOM     24  C   UNL     1      -6.243  10.881  18.644  0.00  0.00    +0.000 C 
BRANCH  21  25
ATOM     25  C   UNL     1      -4.928  12.843  19.798  0.00  0.00    +0.000 C 
BRANCH  25  31
ATOM     26  C   UNL     1      -7.488  14.669  20.005  0.00  0.00    +0.000 C 
ATOM     27  N   UNL     1      -7.141  13.559  20.853  0.00  0.00    +0.000 N 
ATOM     28  C   UNL     1      -7.910  13.087  21.872  0.00  0.00    +0.000 A 
ATOM     29  N   UNL     1      -7.301  12.087  22.457  0.00  0.00    +0.000 NA
ATOM     30  N   UNL     1      -6.128  11.868  21.777  0.00  0.00    +0.000 NA
ATOM     31  C   UNL     1      -6.024  12.760  20.813  0.00  0.00    +0.000 A 
ENDBRANCH  25  31
ENDBRANCH  21  25
ENDBRANCH   1  21
TORSDOF 5
ENDMDL
MODEL 3
REMARK VINA RESULT:      -7.7      2.632      4.013
REMARK  Name = 
REMARK  6 active torsions:
REMARK  status: ('A' for Active; 'I' for Inactive)
REMARK    1  A    between atoms: C_1  and  N_2
REMARK    2  A    between atoms: C_6  and  C_7
REMARK    3  A    between atoms: C_7  and  C_8
REMARK    4  A    between atoms: C_8  and  C_9
REMARK    5  A    between atoms: C_13  and  N_14
REMARK    6  A    between atoms: C_20  and  C_21
REMARK                            x       y       z     vdW  Elec       q    Type
REMARK                         _______ _______ _______ _____ _____    ______ ____
ROOT
ATOM      1  C   UNL     1       1.854   8.185  19.573  0.00  0.00    +0.000 A 
ATOM      2  C   UNL     1       2.354   8.643  18.338  0.00  0.00    +0.000 A 
ATOM      3  C   UNL     1       2.824   7.764  17.368  0.00  0.00    +0.000 A 
ATOM      4  C   UNL     1       2.937   6.413  17.663  0.00  0.00    +0.000 A 
ATOM      5  C   UNL     1       2.748   5.985  18.984  0.00  0.00    +0.000 A 
ATOM      6  C   UNL     1       2.062   6.823  19.866  0.00  0.00    +0.000 A 
ENDROOT
BRANCH   5   7
ATOM      7  N   UNL     1       3.655   4.996  19.557  0.00  0.00    +0.000 N 
ATOM      8  C   UNL     1       5.030   5.573  19.644  0.00  0.00    +0.000 C 
ATOM      9  C   UNL     1       5.564   5.230  18.292  0.00  0.00    +0.000 A 
ATOM     10  C   UNL     1       6.170   6.051  17.366  0.00  0.00    +0.000 A 
ATOM     11  F   UNL     1       6.613   7.263  17.724  0.00  0.00    +0.000 F 
ATOM     12  C   UNL     1       6.140   5.699  16.011  0.00  0.00    +0.000 A 
ATOM     13  C   UNL     1       5.515   4.504  15.582  0.00  0.00    +0.000 A 
ATOM     14  C   UNL     1       4.932   3.655  16.538  0.00  0.00    +0.000 A 
ATOM     15  C   UNL     1       4.938   4.057  17.865  0.00  0.00    +0.000 A 
ATOM     16  C   UNL     1       3.816   3.804  18.800  0.00  0.00    +0.000 C 
ATOM     17  O   UNL     1       3.058   2.848  18.715  0.00  0.00    +0.000 OA
BRANCH  13  18
ATOM     18  C   UNL     1       5.261   4.209  14.166  0.00  0.00    +0.000 C 
ATOM     19  C   UNL     1       6.154   3.750  13.291  0.00  0.00    +0.000 C 
ATOM     20  F   UNL     1       5.816   3.531  12.007  0.00  0.00    +0.000 F 
ENDBRANCH  13  18
ENDBRANCH   5   7
BRANCH   1  21
ATOM     21  C   UNL     1       1.075   9.155  20.581  0.00  0.00    +0.000 C 
ATOM     22  C   UNL     1      -0.230   8.554  21.179  0.00  0.00    +0.000 C 
ATOM     23  O   UNL     1       0.255   8.680  22.528  0.00  0.00    +0.000 OA
ATOM     24  C   UNL     1       1.548   9.122  22.062  0.00  0.00    +0.000 C 
BRANCH  21  25
ATOM     25  C   UNL     1       0.814  10.557  19.985  0.00  0.00    +0.000 C 
BRANCH  25  31
ATOM     26  C   UNL     1      -1.659  12.270  20.920  0.00  0.00    +0.000 C 
ATOM     27  N   UNL     1      -1.539  11.509  19.704  0.00  0.00    +0.000 N 
ATOM     28  C   UNL     1      -2.482  11.450  18.725  0.00  0.00    +0.000 A 
ATOM     29  N   UNL     1      -2.074  10.656  17.768  0.00  0.00    +0.000 NA
ATOM     30  N   UNL     1      -0.816  10.222  18.104  0.00  0.00    +0.000 NA
ATOM     31  C   UNL     1      -0.492  10.728  19.277  0.00  0.00    +0.000 A 
ENDBRANCH  25  31
ENDBRANCH  21  25
ENDBRANCH   1  21
TORSDOF 5
ENDMDL
MODEL 4
REMARK VINA RESULT:      -7.7      2.679      4.150
REMARK  Name = 
REMARK  6 active torsions:
REMARK  status: ('A' for Active; 'I' for Inactive)
REMARK    1  A    between atoms: C_1  and  N_2
REMARK    2  A    between atoms: C_6  and  C_7
REMARK    3  A    between atoms: C_7  and  C_8
REMARK    4  A    between atoms: C_8  and  C_9
REMARK    5  A    between atoms: C_13  and  N_14
REMARK    6  A    between atoms: C_20  and  C_21
REMARK                            x       y       z     vdW  Elec       q    Type
REMARK                         _______ _______ _______ _____ _____    ______ ____
ROOT
ATOM      1  C   UNL     1       1.853   8.197  19.499  0.00  0.00    +0.000 A 
ATOM      2  C   UNL     1       2.379   8.692  18.289  0.00  0.00    +0.000 A 
ATOM      3  C   UNL     1       2.928   7.847  17.330  0.00  0.00    +0.000 A 
ATOM      4  C   UNL     1       3.094   6.500  17.617  0.00  0.00    +0.000 A 
ATOM      5  C   UNL     1       2.875   6.049  18.925  0.00  0.00    +0.000 A 
ATOM      6  C   UNL     1       2.115   6.843  19.787  0.00  0.00    +0.000 A 
ENDROOT
BRANCH   5   7
ATOM      7  N   UNL     1       3.804   5.097  19.525  0.00  0.00    +0.000 N 
ATOM      8  C   UNL     1       5.172   5.697  19.566  0.00  0.00    +0.000 C 
ATOM      9  C   UNL     1       5.690   5.307  18.221  0.00  0.00    +0.000 A 
ATOM     10  C   UNL     1       6.270   6.097  17.253  0.00  0.00    +0.000 A 
ATOM     11  F   UNL     1       6.700   7.329  17.554  0.00  0.00    +0.000 F 
ATOM     12  C   UNL     1       6.225   5.688  15.915  0.00  0.00    +0.000 A 
ATOM     13  C   UNL     1       5.613   4.468  15.545  0.00  0.00    +0.000 A 
ATOM     14  C   UNL     1       5.057   3.651  16.544  0.00  0.00    +0.000 A 
ATOM     15  C   UNL     1       5.076   4.107  17.853  0.00  0.00    +0.000 A 
ATOM     16  C   UNL     1       3.973   3.877  18.815  0.00  0.00    +0.000 C 
ATOM     17  O   UNL     1       3.228   2.908  18.781  0.00  0.00    +0.000 OA
BRANCH  13  18
ATOM     18  C   UNL     1       5.342   4.111  14.147  0.00  0.00    +0.000 C 
ATOM     19  C   UNL     1       6.258   3.842  13.218  0.00  0.00    +0.000 C 
ATOM     20  F   UNL     1       5.897   3.543  11.956  0.00  0.00    +0.000 F 
ENDBRANCH  13  18
ENDBRANCH   5   7
BRANCH   1  21
ATOM     21  C   UNL     1       0.990   9.117  20.484  0.00  0.00    +0.000 C 
ATOM     22  C   UNL     1      -0.144   8.367  21.243  0.00  0.00    +0.000 C 
ATOM     23  O   UNL     1       0.406   8.706  22.529  0.00  0.00    +0.000 OA
ATOM     24  C   UNL     1       1.565   9.311  21.915  0.00  0.00    +0.000 C 
BRANCH  21  25
ATOM     25  C   UNL     1       0.445  10.389  19.796  0.00  0.00    +0.000 C 
BRANCH  25  31
ATOM     26  C   UNL     1       2.389  12.360  18.292  0.00  0.00    +0.000 C 
ATOM     27  N   UNL     1       1.818  12.534  19.601  0.00  0.00    +0.000 N 
ATOM     28  C   UNL     1       1.997  13.627  20.391  0.00  0.00    +0.000 A 
ATOM     29  N   UNL     1       1.363  13.462  21.523  0.00  0.00    +0.000 NA
ATOM     30  N   UNL     1       0.714  12.253  21.456  0.00  0.00    +0.000 NA
ATOM     31  C   UNL     1       0.993  11.686  20.300  0.00  0.00    +0.000 A 
ENDBRANCH  25  31
ENDBRANCH  21  25
ENDBRANCH   1  21
TORSDOF 5
ENDMDL
MODEL 5
REMARK VINA RESULT:      -7.6      3.369      7.399
REMARK  Name = 
REMARK  6 active torsions:
REMARK  status: ('A' for Active; 'I' for Inactive)
REMARK    1  A    between atoms: C_1  and  N_2
REMARK    2  A    between atoms: C_6  and  C_7
REMARK    3  A    between atoms: C_7  and  C_8
REMARK    4  A    between atoms: C_8  and  C_9
REMARK    5  A    between atoms: C_13  and  N_14
REMARK    6  A    between atoms: C_20  and  C_21
REMARK                            x       y       z     vdW  Elec       q    Type
REMARK                         _______ _______ _______ _____ _____    ______ ____
ROOT
ATOM      1  C   UNL     1       2.279   5.767  18.868  0.00  0.00    +0.000 A 
ATOM      2  C   UNL     1       2.143   6.638  17.768  0.00  0.00    +0.000 A 
ATOM      3  C   UNL     1       2.101   8.019  17.930  0.00  0.00    +0.000 A 
ATOM      4  C   UNL     1       2.053   8.559  19.207  0.00  0.00    +0.000 A 
ATOM      5  C   UNL     1       1.864   7.706  20.302  0.00  0.00    +0.000 A 
ATOM      6  C   UNL     1       2.143   6.346  20.145  0.00  0.00    +0.000 A 
ENDROOT
BRANCH   5   7
ATOM      7  N   UNL     1       0.940   8.089  21.364  0.00  0.00    +0.000 N 
ATOM      8  C   UNL     1      -0.423   8.293  20.787  0.00  0.00    +0.000 C 
ATOM      9  C   UNL     1      -0.344   9.728  20.382  0.00  0.00    +0.000 A 
ATOM     10  C   UNL     1      -0.644  10.303  19.166  0.00  0.00    +0.000 A 
ATOM     11  F   UNL     1      -1.340   9.621  18.248  0.00  0.00    +0.000 F 
ATOM     12  C   UNL     1      -0.048  11.521  18.816  0.00  0.00    +0.000 A 
ATOM     13  C   UNL     1       0.839  12.179  19.700  0.00  0.00    +0.000 A 
ATOM     14  C   UNL     1       1.110  11.603  20.952  0.00  0.00    +0.000 A 
ATOM     15  C   UNL     1       0.541  10.374  21.248  0.00  0.00    +0.000 A 
ATOM     16  C   UNL     1       1.236   9.316  22.019  0.00  0.00    +0.000 C 
ATOM     17  O   UNL     1       2.082   9.537  22.873  0.00  0.00    +0.000 OA
BRANCH  13  18
ATOM     18  C   UNL     1       1.656  13.328  19.290  0.00  0.00    +0.000 C 
ATOM     19  C   UNL     1       2.645  13.306  18.399  0.00  0.00    +0.000 C 
ATOM     20  F   UNL     1       3.343  14.420  18.110  0.00  0.00    +0.000 F 
ENDBRANCH  13  18
ENDBRANCH   5   7
BRANCH   1  21
ATOM     21  C   UNL     1       2.590   4.208  18.678  0.00  0.00    +0.000 C 
ATOM     22  C   UNL     1       2.707   3.405  20.006  0.00  0.00    +0.000 C 
ATOM     23  O   UNL     1       1.628   2.526  19.642  0.00  0.00    +0.000 OA
ATOM     24  C   UNL     1       1.358   3.290  18.447  0.00  0.00    +0.000 C 
BRANCH  21  25
ATOM     25  C   UNL     1       3.810   3.946  17.766  0.00  0.00    +0.000 C 
BRANCH  25  31
ATOM     26  C   UNL     1       5.368   6.267  16.312  0.00  0.00    +0.000 C 
ATOM     27  N   UNL     1       5.727   5.620  17.547  0.00  0.00    +0.000 N 
ATOM     28  C   UNL     1       6.796   5.952  18.319  0.00  0.00    +0.000 A 
ATOM     29  N   UNL     1       6.853   5.160  19.358  0.00  0.00    +0.000 NA
ATOM     30  N   UNL     1       5.770   4.319  19.292  0.00  0.00    +0.000 NA
ATOM     31  C   UNL     1       5.092   4.588  18.194  0.00  0.00    +0.000 A 
ENDBRANCH  25  31
ENDBRANCH  21  25
ENDBRANCH   1  21
TORSDOF 5
ENDMDL
MODEL 6
REMARK VINA RESULT:      -7.6      3.161      5.018
REMARK  Name = 
REMARK  6 active torsions:
REMARK  status: ('A' for Active; 'I' for Inactive)
REMARK    1  A    between atoms: C_1  and  N_2
REMARK    2  A    between atoms: C_6  and  C_7
REMARK    3  A    between atoms: C_7  and  C_8
REMARK    4  A    between atoms: C_8  and  C_9
REMARK    5  A    between atoms: C_13  and  N_14
REMARK    6  A    between atoms: C_20  and  C_21
REMARK                            x       y       z     vdW  Elec       q    Type
REMARK                         _______ _______ _______ _____ _____    ______ ____
ROOT
ATOM      1  C   UNL     1       1.623   7.410  20.462  0.00  0.00    +0.000 A 
ATOM      2  C   UNL     1       1.324   6.186  21.093  0.00  0.00    +0.000 A 
ATOM      3  C   UNL     1       2.055   5.031  20.832  0.00  0.00    +0.000 A 
ATOM      4  C   UNL     1       3.012   5.038  19.828  0.00  0.00    +0.000 A 
ATOM      5  C   UNL     1       3.100   6.147  18.976  0.00  0.00    +0.000 A 
ATOM      6  C   UNL     1       2.540   7.356  19.394  0.00  0.00    +0.000 A 
ENDROOT
BRANCH   5   7
ATOM      7  N   UNL     1       3.277   5.942  17.543  0.00  0.00    +0.000 N 
ATOM      8  C   UNL     1       4.093   4.711  17.313  0.00  0.00    +0.000 C 
ATOM      9  C   UNL     1       5.474   5.276  17.370  0.00  0.00    +0.000 A 
ATOM     10  C   UNL     1       6.552   4.854  18.117  0.00  0.00    +0.000 A 
ATOM     11  F   UNL     1       6.541   3.650  18.701  0.00  0.00    +0.000 F 
ATOM     12  C   UNL     1       7.570   5.765  18.429  0.00  0.00    +0.000 A 
ATOM     13  C   UNL     1       7.516   7.102  17.973  0.00  0.00    +0.000 A 
ATOM     14  C   UNL     1       6.431   7.513  17.181  0.00  0.00    +0.000 A 
ATOM     15  C   UNL     1       5.418   6.600  16.930  0.00  0.00    +0.000 A 
ATOM     16  C   UNL     1       3.984   6.969  16.861  0.00  0.00    +0.000 C 
ATOM     17  O   UNL     1       3.578   8.067  16.507  0.00  0.00    +0.000 OA
BRANCH  13  18
ATOM     18  C   UNL     1       8.433   8.141  18.460  0.00  0.00    +0.000 C 
ATOM     19  C   UNL     1       8.396   9.432  18.134  0.00  0.00    +0.000 C 
ATOM     20  F   UNL     1       9.301  10.297  18.628  0.00  0.00    +0.000 F 
ENDBRANCH  13  18
ENDBRANCH   5   7
BRANCH   1  21
ATOM     21  C   UNL     1       0.969   8.790  20.943  0.00  0.00    +0.000 C 
ATOM     22  C   UNL     1      -0.502   8.671  21.437  0.00  0.00    +0.000 C 
ATOM     23  O   UNL     1      -0.170   9.174  22.744  0.00  0.00    +0.000 OA
ATOM     24  C   UNL     1       1.237   9.194  22.419  0.00  0.00    +0.000 C 
BRANCH  21  25
ATOM     25  C   UNL     1       1.109   9.918  19.896  0.00  0.00    +0.000 C 
BRANCH  25  31
ATOM     26  C   UNL     1      -1.109  12.088  20.444  0.00  0.00    +0.000 C 
ATOM     27  N   UNL     1      -1.042  11.175  19.333  0.00  0.00    +0.000 N 
ATOM     28  C   UNL     1      -1.924  11.141  18.298  0.00  0.00    +0.000 A 
ATOM     29  N   UNL     1      -1.595  10.185  17.469  0.00  0.00    +0.000 NA
ATOM     30  N   UNL     1      -0.443   9.609  17.945  0.00  0.00    +0.000 NA
ATOM     31  C   UNL     1      -0.111  10.199  19.076  0.00  0.00    +0.000 A 
ENDBRANCH  25  31
ENDBRANCH  21  25
ENDBRANCH   1  21
TORSDOF 5
ENDMDL
MODEL 7
REMARK VINA RESULT:      -7.5      1.985      3.040
REMARK  Name = 
REMARK  6 active torsions:
REMARK  status: ('A' for Active; 'I' for Inactive)
REMARK    1  A    between atoms: C_1  and  N_2
REMARK    2  A    between atoms: C_6  and  C_7
REMARK    3  A    between atoms: C_7  and  C_8
REMARK    4  A    between atoms: C_8  and  C_9
REMARK    5  A    between atoms: C_13  and  N_14
REMARK    6  A    between atoms: C_20  and  C_21
REMARK                            x       y       z     vdW  Elec       q    Type
REMARK                         _______ _______ _______ _____ _____    ______ ____
ROOT
ATOM      1  C   UNL     1       3.294   5.275  18.929  0.00  0.00    +0.000 A 
ATOM      2  C   UNL     1       3.166   4.082  18.190  0.00  0.00    +0.000 A 
ATOM      3  C   UNL     1       4.230   3.199  18.036  0.00  0.00    +0.000 A 
ATOM      4  C   UNL     1       5.488   3.554  18.500  0.00  0.00    +0.000 A 
ATOM      5  C   UNL     1       5.706   4.863  18.950  0.00  0.00    +0.000 A 
ATOM      6  C   UNL     1       4.601   5.638  19.310  0.00  0.00    +0.000 A 
ENDROOT
BRANCH   5   7
ATOM      7  N   UNL     1       6.928   5.562  18.567  0.00  0.00    +0.000 N 
ATOM      8  C   UNL     1       6.574   6.838  17.874  0.00  0.00    +0.000 C 
ATOM      9  C   UNL     1       6.442   6.364  16.464  0.00  0.00    +0.000 A 
ATOM     10  C   UNL     1       5.404   6.557  15.578  0.00  0.00    +0.000 A 
ATOM     11  F   UNL     1       4.467   7.481  15.825  0.00  0.00    +0.000 F 
ATOM     12  C   UNL     1       5.221   5.651  14.526  0.00  0.00    +0.000 A 
ATOM     13  C   UNL     1       6.097   4.554  14.348  0.00  0.00    +0.000 A 
ATOM     14  C   UNL     1       7.173   4.387  15.235  0.00  0.00    +0.000 A 
ATOM     15  C   UNL     1       7.299   5.274  16.293  0.00  0.00    +0.000 A 
ATOM     16  C   UNL     1       7.762   4.876  17.643  0.00  0.00    +0.000 C 
ATOM     17  O   UNL     1       8.530   3.949  17.855  0.00  0.00    +0.000 OA
BRANCH  13  18
ATOM     18  C   UNL     1       5.814   3.462  13.408  0.00  0.00    +0.000 C 
ATOM     19  C   UNL     1       6.308   3.342  12.178  0.00  0.00    +0.000 C 
ATOM     20  F   UNL     1       5.966   2.304  11.392  0.00  0.00    +0.000 F 
ENDBRANCH  13  18
ENDBRANCH   5   7
BRANCH   1  21
ATOM     21  C   UNL     1       2.023   6.161  19.331  0.00  0.00    +0.000 C 
ATOM     22  C   UNL     1       2.362   7.461  20.117  0.00  0.00    +0.000 C 
ATOM     23  O   UNL     1       1.761   8.300  19.114  0.00  0.00    +0.000 OA
ATOM     24  C   UNL     1       1.523   7.164  18.254  0.00  0.00    +0.000 C 
BRANCH  21  25
ATOM     25  C   UNL     1       0.929   5.347  20.058  0.00  0.00    +0.000 C 
BRANCH  25  31
ATOM     26  C   UNL     1       0.454   2.346  19.223  0.00  0.00    +0.000 C 
ATOM     27  N   UNL     1       1.195   2.825  20.360  0.00  0.00    +0.000 N 
ATOM     28  C   UNL     1       1.861   2.035  21.245  0.00  0.00    +0.000 A 
ATOM     29  N   UNL     1       2.412   2.777  22.171  0.00  0.00    +0.000 NA
ATOM     30  N   UNL     1       2.141   4.087  21.861  0.00  0.00    +0.000 NA
ATOM     31  C   UNL     1       1.399   4.119  20.772  0.00  0.00    +0.000 A 
ENDBRANCH  25  31
ENDBRANCH  21  25
ENDBRANCH   1  21
TORSDOF 5
ENDMDL
MODEL 8
REMARK VINA RESULT:      -7.4      2.673      4.085
REMARK  Name = 
REMARK  6 active torsions:
REMARK  status: ('A' for Active; 'I' for Inactive)
REMARK    1  A    between atoms: C_1  and  N_2
REMARK    2  A    between atoms: C_6  and  C_7
REMARK    3  A    between atoms: C_7  and  C_8
REMARK    4  A    between atoms: C_8  and  C_9
REMARK    5  A    between atoms: C_13  and  N_14
REMARK    6  A    between atoms: C_20  and  C_21
REMARK                            x       y       z     vdW  Elec       q    Type
REMARK                         _______ _______ _______ _____ _____    ______ ____
ROOT
ATOM      1  C   UNL     1       1.755   8.207  19.551  0.00  0.00    +0.000 A 
ATOM      2  C   UNL     1       2.285   8.733  18.355  0.00  0.00    +0.000 A 
ATOM      3  C   UNL     1       2.837   7.913  17.376  0.00  0.00    +0.000 A 
ATOM      4  C   UNL     1       3.002   6.559  17.629  0.00  0.00    +0.000 A 
ATOM      5  C   UNL     1       2.779   6.074  18.925  0.00  0.00    +0.000 A 
ATOM      6  C   UNL     1       2.016   6.846  19.805  0.00  0.00    +0.000 A 
ENDROOT
BRANCH   5   7
ATOM      7  N   UNL     1       3.707   5.108  19.502  0.00  0.00    +0.000 N 
ATOM      8  C   UNL     1       5.072   5.712  19.576  0.00  0.00    +0.000 C 
ATOM      9  C   UNL     1       5.604   5.366  18.224  0.00  0.00    +0.000 A 
ATOM     10  C   UNL     1       6.189   6.189  17.286  0.00  0.00    +0.000 A 
ATOM     11  F   UNL     1       6.612   7.412  17.630  0.00  0.00    +0.000 F 
ATOM     12  C   UNL     1       6.158   5.822  15.935  0.00  0.00    +0.000 A 
ATOM     13  C   UNL     1       5.554   4.612  15.522  0.00  0.00    +0.000 A 
ATOM     14  C   UNL     1       4.993   3.762  16.489  0.00  0.00    +0.000 A 
ATOM     15  C   UNL     1       4.998   4.176  17.812  0.00  0.00    +0.000 A 
ATOM     16  C   UNL     1       3.887   3.912  18.756  0.00  0.00    +0.000 C 
ATOM     17  O   UNL     1       3.147   2.941  18.685  0.00  0.00    +0.000 OA
BRANCH  13  18
ATOM     18  C   UNL     1       5.298   4.298  14.110  0.00  0.00    +0.000 C 
ATOM     19  C   UNL     1       6.135   3.674  13.284  0.00  0.00    +0.000 C 
ATOM     20  F   UNL     1       5.803   3.454  11.998  0.00  0.00    +0.000 F 
ENDBRANCH  13  18
ENDBRANCH   5   7
BRANCH   1  21
ATOM     21  C   UNL     1       0.889   9.101  20.557  0.00  0.00    +0.000 C 
ATOM     22  C   UNL     1      -0.104   8.298  21.446  0.00  0.00    +0.000 C 
ATOM     23  O   UNL     1       0.511   8.761  22.661  0.00  0.00    +0.000 OA
ATOM     24  C   UNL     1       1.555   9.431  21.922  0.00  0.00    +0.000 C 
BRANCH  21  25
ATOM     25  C   UNL     1       0.172  10.275  19.852  0.00  0.00    +0.000 C 
BRANCH  25  31
ATOM     26  C   UNL     1      -0.835  12.234  22.106  0.00  0.00    +0.000 C 
ATOM     27  N   UNL     1       0.247  12.454  21.182  0.00  0.00    +0.000 N 
ATOM     28  C   UNL     1       1.051  13.552  21.172  0.00  0.00    +0.000 A 
ATOM     29  N   UNL     1       1.918  13.454  20.197  0.00  0.00    +0.000 NA
ATOM     30  N   UNL     1       1.709  12.243  19.583  0.00  0.00    +0.000 NA
ATOM     31  C   UNL     1       0.695  11.641  20.170  0.00  0.00    +0.000 A 
ENDBRANCH  25  31
ENDBRANCH  21  25
ENDBRANCH   1  21
TORSDOF 5
ENDMDL
MODEL 9
REMARK VINA RESULT:      -7.4      2.660      4.193
REMARK  Name = 
REMARK  6 active torsions:
REMARK  status: ('A' for Active; 'I' for Inactive)
REMARK    1  A    between atoms: C_1  and  N_2
REMARK    2  A    between atoms: C_6  and  C_7
REMARK    3  A    between atoms: C_7  and  C_8
REMARK    4  A    between atoms: C_8  and  C_9
REMARK    5  A    between atoms: C_13  and  N_14
REMARK    6  A    between atoms: C_20  and  C_21
REMARK                            x       y       z     vdW  Elec       q    Type
REMARK                         _______ _______ _______ _____ _____    ______ ____
ROOT
ATOM      1  C   UNL     1       1.817   8.230  19.592  0.00  0.00    +0.000 A 
ATOM      2  C   UNL     1       2.275   8.658  18.330  0.00  0.00    +0.000 A 
ATOM      3  C   UNL     1       2.687   7.754  17.356  0.00  0.00    +0.000 A 
ATOM      4  C   UNL     1       2.786   6.406  17.670  0.00  0.00    +0.000 A 
ATOM      5  C   UNL     1       2.644   6.003  19.004  0.00  0.00    +0.000 A 
ATOM      6  C   UNL     1       2.011   6.869  19.899  0.00  0.00    +0.000 A 
ENDROOT
BRANCH   5   7
ATOM      7  N   UNL     1       3.554   5.005  19.556  0.00  0.00    +0.000 N 
ATOM      8  C   UNL     1       4.922   5.594  19.680  0.00  0.00    +0.000 C 
ATOM      9  C   UNL     1       5.477   5.303  18.325  0.00  0.00    +0.000 A 
ATOM     10  C   UNL     1       6.085   6.160  17.435  0.00  0.00    +0.000 A 
ATOM     11  F   UNL     1       6.510   7.364  17.838  0.00  0.00    +0.000 F 
ATOM     12  C   UNL     1       6.077   5.853  16.069  0.00  0.00    +0.000 A 
ATOM     13  C   UNL     1       5.472   4.666  15.592  0.00  0.00    +0.000 A 
ATOM     14  C   UNL     1       4.886   3.780  16.512  0.00  0.00    +0.000 A 
ATOM     15  C   UNL     1       4.870   4.137  17.851  0.00  0.00    +0.000 A 
ATOM     16  C   UNL     1       3.740   3.841  18.762  0.00  0.00    +0.000 C 
ATOM     17  O   UNL     1       2.994   2.881  18.636  0.00  0.00    +0.000 OA
BRANCH  13  18
ATOM     18  C   UNL     1       5.240   4.415  14.164  0.00  0.00    +0.000 C 
ATOM     19  C   UNL     1       6.042   3.732  13.350  0.00  0.00    +0.000 C 
ATOM     20  F   UNL     1       5.739   3.578  12.048  0.00  0.00    +0.000 F 
ENDBRANCH  13  18
ENDBRANCH   5   7
BRANCH   1  21
ATOM     21  C   UNL     1       1.100   9.231  20.615  0.00  0.00    +0.000 C 
ATOM     22  C   UNL     1      -0.288   8.748  21.127  0.00  0.00    +0.000 C 
ATOM     23  O   UNL     1       0.144   8.759  22.499  0.00  0.00    +0.000 OA
ATOM     24  C   UNL     1       1.497   9.079  22.110  0.00  0.00    +0.000 C 
BRANCH  21  25
ATOM     25  C   UNL     1       1.017  10.678  20.080  0.00  0.00    +0.000 C 
BRANCH  25  31
ATOM     26  C   UNL     1      -1.039  10.211  17.738  0.00  0.00    +0.000 C 
ATOM     27  N   UNL     1      -1.240  10.995  18.928  0.00  0.00    +0.000 N 
ATOM     28  C   UNL     1      -2.397  11.633  19.254  0.00  0.00    +0.000 A 
ATOM     29  N   UNL     1      -2.244  12.273  20.384  0.00  0.00    +0.000 NA
ATOM     30  N   UNL     1      -0.973  12.011  20.835  0.00  0.00    +0.000 NA
ATOM     31  C   UNL     1      -0.361  11.246  19.953  0.00  0.00    +0.000 A 
ENDBRANCH  25  31
ENDBRANCH  21  25
ENDBRANCH   1  21
TORSDOF 5
ENDMDL
