MODEL 1
REMARK VINA RESULT:      -9.6      0.000      0.000
REMARK  Name = 
REMARK  5 active torsions:
REMARK  status: ('A' for Active; 'I' for Inactive)
REMARK    1  A    between atoms: C_1  and  C_2
REMARK    2  A    between atoms: C_6  and  N_7
REMARK    3  A    between atoms: C_8  and  C_10
REMARK    4  A    between atoms: C_11  and  C_12
REMARK    5  A    between atoms: C_22  and  C_23
REMARK                            x       y       z     vdW  Elec       q    Type
REMARK                         _______ _______ _______ _____ _____    ______ ____
ROOT
ATOM      1  N   UNL     1       2.845   6.405  19.798  0.00  0.00    +0.000 N 
ATOM      2  C   UNL     1       2.438   5.161  19.328  0.00  0.00    +0.000 C 
ATOM      3  O   UNL     1       1.482   4.964  18.590  0.00  0.00    +0.000 OA
ATOM      4  H   UNL     1       3.813   6.479  20.087  0.00  0.00    +0.000 HD
ENDROOT
BRANCH   1  10
ATOM      5  C   UNL     1      -1.116  12.473  20.674  0.00  0.00    +0.000 C 
ATOM      6  C   UNL     1      -0.311  11.296  20.266  0.00  0.00    +0.000 A 
ATOM      7  N   UNL     1      -0.001  10.248  21.002  0.00  0.00    +0.000 NA
ATOM      8  C   UNL     1       0.764   9.438  20.194  0.00  0.00    +0.000 A 
ATOM      9  C   UNL     1       1.373   8.201  20.472  0.00  0.00    +0.000 A 
ATOM     10  C   UNL     1       2.178   7.610  19.485  0.00  0.00    +0.000 A 
ATOM     11  C   UNL     1       2.302   8.210  18.226  0.00  0.00    +0.000 A 
ATOM     12  C   UNL     1       1.660   9.416  17.915  0.00  0.00    +0.000 A 
ATOM     13  C   UNL     1       0.917  10.007  18.936  0.00  0.00    +0.000 A 
ATOM     14  N   UNL     1       0.212  11.179  19.003  0.00  0.00    +0.000 N 
ATOM     15  H   UNL     1       0.109  11.850  18.256  0.00  0.00    +0.000 HD
ENDBRANCH   1  10
BRANCH   2  16
ATOM     16  C   UNL     1       3.316   4.076  19.700  0.00  0.00    +0.000 A 
ATOM     17  C   UNL     1       4.541   3.661  19.077  0.00  0.00    +0.000 A 
ATOM     18  N   UNL     1       5.037   2.585  19.710  0.00  0.00    +0.000 NA
ATOM     19  O   UNL     1       4.134   2.258  20.698  0.00  0.00    +0.000 OA
ATOM     20  C   UNL     1       3.109   3.146  20.693  0.00  0.00    +0.000 A 
ATOM     21  C   UNL     1       2.033   2.906  21.679  0.00  0.00    +0.000 C 
BRANCH  17  22
ATOM     22  C   UNL     1       5.250   4.296  17.964  0.00  0.00    +0.000 A 
ATOM     23  C   UNL     1       4.774   4.094  16.659  0.00  0.00    +0.000 A 
ATOM     24  F   UNL     1       3.631   3.420  16.450  0.00  0.00    +0.000 F 
ATOM     25  C   UNL     1       5.443   4.587  15.540  0.00  0.00    +0.000 A 
ATOM     26  C   UNL     1       6.598   5.340  15.704  0.00  0.00    +0.000 A 
ATOM     27  C   UNL     1       7.065   5.605  16.990  0.00  0.00    +0.000 A 
ATOM     28  C   UNL     1       6.403   5.084  18.116  0.00  0.00    +0.000 A 
ATOM     29 CL   UNL     1       7.116   5.444  19.652  0.00  0.00    +0.000 Cl
ENDBRANCH  17  22
ENDBRANCH   2  16
TORSDOF 3
ENDMDL
MODEL 2
REMARK VINA RESULT:      -9.2      1.466      1.758
REMARK  Name = 
REMARK  5 active torsions:
REMARK  status: ('A' for Active; 'I' for Inactive)
REMARK    1  A    between atoms: C_1  and  C_2
REMARK    2  A    between atoms: C_6  and  N_7
REMARK    3  A    between atoms: C_8  and  C_10
REMARK    4  A    between atoms: C_11  and  C_12
REMARK    5  A    between atoms: C_22  and  C_23
REMARK                            x       y       z     vdW  Elec       q    Type
REMARK                         _______ _______ _______ _____ _____    ______ ____
ROOT
ATOM      1  N   UNL     1       2.795   6.480  19.840  0.00  0.00    +0.000 N 
ATOM      2  C   UNL     1       2.518   5.264  19.227  0.00  0.00    +0.000 C 
ATOM      3  O   UNL     1       1.691   5.092  18.341  0.00  0.00    +0.000 OA
ATOM      4  H   UNL     1       3.705   6.565  20.277  0.00  0.00    +0.000 HD
ENDROOT
BRANCH   1  10
ATOM      5  C   UNL     1      -1.213  12.527  20.649  0.00  0.00    +0.000 C 
ATOM      6  C   UNL     1      -0.394  11.355  20.255  0.00  0.00    +0.000 A 
ATOM      7  N   UNL     1      -0.095  10.306  20.994  0.00  0.00    +0.000 NA
ATOM      8  C   UNL     1       0.691   9.502  20.200  0.00  0.00    +0.000 A 
ATOM      9  C   UNL     1       1.300   8.268  20.488  0.00  0.00    +0.000 A 
ATOM     10  C   UNL     1       2.129   7.684  19.516  0.00  0.00    +0.000 A 
ATOM     11  C   UNL     1       2.276   8.288  18.262  0.00  0.00    +0.000 A 
ATOM     12  C   UNL     1       1.636   9.492  17.941  0.00  0.00    +0.000 A 
ATOM     13  C   UNL     1       0.868  10.075  18.948  0.00  0.00    +0.000 A 
ATOM     14  N   UNL     1       0.156  11.244  19.002  0.00  0.00    +0.000 N 
ATOM     15  H   UNL     1       0.065  11.917  18.256  0.00  0.00    +0.000 HD
ENDBRANCH   1  10
BRANCH   2  16
ATOM     16  C   UNL     1       3.378   4.184  19.649  0.00  0.00    +0.000 A 
ATOM     17  C   UNL     1       4.720   3.891  19.232  0.00  0.00    +0.000 A 
ATOM     18  N   UNL     1       5.157   2.774  19.838  0.00  0.00    +0.000 NA
ATOM     19  O   UNL     1       4.111   2.304  20.600  0.00  0.00    +0.000 OA
ATOM     20  C   UNL     1       3.051   3.143  20.488  0.00  0.00    +0.000 A 
ATOM     21  C   UNL     1       1.829   2.752  21.225  0.00  0.00    +0.000 C 
BRANCH  17  22
ATOM     22  C   UNL     1       5.580   4.672  18.340  0.00  0.00    +0.000 A 
ATOM     23  C   UNL     1       6.614   5.437  18.900  0.00  0.00    +0.000 A 
ATOM     24  F   UNL     1       6.873   5.369  20.216  0.00  0.00    +0.000 F 
ATOM     25  C   UNL     1       7.417   6.277  18.131  0.00  0.00    +0.000 A 
ATOM     26  C   UNL     1       7.229   6.342  16.756  0.00  0.00    +0.000 A 
ATOM     27  C   UNL     1       6.246   5.551  16.163  0.00  0.00    +0.000 A 
ATOM     28  C   UNL     1       5.420   4.725  16.945  0.00  0.00    +0.000 A 
ATOM     29 CL   UNL     1       4.206   3.835  16.089  0.00  0.00    +0.000 Cl
ENDBRANCH  17  22
ENDBRANCH   2  16
TORSDOF 3
ENDMDL
MODEL 3
REMARK VINA RESULT:      -8.6      0.883      1.455
REMARK  Name = 
REMARK  5 active torsions:
REMARK  status: ('A' for Active; 'I' for Inactive)
REMARK    1  A    between atoms: C_1  and  C_2
REMARK    2  A    between atoms: C_6  and  N_7
REMARK    3  A    between atoms: C_8  and  C_10
REMARK    4  A    between atoms: C_11  and  C_12
REMARK    5  A    between atoms: C_22  and  C_23
REMARK                            x       y       z     vdW  Elec       q    Type
REMARK                         _______ _______ _______ _____ _____    ______ ____
ROOT
ATOM      1  N   UNL     1       2.286   6.198  20.631  0.00  0.00    +0.000 N 
ATOM      2  C   UNL     1       2.410   5.348  19.537  0.00  0.00    +0.000 C 
ATOM      3  O   UNL     1       1.944   5.557  18.425  0.00  0.00    +0.000 OA
ATOM      4  H   UNL     1       2.985   6.099  21.357  0.00  0.00    +0.000 HD
ENDROOT
BRANCH   1  10
ATOM      5  C   UNL     1      -0.045  12.686  18.233  0.00  0.00    +0.000 C 
ATOM      6  C   UNL     1       0.300  11.415  18.913  0.00  0.00    +0.000 A 
ATOM      7  N   UNL     1       1.225  10.546  18.559  0.00  0.00    +0.000 NA
ATOM      8  C   UNL     1       1.157   9.530  19.485  0.00  0.00    +0.000 A 
ATOM      9  C   UNL     1       1.904   8.343  19.579  0.00  0.00    +0.000 A 
ATOM     10  C   UNL     1       1.580   7.421  20.588  0.00  0.00    +0.000 A 
ATOM     11  C   UNL     1       0.583   7.725  21.524  0.00  0.00    +0.000 A 
ATOM     12  C   UNL     1      -0.136   8.926  21.475  0.00  0.00    +0.000 A 
ATOM     13  C   UNL     1       0.170   9.792  20.427  0.00  0.00    +0.000 A 
ATOM     14  N   UNL     1      -0.350  11.002  20.050  0.00  0.00    +0.000 N 
ATOM     15  H   UNL     1      -1.094  11.498  20.518  0.00  0.00    +0.000 HD
ENDBRANCH   1  10
BRANCH   2  16
ATOM     16  C   UNL     1       3.247   4.197  19.780  0.00  0.00    +0.000 A 
ATOM     17  C   UNL     1       4.418   3.774  19.066  0.00  0.00    +0.000 A 
ATOM     18  N   UNL     1       4.888   2.629  19.589  0.00  0.00    +0.000 NA
ATOM     19  O   UNL     1       4.017   2.269  20.594  0.00  0.00    +0.000 OA
ATOM     20  C   UNL     1       3.040   3.203  20.709  0.00  0.00    +0.000 A 
ATOM     21  C   UNL     1       2.001   2.938  21.728  0.00  0.00    +0.000 C 
BRANCH  17  22
ATOM     22  C   UNL     1       5.105   4.459  17.969  0.00  0.00    +0.000 A 
ATOM     23  C   UNL     1       4.608   4.309  16.665  0.00  0.00    +0.000 A 
ATOM     24  F   UNL     1       3.466   3.638  16.446  0.00  0.00    +0.000 F 
ATOM     25  C   UNL     1       5.256   4.853  15.556  0.00  0.00    +0.000 A 
ATOM     26  C   UNL     1       6.410   5.606  15.733  0.00  0.00    +0.000 A 
ATOM     27  C   UNL     1       6.896   5.819  17.022  0.00  0.00    +0.000 A 
ATOM     28  C   UNL     1       6.256   5.247  18.135  0.00  0.00    +0.000 A 
ATOM     29 CL   UNL     1       6.993   5.547  19.673  0.00  0.00    +0.000 Cl
ENDBRANCH  17  22
ENDBRANCH   2  16
TORSDOF 3
ENDMDL
MODEL 4
REMARK VINA RESULT:      -8.3      1.722      2.288
REMARK  Name = 
REMARK  5 active torsions:
REMARK  status: ('A' for Active; 'I' for Inactive)
REMARK    1  A    between atoms: C_1  and  C_2
REMARK    2  A    between atoms: C_6  and  N_7
REMARK    3  A    between atoms: C_8  and  C_10
REMARK    4  A    between atoms: C_11  and  C_12
REMARK    5  A    between atoms: C_22  and  C_23
REMARK                            x       y       z     vdW  Elec       q    Type
REMARK                         _______ _______ _______ _____ _____    ______ ____
ROOT
ATOM      1  N   UNL     1       2.321   6.288  20.667  0.00  0.00    +0.000 N 
ATOM      2  C   UNL     1       2.519   5.467  19.562  0.00  0.00    +0.000 C 
ATOM      3  O   UNL     1       2.111   5.695  18.431  0.00  0.00    +0.000 OA
ATOM      4  H   UNL     1       2.982   6.181  21.428  0.00  0.00    +0.000 HD
ENDROOT
BRANCH   1  10
ATOM      5  C   UNL     1      -0.099  12.724  18.219  0.00  0.00    +0.000 C 
ATOM      6  C   UNL     1       0.263  11.463  18.909  0.00  0.00    +0.000 A 
ATOM      7  N   UNL     1       1.202  10.605  18.562  0.00  0.00    +0.000 NA
ATOM      8  C   UNL     1       1.147   9.595  19.496  0.00  0.00    +0.000 A 
ATOM      9  C   UNL     1       1.910   8.419  19.599  0.00  0.00    +0.000 A 
ATOM     10  C   UNL     1       1.598   7.500  20.614  0.00  0.00    +0.000 A 
ATOM     11  C   UNL     1       0.595   7.796  21.546  0.00  0.00    +0.000 A 
ATOM     12  C   UNL     1      -0.141   8.986  21.488  0.00  0.00    +0.000 A 
ATOM     13  C   UNL     1       0.154   9.849  20.433  0.00  0.00    +0.000 A 
ATOM     14  N   UNL     1      -0.382  11.049  20.048  0.00  0.00    +0.000 N 
ATOM     15  H   UNL     1      -1.134  11.537  20.511  0.00  0.00    +0.000 HD
ENDBRANCH   1  10
BRANCH   2  16
ATOM     16  C   UNL     1       3.361   4.323  19.823  0.00  0.00    +0.000 A 
ATOM     17  C   UNL     1       4.647   4.011  19.266  0.00  0.00    +0.000 A 
ATOM     18  N   UNL     1       5.082   2.833  19.745  0.00  0.00    +0.000 NA
ATOM     19  O   UNL     1       4.085   2.347  20.561  0.00  0.00    +0.000 OA
ATOM     20  C   UNL     1       3.060   3.234  20.609  0.00  0.00    +0.000 A 
ATOM     21  C   UNL     1       1.890   2.835  21.422  0.00  0.00    +0.000 C 
BRANCH  17  22
ATOM     22  C   UNL     1       5.461   4.824  18.361  0.00  0.00    +0.000 A 
ATOM     23  C   UNL     1       6.529   5.562  18.894  0.00  0.00    +0.000 A 
ATOM     24  F   UNL     1       6.859   5.439  20.190  0.00  0.00    +0.000 F 
ATOM     25  C   UNL     1       7.294   6.430  18.117  0.00  0.00    +0.000 A 
ATOM     26  C   UNL     1       7.031   6.551  16.758  0.00  0.00    +0.000 A 
ATOM     27  C   UNL     1       6.013   5.789  16.188  0.00  0.00    +0.000 A 
ATOM     28  C   UNL     1       5.226   4.934  16.980  0.00  0.00    +0.000 A 
ATOM     29 CL   UNL     1       3.962   4.084  16.157  0.00  0.00    +0.000 Cl
ENDBRANCH  17  22
ENDBRANCH   2  16
TORSDOF 3
ENDMDL
MODEL 5
REMARK VINA RESULT:      -8.0      2.185      3.785
REMARK  Name = 
REMARK  5 active torsions:
REMARK  status: ('A' for Active; 'I' for Inactive)
REMARK    1  A    between atoms: C_1  and  C_2
REMARK    2  A    between atoms: C_6  and  N_7
REMARK    3  A    between atoms: C_8  and  C_10
REMARK    4  A    between atoms: C_11  and  C_12
REMARK    5  A    between atoms: C_22  and  C_23
REMARK                            x       y       z     vdW  Elec       q    Type
REMARK                         _______ _______ _______ _____ _____    ______ ____
ROOT
ATOM      1  N   UNL     1       2.904   6.960  19.296  0.00  0.00    +0.000 N 
ATOM      2  C   UNL     1       3.803   6.629  18.288  0.00  0.00    +0.000 C 
ATOM      3  O   UNL     1       3.949   7.247  17.242  0.00  0.00    +0.000 OA
ATOM      4  H   UNL     1       3.119   6.609  20.222  0.00  0.00    +0.000 HD
ENDROOT
BRANCH   1  10
ATOM      5  C   UNL     1      -1.606  12.289  21.427  0.00  0.00    +0.000 C 
ATOM      6  C   UNL     1      -0.746  11.273  20.774  0.00  0.00    +0.000 A 
ATOM      7  N   UNL     1      -0.145  10.249  21.347  0.00  0.00    +0.000 NA
ATOM      8  C   UNL     1       0.543   9.610  20.340  0.00  0.00    +0.000 A 
ATOM      9  C   UNL     1       1.365   8.470  20.391  0.00  0.00    +0.000 A 
ATOM     10  C   UNL     1       2.022   8.062  19.220  0.00  0.00    +0.000 A 
ATOM     11  C   UNL     1       1.796   8.737  18.014  0.00  0.00    +0.000 A 
ATOM     12  C   UNL     1       0.940   9.843  17.935  0.00  0.00    +0.000 A 
ATOM     13  C   UNL     1       0.349  10.259  19.128  0.00  0.00    +0.000 A 
ATOM     14  N   UNL     1      -0.486  11.303  19.427  0.00  0.00    +0.000 N 
ATOM     15  H   UNL     1      -0.835  11.987  18.773  0.00  0.00    +0.000 HD
ENDBRANCH   1  10
BRANCH   2  16
ATOM     16  C   UNL     1       4.667   5.519  18.614  0.00  0.00    +0.000 A 
ATOM     17  C   UNL     1       4.310   4.223  19.118  0.00  0.00    +0.000 A 
ATOM     18  N   UNL     1       5.417   3.488  19.322  0.00  0.00    +0.000 NA
ATOM     19  O   UNL     1       6.489   4.295  19.012  0.00  0.00    +0.000 OA
ATOM     20  C   UNL     1       6.043   5.505  18.589  0.00  0.00    +0.000 A 
ATOM     21  C   UNL     1       7.083   6.501  18.252  0.00  0.00    +0.000 C 
BRANCH  17  22
ATOM     22  C   UNL     1       2.969   3.677  19.340  0.00  0.00    +0.000 A 
ATOM     23  C   UNL     1       2.401   3.785  20.618  0.00  0.00    +0.000 A 
ATOM     24  F   UNL     1       3.032   4.469  21.587  0.00  0.00    +0.000 F 
ATOM     25  C   UNL     1       1.170   3.213  20.935  0.00  0.00    +0.000 A 
ATOM     26  C   UNL     1       0.449   2.544  19.954  0.00  0.00    +0.000 A 
ATOM     27  C   UNL     1       0.962   2.468  18.660  0.00  0.00    +0.000 A 
ATOM     28  C   UNL     1       2.216   3.023  18.351  0.00  0.00    +0.000 A 
ATOM     29 CL   UNL     1       2.759   2.814  16.720  0.00  0.00    +0.000 Cl
ENDBRANCH  17  22
ENDBRANCH   2  16
TORSDOF 3
ENDMDL
MODEL 6
REMARK VINA RESULT:      -7.9      1.715      1.970
REMARK  Name = 
REMARK  5 active torsions:
REMARK  status: ('A' for Active; 'I' for Inactive)
REMARK    1  A    between atoms: C_1  and  C_2
REMARK    2  A    between atoms: C_6  and  N_7
REMARK    3  A    between atoms: C_8  and  C_10
REMARK    4  A    between atoms: C_11  and  C_12
REMARK    5  A    between atoms: C_22  and  C_23
REMARK                            x       y       z     vdW  Elec       q    Type
REMARK                         _______ _______ _______ _____ _____    ______ ____
ROOT
ATOM      1  N   UNL     1       2.747   6.140  19.146  0.00  0.00    +0.000 N 
ATOM      2  C   UNL     1       2.294   5.119  18.319  0.00  0.00    +0.000 C 
ATOM      3  O   UNL     1       1.428   5.237  17.462  0.00  0.00    +0.000 OA
ATOM      4  H   UNL     1       3.672   6.019  19.542  0.00  0.00    +0.000 HD
ENDROOT
BRANCH   1  10
ATOM      5  C   UNL     1      -0.224  12.415  21.400  0.00  0.00    +0.000 C 
ATOM      6  C   UNL     1       0.370  11.236  20.726  0.00  0.00    +0.000 A 
ATOM      7  N   UNL     1       0.581  10.043  21.244  0.00  0.00    +0.000 NA
ATOM      8  C   UNL     1       1.159   9.297  20.242  0.00  0.00    +0.000 A 
ATOM      9  C   UNL     1       1.603   7.963  20.250  0.00  0.00    +0.000 A 
ATOM     10  C   UNL     1       2.239   7.458  19.104  0.00  0.00    +0.000 A 
ATOM     11  C   UNL     1       2.353   8.251  17.956  0.00  0.00    +0.000 A 
ATOM     12  C   UNL     1       1.870   9.565  17.914  0.00  0.00    +0.000 A 
ATOM     13  C   UNL     1       1.298  10.056  19.087  0.00  0.00    +0.000 A 
ATOM     14  N   UNL     1       0.775  11.279  19.415  0.00  0.00    +0.000 N 
ATOM     15  H   UNL     1       0.714  12.079  18.804  0.00  0.00    +0.000 HD
ENDBRANCH   1  10
BRANCH   2  16
ATOM     16  C   UNL     1       3.014   3.877  18.471  0.00  0.00    +0.000 A 
ATOM     17  C   UNL     1       4.395   3.601  18.193  0.00  0.00    +0.000 A 
ATOM     18  N   UNL     1       4.664   2.307  18.437  0.00  0.00    +0.000 NA
ATOM     19  O   UNL     1       3.476   1.722  18.816  0.00  0.00    +0.000 OA
ATOM     20  C   UNL     1       2.492   2.657  18.837  0.00  0.00    +0.000 A 
ATOM     21  C   UNL     1       1.140   2.173  19.193  0.00  0.00    +0.000 C 
BRANCH  17  22
ATOM     22  C   UNL     1       5.437   4.540  17.772  0.00  0.00    +0.000 A 
ATOM     23  C   UNL     1       6.165   5.225  18.757  0.00  0.00    +0.000 A 
ATOM     24  F   UNL     1       5.979   4.944  20.057  0.00  0.00    +0.000 F 
ATOM     25  C   UNL     1       7.109   6.200  18.439  0.00  0.00    +0.000 A 
ATOM     26  C   UNL     1       7.381   6.488  17.108  0.00  0.00    +0.000 A 
ATOM     27  C   UNL     1       6.714   5.785  16.106  0.00  0.00    +0.000 A 
ATOM     28  C   UNL     1       5.743   4.820  16.430  0.00  0.00    +0.000 A 
ATOM     29 CL   UNL     1       4.953   4.057  15.092  0.00  0.00    +0.000 Cl
ENDBRANCH  17  22
ENDBRANCH   2  16
TORSDOF 3
ENDMDL
MODEL 7
REMARK VINA RESULT:      -7.9      2.137      2.461
REMARK  Name = 
REMARK  5 active torsions:
REMARK  status: ('A' for Active; 'I' for Inactive)
REMARK    1  A    between atoms: C_1  and  C_2
REMARK    2  A    between atoms: C_6  and  N_7
REMARK    3  A    between atoms: C_8  and  C_10
REMARK    4  A    between atoms: C_11  and  C_12
REMARK    5  A    between atoms: C_22  and  C_23
REMARK                            x       y       z     vdW  Elec       q    Type
REMARK                         _______ _______ _______ _____ _____    ______ ____
ROOT
ATOM      1  N   UNL     1       2.446   7.176  18.249  0.00  0.00    +0.000 N 
ATOM      2  C   UNL     1       2.749   6.117  19.097  0.00  0.00    +0.000 C 
ATOM      3  O   UNL     1       2.570   6.109  20.308  0.00  0.00    +0.000 OA
ATOM      4  H   UNL     1       2.305   6.942  17.273  0.00  0.00    +0.000 HD
ENDROOT
BRANCH   1  10
ATOM      5  C   UNL     1      -0.817  12.033  22.613  0.00  0.00    +0.000 C 
ATOM      6  C   UNL     1      -0.157  11.218  21.564  0.00  0.00    +0.000 A 
ATOM      7  N   UNL     1       0.068   9.920  21.586  0.00  0.00    +0.000 NA
ATOM      8  C   UNL     1       0.713   9.633  20.404  0.00  0.00    +0.000 A 
ATOM      9  C   UNL     1       1.198   8.408  19.914  0.00  0.00    +0.000 A 
ATOM     10  C   UNL     1       1.898   8.399  18.697  0.00  0.00    +0.000 A 
ATOM     11  C   UNL     1       2.037   9.579  17.957  0.00  0.00    +0.000 A 
ATOM     12  C   UNL     1       1.515  10.799  18.406  0.00  0.00    +0.000 A 
ATOM     13  C   UNL     1       0.878  10.785  19.645  0.00  0.00    +0.000 A 
ATOM     14  N   UNL     1       0.303  11.776  20.397  0.00  0.00    +0.000 N 
ATOM     15  H   UNL     1       0.243  12.751  20.144  0.00  0.00    +0.000 HD
ENDBRANCH   1  10
BRANCH   2  16
ATOM     16  C   UNL     1       3.216   4.933  18.415  0.00  0.00    +0.000 A 
ATOM     17  C   UNL     1       4.504   4.684  17.832  0.00  0.00    +0.000 A 
ATOM     18  N   UNL     1       4.524   3.468  17.261  0.00  0.00    +0.000 NA
ATOM     19  O   UNL     1       3.260   2.941  17.412  0.00  0.00    +0.000 OA
ATOM     20  C   UNL     1       2.481   3.813  18.100  0.00  0.00    +0.000 A 
ATOM     21  C   UNL     1       1.075   3.404  18.313  0.00  0.00    +0.000 C 
BRANCH  17  22
ATOM     22  C   UNL     1       5.693   5.538  17.867  0.00  0.00    +0.000 A 
ATOM     23  C   UNL     1       6.603   5.385  18.925  0.00  0.00    +0.000 A 
ATOM     24  F   UNL     1       6.437   4.402  19.825  0.00  0.00    +0.000 F 
ATOM     25  C   UNL     1       7.709   6.219  19.081  0.00  0.00    +0.000 A 
ATOM     26  C   UNL     1       7.958   7.215  18.145  0.00  0.00    +0.000 A 
ATOM     27  C   UNL     1       7.103   7.356  17.053  0.00  0.00    +0.000 A 
ATOM     28  C   UNL     1       5.974   6.531  16.913  0.00  0.00    +0.000 A 
ATOM     29 CL   UNL     1       4.967   6.845  15.540  0.00  0.00    +0.000 Cl
ENDBRANCH  17  22
ENDBRANCH   2  16
TORSDOF 3
ENDMDL
MODEL 8
REMARK VINA RESULT:      -7.8      1.984      3.799
REMARK  Name = 
REMARK  5 active torsions:
REMARK  status: ('A' for Active; 'I' for Inactive)
REMARK    1  A    between atoms: C_1  and  C_2
REMARK    2  A    between atoms: C_6  and  N_7
REMARK    3  A    between atoms: C_8  and  C_10
REMARK    4  A    between atoms: C_11  and  C_12
REMARK    5  A    between atoms: C_22  and  C_23
REMARK                            x       y       z     vdW  Elec       q    Type
REMARK                         _______ _______ _______ _____ _____    ______ ____
ROOT
ATOM      1  N   UNL     1       2.539   6.747  17.858  0.00  0.00    +0.000 N 
ATOM      2  C   UNL     1       3.816   6.275  18.141  0.00  0.00    +0.000 C 
ATOM      3  O   UNL     1       4.618   6.815  18.891  0.00  0.00    +0.000 OA
ATOM      4  H   UNL     1       1.871   6.061  17.528  0.00  0.00    +0.000 HD
ENDROOT
BRANCH   1  10
ATOM      5  C   UNL     1      -0.597  11.307  22.617  0.00  0.00    +0.000 C 
ATOM      6  C   UNL     1       0.037  10.564  21.501  0.00  0.00    +0.000 A 
ATOM      7  N   UNL     1       0.247   9.265  21.425  0.00  0.00    +0.000 NA
ATOM      8  C   UNL     1       0.870   9.059  20.215  0.00  0.00    +0.000 A 
ATOM      9  C   UNL     1       1.332   7.867  19.629  0.00  0.00    +0.000 A 
ATOM     10  C   UNL     1       2.013   7.939  18.404  0.00  0.00    +0.000 A 
ATOM     11  C   UNL     1       2.155   9.169  17.749  0.00  0.00    +0.000 A 
ATOM     12  C   UNL     1       1.655  10.359  18.294  0.00  0.00    +0.000 A 
ATOM     13  C   UNL     1       1.036  10.261  19.539  0.00  0.00    +0.000 A 
ATOM     14  N   UNL     1       0.485  11.200  20.370  0.00  0.00    +0.000 N 
ATOM     15  H   UNL     1       0.433  12.191  20.190  0.00  0.00    +0.000 HD
ENDBRANCH   1  10
BRANCH   2  16
ATOM     16  C   UNL     1       4.114   4.993  17.545  0.00  0.00    +0.000 A 
ATOM     17  C   UNL     1       3.749   3.684  18.006  0.00  0.00    +0.000 A 
ATOM     18  N   UNL     1       4.251   2.749  17.181  0.00  0.00    +0.000 NA
ATOM     19  O   UNL     1       4.980   3.419  16.224  0.00  0.00    +0.000 OA
ATOM     20  C   UNL     1       4.899   4.756  16.439  0.00  0.00    +0.000 A 
ATOM     21  C   UNL     1       5.664   5.614  15.509  0.00  0.00    +0.000 C 
BRANCH  17  22
ATOM     22  C   UNL     1       2.904   3.331  19.149  0.00  0.00    +0.000 A 
ATOM     23  C   UNL     1       1.543   3.670  19.111  0.00  0.00    +0.000 A 
ATOM     24  F   UNL     1       1.009   4.213  18.005  0.00  0.00    +0.000 F 
ATOM     25  C   UNL     1       0.693   3.452  20.194  0.00  0.00    +0.000 A 
ATOM     26  C   UNL     1       1.181   2.841  21.342  0.00  0.00    +0.000 A 
ATOM     27  C   UNL     1       2.516   2.442  21.388  0.00  0.00    +0.000 A 
ATOM     28  C   UNL     1       3.378   2.688  20.304  0.00  0.00    +0.000 A 
ATOM     29 CL   UNL     1       5.022   2.188  20.512  0.00  0.00    +0.000 Cl
ENDBRANCH  17  22
ENDBRANCH   2  16
TORSDOF 3
ENDMDL
MODEL 9
REMARK VINA RESULT:      -7.8      2.128      2.670
REMARK  Name = 
REMARK  5 active torsions:
REMARK  status: ('A' for Active; 'I' for Inactive)
REMARK    1  A    between atoms: C_1  and  C_2
REMARK    2  A    between atoms: C_6  and  N_7
REMARK    3  A    between atoms: C_8  and  C_10
REMARK    4  A    between atoms: C_11  and  C_12
REMARK    5  A    between atoms: C_22  and  C_23
REMARK                            x       y       z     vdW  Elec       q    Type
REMARK                         _______ _______ _______ _____ _____    ______ ____
ROOT
ATOM      1  N   UNL     1       2.342   6.985  18.653  0.00  0.00    +0.000 N 
ATOM      2  C   UNL     1       2.772   5.837  19.309  0.00  0.00    +0.000 C 
ATOM      3  O   UNL     1       2.740   5.661  20.520  0.00  0.00    +0.000 OA
ATOM      4  H   UNL     1       2.091   6.876  17.678  0.00  0.00    +0.000 HD
ENDROOT
BRANCH   1  10
ATOM      5  C   UNL     1      -0.449  13.646  19.710  0.00  0.00    +0.000 C 
ATOM      6  C   UNL     1       0.122  12.278  19.731  0.00  0.00    +0.000 A 
ATOM      7  N   UNL     1       0.629  11.609  18.715  0.00  0.00    +0.000 NA
ATOM      8  C   UNL     1       1.013  10.390  19.226  0.00  0.00    +0.000 A 
ATOM      9  C   UNL     1       1.598   9.285  18.582  0.00  0.00    +0.000 A 
ATOM     10  C   UNL     1       1.822   8.114  19.324  0.00  0.00    +0.000 A 
ATOM     11  C   UNL     1       1.537   8.085  20.695  0.00  0.00    +0.000 A 
ATOM     12  C   UNL     1       1.001   9.194  21.363  0.00  0.00    +0.000 A 
ATOM     13  C   UNL     1       0.736  10.320  20.585  0.00  0.00    +0.000 A 
ATOM     14  N   UNL     1       0.184  11.537  20.885  0.00  0.00    +0.000 N 
ATOM     15  H   UNL     1      -0.137  11.833  21.795  0.00  0.00    +0.000 HD
ENDBRANCH   1  10
BRANCH   2  16
ATOM     16  C   UNL     1       3.183   4.773  18.422  0.00  0.00    +0.000 A 
ATOM     17  C   UNL     1       4.428   4.619  17.725  0.00  0.00    +0.000 A 
ATOM     18  N   UNL     1       4.399   3.506  16.973  0.00  0.00    +0.000 NA
ATOM     19  O   UNL     1       3.143   2.961  17.123  0.00  0.00    +0.000 OA
ATOM     20  C   UNL     1       2.418   3.715  17.987  0.00  0.00    +0.000 A 
ATOM     21  C   UNL     1       1.026   3.276  18.225  0.00  0.00    +0.000 C 
BRANCH  17  22
ATOM     22  C   UNL     1       5.625   5.459  17.815  0.00  0.00    +0.000 A 
ATOM     23  C   UNL     1       6.488   5.289  18.908  0.00  0.00    +0.000 A 
ATOM     24  F   UNL     1       6.273   4.303  19.795  0.00  0.00    +0.000 F 
ATOM     25  C   UNL     1       7.596   6.108  19.114  0.00  0.00    +0.000 A 
ATOM     26  C   UNL     1       7.896   7.106  18.195  0.00  0.00    +0.000 A 
ATOM     27  C   UNL     1       7.089   7.263  17.069  0.00  0.00    +0.000 A 
ATOM     28  C   UNL     1       5.956   6.453  16.878  0.00  0.00    +0.000 A 
ATOM     29 CL   UNL     1       5.011   6.786  15.466  0.00  0.00    +0.000 Cl
ENDBRANCH  17  22
ENDBRANCH   2  16
TORSDOF 3
ENDMDL
