MODEL 1
REMARK VINA RESULT:      -9.2      0.000      0.000
REMARK  Name = 
REMARK  6 active torsions:
REMARK  status: ('A' for Active; 'I' for Inactive)
REMARK    1  A    between atoms: C_1  and  C_2
REMARK    2  A    between atoms: C_5  and  C_6
REMARK    3  A    between atoms: C_7  and  C_8
REMARK    4  A    between atoms: C_13  and  C_15
REMARK    5  A    between atoms: C_15  and  C_16
REMARK    6  A    between atoms: C_16  and  C_17
REMARK                            x       y       z     vdW  Elec       q    Type
REMARK                         _______ _______ _______ _____ _____    ______ ____
ROOT
ATOM      1  C   UNL     1       4.474   4.852  17.993  0.00  0.00    +0.000 A 
ATOM      2  C   UNL     1       4.136   3.756  18.772  0.00  0.00    +0.000 A 
ATOM      3  S   UNL     1       3.076   4.244  20.044  0.00  0.00    +0.000 S 
ATOM      4  C   UNL     1       3.101   5.825  19.420  0.00  0.00    +0.000 A 
ATOM      5  N   UNL     1       2.304   6.738  20.055  0.00  0.00    +0.000 N 
ATOM      6  C   UNL     1       2.006   7.941  19.459  0.00  0.00    +0.000 C 
ATOM      7  O   UNL     1       2.334   8.320  18.338  0.00  0.00    +0.000 OA
ATOM      8  N   UNL     1       3.879   6.029  18.397  0.00  0.00    +0.000 NA
ATOM      9  H   UNL     1       1.801   6.424  20.872  0.00  0.00    +0.000 HD
ENDROOT
BRANCH   1  16
ATOM     10  C   UNL     1       5.215   3.766  13.176  0.00  0.00    +0.000 C 
ATOM     11  C   UNL     1       5.749   4.287  14.477  0.00  0.00    +0.000 A 
ATOM     12  C   UNL     1       7.071   4.707  14.593  0.00  0.00    +0.000 A 
ATOM     13  C   UNL     1       7.554   5.180  15.811  0.00  0.00    +0.000 A 
ATOM     14  C   UNL     1       6.725   5.250  16.943  0.00  0.00    +0.000 A 
ATOM     15  C   UNL     1       7.329   5.775  18.223  0.00  0.00    +0.000 C 
ATOM     16  C   UNL     1       5.375   4.832  16.840  0.00  0.00    +0.000 A 
ATOM     17  C   UNL     1       4.912   4.347  15.602  0.00  0.00    +0.000 A 
ENDBRANCH   1  16
BRANCH   6  18
ATOM     18  C   UNL     1       1.133   8.831  20.317  0.00  0.00    +0.000 C 
BRANCH  18  19
ATOM     19  C   UNL     1       1.117  10.239  19.737  0.00  0.00    +0.000 C 
BRANCH  19  20
ATOM     20  C   UNL     1      -0.219  10.609  19.133  0.00  0.00    +0.000 A 
ATOM     21  N   UNL     1      -0.601  10.128  17.991  0.00  0.00    +0.000 NA
ATOM     22  C   UNL     1      -1.881  10.490  17.527  0.00  0.00    +0.000 A 
ATOM     23  C   UNL     1      -2.323   9.981  16.304  0.00  0.00    +0.000 A 
ATOM     24  C   UNL     1      -3.593  10.304  15.816  0.00  0.00    +0.000 A 
ATOM     25  C   UNL     1      -4.435  11.141  16.548  0.00  0.00    +0.000 A 
ATOM     26  C   UNL     1      -4.008  11.658  17.770  0.00  0.00    +0.000 A 
ATOM     27  C   UNL     1      -2.738  11.328  18.248  0.00  0.00    +0.000 A 
ATOM     28  C   UNL     1      -2.256  11.842  19.538  0.00  0.00    +0.000 A 
ATOM     29  O   UNL     1      -2.929  12.585  20.243  0.00  0.00    +0.000 OA
ATOM     30  N   UNL     1      -0.999  11.428  19.906  0.00  0.00    +0.000 N 
ATOM     31  H   UNL     1      -0.657  11.801  20.780  0.00  0.00    +0.000 HD
ENDBRANCH  19  20
ENDBRANCH  18  19
ENDBRANCH   6  18
TORSDOF 4
ENDMDL
MODEL 2
REMARK VINA RESULT:      -9.1      1.274      1.886
REMARK  Name = 
REMARK  6 active torsions:
REMARK  status: ('A' for Active; 'I' for Inactive)
REMARK    1  A    between atoms: C_1  and  C_2
REMARK    2  A    between atoms: C_5  and  C_6
REMARK    3  A    between atoms: C_7  and  C_8
REMARK    4  A    between atoms: C_13  and  C_15
REMARK    5  A    between atoms: C_15  and  C_16
REMARK    6  A    between atoms: C_16  and  C_17
REMARK                            x       y       z     vdW  Elec       q    Type
REMARK                         _______ _______ _______ _____ _____    ______ ____
ROOT
ATOM      1  C   UNL     1       4.448   5.185  17.813  0.00  0.00    +0.000 A 
ATOM      2  C   UNL     1       4.122   4.186  18.715  0.00  0.00    +0.000 A 
ATOM      3  S   UNL     1       3.045   4.805  19.914  0.00  0.00    +0.000 S 
ATOM      4  C   UNL     1       3.049   6.299  19.105  0.00  0.00    +0.000 A 
ATOM      5  N   UNL     1       2.231   7.268  19.620  0.00  0.00    +0.000 N 
ATOM      6  C   UNL     1       1.918   8.385  18.881  0.00  0.00    +0.000 C 
ATOM      7  O   UNL     1       2.249   8.632  17.725  0.00  0.00    +0.000 OA
ATOM      8  N   UNL     1       3.831   6.392  18.069  0.00  0.00    +0.000 NA
ATOM      9  H   UNL     1       1.728   7.046  20.466  0.00  0.00    +0.000 HD
ENDROOT
BRANCH   1  16
ATOM     10  C   UNL     1       5.200   3.676  13.112  0.00  0.00    +0.000 C 
ATOM     11  C   UNL     1       5.737   4.289  14.371  0.00  0.00    +0.000 A 
ATOM     12  C   UNL     1       7.070   4.681  14.465  0.00  0.00    +0.000 A 
ATOM     13  C   UNL     1       7.556   5.241  15.645  0.00  0.00    +0.000 A 
ATOM     14  C   UNL     1       6.719   5.430  16.758  0.00  0.00    +0.000 A 
ATOM     15  C   UNL     1       7.327   6.044  17.995  0.00  0.00    +0.000 C 
ATOM     16  C   UNL     1       5.359   5.043  16.675  0.00  0.00    +0.000 A 
ATOM     17  C   UNL     1       4.892   4.468  15.477  0.00  0.00    +0.000 A 
ENDBRANCH   1  16
BRANCH   6  18
ATOM     18  C   UNL     1       1.024   9.356  19.621  0.00  0.00    +0.000 C 
BRANCH  18  19
ATOM     19  C   UNL     1       0.752  10.569  18.741  0.00  0.00    +0.000 C 
BRANCH  19  20
ATOM     20  C   UNL     1      -0.712  10.728  18.398  0.00  0.00    +0.000 A 
ATOM     21  N   UNL     1      -1.512  11.418  19.149  0.00  0.00    +0.000 NA
ATOM     22  C   UNL     1      -2.849  11.551  18.728  0.00  0.00    +0.000 A 
ATOM     23  C   UNL     1      -3.733  12.296  19.514  0.00  0.00    +0.000 A 
ATOM     24  C   UNL     1      -5.064  12.465  19.121  0.00  0.00    +0.000 A 
ATOM     25  C   UNL     1      -5.527  11.889  17.938  0.00  0.00    +0.000 A 
ATOM     26  C   UNL     1      -4.659  11.142  17.144  0.00  0.00    +0.000 A 
ATOM     27  C   UNL     1      -3.330  10.981  17.545  0.00  0.00    +0.000 A 
ATOM     28  C   UNL     1      -2.380  10.211  16.729  0.00  0.00    +0.000 A 
ATOM     29  O   UNL     1      -2.703   9.670  15.679  0.00  0.00    +0.000 OA
ATOM     30  N   UNL     1      -1.099  10.144  17.221  0.00  0.00    +0.000 N 
ATOM     31  H   UNL     1      -0.452   9.595  16.674  0.00  0.00    +0.000 HD
ENDBRANCH  19  20
ENDBRANCH  18  19
ENDBRANCH   6  18
TORSDOF 4
ENDMDL
MODEL 3
REMARK VINA RESULT:      -8.8      2.036      2.946
REMARK  Name = 
REMARK  6 active torsions:
REMARK  status: ('A' for Active; 'I' for Inactive)
REMARK    1  A    between atoms: C_1  and  C_2
REMARK    2  A    between atoms: C_5  and  C_6
REMARK    3  A    between atoms: C_7  and  C_8
REMARK    4  A    between atoms: C_13  and  C_15
REMARK    5  A    between atoms: C_15  and  C_16
REMARK    6  A    between atoms: C_16  and  C_17
REMARK                            x       y       z     vdW  Elec       q    Type
REMARK                         _______ _______ _______ _____ _____    ______ ____
ROOT
ATOM      1  C   UNL     1       4.245   4.417  18.725  0.00  0.00    +0.000 A 
ATOM      2  C   UNL     1       3.854   3.208  19.278  0.00  0.00    +0.000 A 
ATOM      3  S   UNL     1       2.687   3.480  20.521  0.00  0.00    +0.000 S 
ATOM      4  C   UNL     1       2.749   5.142  20.176  0.00  0.00    +0.000 A 
ATOM      5  N   UNL     1       1.893   5.940  20.886  0.00  0.00    +0.000 N 
ATOM      6  C   UNL     1       1.634   7.227  20.477  0.00  0.00    +0.000 C 
ATOM      7  O   UNL     1       2.051   7.787  19.467  0.00  0.00    +0.000 OA
ATOM      8  N   UNL     1       3.607   5.512  19.270  0.00  0.00    +0.000 NA
ATOM      9  H   UNL     1       1.327   5.495  21.594  0.00  0.00    +0.000 HD
ENDROOT
BRANCH   1  16
ATOM     10  C   UNL     1       5.461   3.958  13.904  0.00  0.00    +0.000 C 
ATOM     11  C   UNL     1       5.846   4.350  15.299  0.00  0.00    +0.000 A 
ATOM     12  C   UNL     1       7.122   4.830  15.582  0.00  0.00    +0.000 A 
ATOM     13  C   UNL     1       7.468   5.182  16.885  0.00  0.00    +0.000 A 
ATOM     14  C   UNL     1       6.543   5.069  17.937  0.00  0.00    +0.000 A 
ATOM     15  C   UNL     1       7.000   5.472  19.318  0.00  0.00    +0.000 C 
ATOM     16  C   UNL     1       5.239   4.587  17.664  0.00  0.00    +0.000 A 
ATOM     17  C   UNL     1       4.916   4.227  16.342  0.00  0.00    +0.000 A 
ENDBRANCH   1  16
BRANCH   6  18
ATOM     18  C   UNL     1       0.684   7.964  21.397  0.00  0.00    +0.000 C 
BRANCH  18  19
ATOM     19  C   UNL     1       1.318   9.278  21.835  0.00  0.00    +0.000 C 
BRANCH  19  20
ATOM     20  C   UNL     1       0.840  10.459  21.021  0.00  0.00    +0.000 A 
ATOM     21  N   UNL     1       1.257  11.662  21.264  0.00  0.00    +0.000 NA
ATOM     22  C   UNL     1       0.795  12.694  20.425  0.00  0.00    +0.000 A 
ATOM     23  C   UNL     1       1.234  14.000  20.659  0.00  0.00    +0.000 A 
ATOM     24  C   UNL     1       0.811  15.050  19.838  0.00  0.00    +0.000 A 
ATOM     25  C   UNL     1      -0.058  14.805  18.774  0.00  0.00    +0.000 A 
ATOM     26  C   UNL     1      -0.505  13.509  18.528  0.00  0.00    +0.000 A 
ATOM     27  C   UNL     1      -0.075  12.466  19.354  0.00  0.00    +0.000 A 
ATOM     28  C   UNL     1      -0.514  11.083  19.120  0.00  0.00    +0.000 A 
ATOM     29  O   UNL     1      -1.278  10.780  18.211  0.00  0.00    +0.000 OA
ATOM     30  N   UNL     1      -0.005  10.148  19.988  0.00  0.00    +0.000 N 
ATOM     31  H   UNL     1      -0.325   9.201  19.843  0.00  0.00    +0.000 HD
ENDBRANCH  19  20
ENDBRANCH  18  19
ENDBRANCH   6  18
TORSDOF 4
ENDMDL
MODEL 4
REMARK VINA RESULT:      -8.7      1.998      2.991
REMARK  Name = 
REMARK  6 active torsions:
REMARK  status: ('A' for Active; 'I' for Inactive)
REMARK    1  A    between atoms: C_1  and  C_2
REMARK    2  A    between atoms: C_5  and  C_6
REMARK    3  A    between atoms: C_7  and  C_8
REMARK    4  A    between atoms: C_13  and  C_15
REMARK    5  A    between atoms: C_15  and  C_16
REMARK    6  A    between atoms: C_16  and  C_17
REMARK                            x       y       z     vdW  Elec       q    Type
REMARK                         _______ _______ _______ _____ _____    ______ ____
ROOT
ATOM      1  C   UNL     1       4.284   4.360  18.567  0.00  0.00    +0.000 A 
ATOM      2  C   UNL     1       3.873   3.143  19.085  0.00  0.00    +0.000 A 
ATOM      3  S   UNL     1       2.728   3.399  20.351  0.00  0.00    +0.000 S 
ATOM      4  C   UNL     1       2.823   5.070  20.059  0.00  0.00    +0.000 A 
ATOM      5  N   UNL     1       1.992   5.862  20.806  0.00  0.00    +0.000 N 
ATOM      6  C   UNL     1       1.758   7.168  20.442  0.00  0.00    +0.000 C 
ATOM      7  O   UNL     1       2.175   7.751  19.446  0.00  0.00    +0.000 OA
ATOM      8  N   UNL     1       3.678   5.451  19.156  0.00  0.00    +0.000 NA
ATOM      9  H   UNL     1       1.425   5.407  21.505  0.00  0.00    +0.000 HD
ENDROOT
BRANCH   1  16
ATOM     10  C   UNL     1       5.479   3.914  13.739  0.00  0.00    +0.000 C 
ATOM     11  C   UNL     1       5.866   4.313  15.131  0.00  0.00    +0.000 A 
ATOM     12  C   UNL     1       7.137   4.812  15.406  0.00  0.00    +0.000 A 
ATOM     13  C   UNL     1       7.485   5.170  16.707  0.00  0.00    +0.000 A 
ATOM     14  C   UNL     1       6.569   5.044  17.765  0.00  0.00    +0.000 A 
ATOM     15  C   UNL     1       7.029   5.455  19.143  0.00  0.00    +0.000 C 
ATOM     16  C   UNL     1       5.270   4.544  17.500  0.00  0.00    +0.000 A 
ATOM     17  C   UNL     1       4.944   4.178  16.180  0.00  0.00    +0.000 A 
ENDBRANCH   1  16
BRANCH   6  18
ATOM     18  C   UNL     1       0.835   7.894  21.397  0.00  0.00    +0.000 C 
BRANCH  18  19
ATOM     19  C   UNL     1       1.340   9.316  21.609  0.00  0.00    +0.000 C 
BRANCH  19  20
ATOM     20  C   UNL     1       0.255  10.355  21.430  0.00  0.00    +0.000 A 
ATOM     21  N   UNL     1      -0.094  11.142  22.399  0.00  0.00    +0.000 NA
ATOM     22  C   UNL     1      -1.079  12.111  22.129  0.00  0.00    +0.000 A 
ATOM     23  C   UNL     1      -1.471  12.977  23.152  0.00  0.00    +0.000 A 
ATOM     24  C   UNL     1      -2.435  13.964  22.919  0.00  0.00    +0.000 A 
ATOM     25  C   UNL     1      -3.019  14.092  21.659  0.00  0.00    +0.000 A 
ATOM     26  C   UNL     1      -2.640  13.234  20.628  0.00  0.00    +0.000 A 
ATOM     27  C   UNL     1      -1.675  12.253  20.871  0.00  0.00    +0.000 A 
ATOM     28  C   UNL     1      -1.239  11.338  19.807  0.00  0.00    +0.000 A 
ATOM     29  O   UNL     1      -1.702  11.379  18.673  0.00  0.00    +0.000 OA
ATOM     30  N   UNL     1      -0.270  10.433  20.167  0.00  0.00    +0.000 N 
ATOM     31  H   UNL     1       0.012   9.788  19.444  0.00  0.00    +0.000 HD
ENDBRANCH  19  20
ENDBRANCH  18  19
ENDBRANCH   6  18
TORSDOF 4
ENDMDL
MODEL 5
REMARK VINA RESULT:      -8.6      2.592      3.437
REMARK  Name = 
REMARK  6 active torsions:
REMARK  status: ('A' for Active; 'I' for Inactive)
REMARK    1  A    between atoms: C_1  and  C_2
REMARK    2  A    between atoms: C_5  and  C_6
REMARK    3  A    between atoms: C_7  and  C_8
REMARK    4  A    between atoms: C_13  and  C_15
REMARK    5  A    between atoms: C_15  and  C_16
REMARK    6  A    between atoms: C_16  and  C_17
REMARK                            x       y       z     vdW  Elec       q    Type
REMARK                         _______ _______ _______ _____ _____    ______ ____
ROOT
ATOM      1  C   UNL     1       4.075   4.636  18.673  0.00  0.00    +0.000 A 
ATOM      2  C   UNL     1       3.520   3.500  19.238  0.00  0.00    +0.000 A 
ATOM      3  S   UNL     1       2.341   3.945  20.418  0.00  0.00    +0.000 S 
ATOM      4  C   UNL     1       2.615   5.578  20.033  0.00  0.00    +0.000 A 
ATOM      5  N   UNL     1       1.829   6.492  20.681  0.00  0.00    +0.000 N 
ATOM      6  C   UNL     1       1.743   7.787  20.227  0.00  0.00    +0.000 C 
ATOM      7  O   UNL     1       2.266   8.262  19.223  0.00  0.00    +0.000 OA
ATOM      8  N   UNL     1       3.549   5.815  19.158  0.00  0.00    +0.000 NA
ATOM      9  H   UNL     1       1.185   6.139  21.373  0.00  0.00    +0.000 HD
ENDROOT
BRANCH   1  16
ATOM     10  C   UNL     1       5.434   3.889  13.926  0.00  0.00    +0.000 C 
ATOM     11  C   UNL     1       5.803   4.276  15.327  0.00  0.00    +0.000 A 
ATOM     12  C   UNL     1       7.114   4.610  15.657  0.00  0.00    +0.000 A 
ATOM     13  C   UNL     1       7.443   4.958  16.965  0.00  0.00    +0.000 A 
ATOM     14  C   UNL     1       6.467   4.987  17.976  0.00  0.00    +0.000 A 
ATOM     15  C   UNL     1       6.909   5.374  19.366  0.00  0.00    +0.000 C 
ATOM     16  C   UNL     1       5.127   4.655  17.655  0.00  0.00    +0.000 A 
ATOM     17  C   UNL     1       4.820   4.296  16.329  0.00  0.00    +0.000 A 
ENDBRANCH   1  16
BRANCH   6  18
ATOM     18  C   UNL     1       0.848   8.659  21.081  0.00  0.00    +0.000 C 
BRANCH  18  19
ATOM     19  C   UNL     1       0.059   9.608  20.188  0.00  0.00    +0.000 C 
BRANCH  19  20
ATOM     20  C   UNL     1       0.638  11.005  20.162  0.00  0.00    +0.000 A 
ATOM     21  N   UNL     1       1.340  11.428  19.158  0.00  0.00    +0.000 NA
ATOM     22  C   UNL     1       1.800  12.758  19.197  0.00  0.00    +0.000 A 
ATOM     23  C   UNL     1       2.553  13.243  18.126  0.00  0.00    +0.000 A 
ATOM     24  C   UNL     1       3.014  14.564  18.120  0.00  0.00    +0.000 A 
ATOM     25  C   UNL     1       2.727  15.413  19.189  0.00  0.00    +0.000 A 
ATOM     26  C   UNL     1       1.978  14.943  20.266  0.00  0.00    +0.000 A 
ATOM     27  C   UNL     1       1.521  13.623  20.261  0.00  0.00    +0.000 A 
ATOM     28  C   UNL     1       0.718  13.093  21.372  0.00  0.00    +0.000 A 
ATOM     29  O   UNL     1       0.423  13.769  22.351  0.00  0.00    +0.000 OA
ATOM     30  N   UNL     1       0.312  11.788  21.238  0.00  0.00    +0.000 N 
ATOM     31  H   UNL     1      -0.218  11.416  22.012  0.00  0.00    +0.000 HD
ENDBRANCH  19  20
ENDBRANCH  18  19
ENDBRANCH   6  18
TORSDOF 4
ENDMDL
MODEL 6
REMARK VINA RESULT:      -8.6      2.973     10.643
REMARK  Name = 
REMARK  6 active torsions:
REMARK  status: ('A' for Active; 'I' for Inactive)
REMARK    1  A    between atoms: C_1  and  C_2
REMARK    2  A    between atoms: C_5  and  C_6
REMARK    3  A    between atoms: C_7  and  C_8
REMARK    4  A    between atoms: C_13  and  C_15
REMARK    5  A    between atoms: C_15  and  C_16
REMARK    6  A    between atoms: C_16  and  C_17
REMARK                            x       y       z     vdW  Elec       q    Type
REMARK                         _______ _______ _______ _____ _____    ______ ____
ROOT
ATOM      1  C   UNL     1      -3.919  11.575  18.284  0.00  0.00    +0.000 A 
ATOM      2  C   UNL     1      -4.282  11.408  16.957  0.00  0.00    +0.000 A 
ATOM      3  S   UNL     1      -2.926  10.857  16.042  0.00  0.00    +0.000 S 
ATOM      4  C   UNL     1      -2.011  10.821  17.473  0.00  0.00    +0.000 A 
ATOM      5  N   UNL     1      -0.730  10.351  17.360  0.00  0.00    +0.000 N 
ATOM      6  C   UNL     1      -0.017   9.985  18.479  0.00  0.00    +0.000 C 
ATOM      7  O   UNL     1      -0.410   9.971  19.641  0.00  0.00    +0.000 OA
ATOM      8  N   UNL     1      -2.605  11.246  18.549  0.00  0.00    +0.000 NA
ATOM      9  H   UNL     1      -0.406  10.110  16.435  0.00  0.00    +0.000 HD
ENDROOT
BRANCH   1  16
ATOM     10  C   UNL     1      -4.605  14.589  22.206  0.00  0.00    +0.000 C 
ATOM     11  C   UNL     1      -5.131  13.525  21.290  0.00  0.00    +0.000 A 
ATOM     12  C   UNL     1      -6.403  12.987  21.472  0.00  0.00    +0.000 A 
ATOM     13  C   UNL     1      -6.875  11.993  20.618  0.00  0.00    +0.000 A 
ATOM     14  C   UNL     1      -6.089  11.515  19.556  0.00  0.00    +0.000 A 
ATOM     15  C   UNL     1      -6.676  10.436  18.679  0.00  0.00    +0.000 C 
ATOM     16  C   UNL     1      -4.795  12.056  19.354  0.00  0.00    +0.000 A 
ATOM     17  C   UNL     1      -4.335  13.052  20.236  0.00  0.00    +0.000 A 
ENDBRANCH   1  16
BRANCH   6  18
ATOM     18  C   UNL     1       1.385   9.514  18.162  0.00  0.00    +0.000 C 
BRANCH  18  19
ATOM     19  C   UNL     1       1.801   8.446  19.166  0.00  0.00    +0.000 C 
BRANCH  19  20
ATOM     20  C   UNL     1       2.552   7.300  18.525  0.00  0.00    +0.000 A 
ATOM     21  N   UNL     1       3.448   7.505  17.611  0.00  0.00    +0.000 NA
ATOM     22  C   UNL     1       4.130   6.382  17.104  0.00  0.00    +0.000 A 
ATOM     23  C   UNL     1       5.106   6.573  16.123  0.00  0.00    +0.000 A 
ATOM     24  C   UNL     1       5.818   5.486  15.606  0.00  0.00    +0.000 A 
ATOM     25  C   UNL     1       5.558   4.194  16.064  0.00  0.00    +0.000 A 
ATOM     26  C   UNL     1       4.586   3.987  17.041  0.00  0.00    +0.000 A 
ATOM     27  C   UNL     1       3.883   5.081  17.552  0.00  0.00    +0.000 A 
ATOM     28  C   UNL     1       2.859   4.905  18.592  0.00  0.00    +0.000 A 
ATOM     29  O   UNL     1       2.566   3.806  19.048  0.00  0.00    +0.000 OA
ATOM     30  N   UNL     1       2.254   6.060  19.026  0.00  0.00    +0.000 N 
ATOM     31  H   UNL     1       1.534   5.937  19.723  0.00  0.00    +0.000 HD
ENDBRANCH  19  20
ENDBRANCH  18  19
ENDBRANCH   6  18
TORSDOF 4
ENDMDL
MODEL 7
REMARK VINA RESULT:      -8.5      1.474      2.020
REMARK  Name = 
REMARK  6 active torsions:
REMARK  status: ('A' for Active; 'I' for Inactive)
REMARK    1  A    between atoms: C_1  and  C_2
REMARK    2  A    between atoms: C_5  and  C_6
REMARK    3  A    between atoms: C_7  and  C_8
REMARK    4  A    between atoms: C_13  and  C_15
REMARK    5  A    between atoms: C_15  and  C_16
REMARK    6  A    between atoms: C_16  and  C_17
REMARK                            x       y       z     vdW  Elec       q    Type
REMARK                         _______ _______ _______ _____ _____    ______ ____
ROOT
ATOM      1  C   UNL     1       4.027   5.541  18.390  0.00  0.00    +0.000 A 
ATOM      2  C   UNL     1       3.423   4.725  19.333  0.00  0.00    +0.000 A 
ATOM      3  S   UNL     1       2.196   5.603  20.172  0.00  0.00    +0.000 S 
ATOM      4  C   UNL     1       2.520   6.945  19.181  0.00  0.00    +0.000 A 
ATOM      5  N   UNL     1       1.721   8.041  19.367  0.00  0.00    +0.000 N 
ATOM      6  C   UNL     1       1.682   9.046  18.428  0.00  0.00    +0.000 C 
ATOM      7  O   UNL     1       2.263   9.080  17.347  0.00  0.00    +0.000 OA
ATOM      8  N   UNL     1       3.500   6.815  18.335  0.00  0.00    +0.000 NA
ATOM      9  H   UNL     1       1.037   7.993  20.107  0.00  0.00    +0.000 HD
ENDROOT
BRANCH   1  16
ATOM     10  C   UNL     1       5.546   3.983  13.895  0.00  0.00    +0.000 C 
ATOM     11  C   UNL     1       5.878   4.374  15.304  0.00  0.00    +0.000 A 
ATOM     12  C   UNL     1       7.190   4.337  15.768  0.00  0.00    +0.000 A 
ATOM     13  C   UNL     1       7.482   4.694  17.083  0.00  0.00    +0.000 A 
ATOM     14  C   UNL     1       6.468   5.105  17.965  0.00  0.00    +0.000 A 
ATOM     15  C   UNL     1       6.871   5.474  19.372  0.00  0.00    +0.000 C 
ATOM     16  C   UNL     1       5.128   5.153  17.507  0.00  0.00    +0.000 A 
ATOM     17  C   UNL     1       4.856   4.777  16.178  0.00  0.00    +0.000 A 
ENDBRANCH   1  16
BRANCH   6  18
ATOM     18  C   UNL     1       0.764  10.185  18.814  0.00  0.00    +0.000 C 
BRANCH  18  19
ATOM     19  C   UNL     1      -0.538  10.076  18.030  0.00  0.00    +0.000 C 
BRANCH  19  20
ATOM     20  C   UNL     1      -1.642  10.935  18.606  0.00  0.00    +0.000 A 
ATOM     21  N   UNL     1      -2.812  10.995  18.052  0.00  0.00    +0.000 NA
ATOM     22  C   UNL     1      -3.793  11.783  18.683  0.00  0.00    +0.000 A 
ATOM     23  C   UNL     1      -5.066  11.861  18.112  0.00  0.00    +0.000 A 
ATOM     24  C   UNL     1      -6.072  12.620  18.717  0.00  0.00    +0.000 A 
ATOM     25  C   UNL     1      -5.815  13.313  19.901  0.00  0.00    +0.000 A 
ATOM     26  C   UNL     1      -4.550  13.247  20.481  0.00  0.00    +0.000 A 
ATOM     27  C   UNL     1      -3.552  12.484  19.869  0.00  0.00    +0.000 A 
ATOM     28  C   UNL     1      -2.209  12.379  20.457  0.00  0.00    +0.000 A 
ATOM     29  O   UNL     1      -1.897  12.957  21.492  0.00  0.00    +0.000 OA
ATOM     30  N   UNL     1      -1.325  11.582  19.772  0.00  0.00    +0.000 N 
ATOM     31  H   UNL     1      -0.395  11.530  20.161  0.00  0.00    +0.000 HD
ENDBRANCH  19  20
ENDBRANCH  18  19
ENDBRANCH   6  18
TORSDOF 4
ENDMDL
MODEL 8
REMARK VINA RESULT:      -8.5      2.264      2.902
REMARK  Name = 
REMARK  6 active torsions:
REMARK  status: ('A' for Active; 'I' for Inactive)
REMARK    1  A    between atoms: C_1  and  C_2
REMARK    2  A    between atoms: C_5  and  C_6
REMARK    3  A    between atoms: C_7  and  C_8
REMARK    4  A    between atoms: C_13  and  C_15
REMARK    5  A    between atoms: C_15  and  C_16
REMARK    6  A    between atoms: C_16  and  C_17
REMARK                            x       y       z     vdW  Elec       q    Type
REMARK                         _______ _______ _______ _____ _____    ______ ____
ROOT
ATOM      1  C   UNL     1       4.561   4.370  16.831  0.00  0.00    +0.000 A 
ATOM      2  C   UNL     1       4.100   3.197  17.405  0.00  0.00    +0.000 A 
ATOM      3  S   UNL     1       3.112   3.560  18.773  0.00  0.00    +0.000 S 
ATOM      4  C   UNL     1       3.322   5.215  18.449  0.00  0.00    +0.000 A 
ATOM      5  N   UNL     1       2.641   6.081  19.261  0.00  0.00    +0.000 N 
ATOM      6  C   UNL     1       2.485   7.400  18.903  0.00  0.00    +0.000 C 
ATOM      7  O   UNL     1       2.850   7.939  17.862  0.00  0.00    +0.000 OA
ATOM      8  N   UNL     1       4.113   5.513  17.460  0.00  0.00    +0.000 NA
ATOM      9  H   UNL     1       2.110   5.682  20.020  0.00  0.00    +0.000 HD
ENDROOT
BRANCH   1  16
ATOM     10  C   UNL     1       5.459   3.237  12.051  0.00  0.00    +0.000 C 
ATOM     11  C   UNL     1       5.900   3.893  13.325  0.00  0.00    +0.000 A 
ATOM     12  C   UNL     1       7.130   4.539  13.410  0.00  0.00    +0.000 A 
ATOM     13  C   UNL     1       7.530   5.137  14.604  0.00  0.00    +0.000 A 
ATOM     14  C   UNL     1       6.705   5.108  15.741  0.00  0.00    +0.000 A 
ATOM     15  C   UNL     1       7.216   5.780  16.993  0.00  0.00    +0.000 C 
ATOM     16  C   UNL     1       5.448   4.460  15.669  0.00  0.00    +0.000 A 
ATOM     17  C   UNL     1       5.070   3.854  14.456  0.00  0.00    +0.000 A 
ENDBRANCH   1  16
BRANCH   6  18
ATOM     18  C   UNL     1       1.729   8.211  19.933  0.00  0.00    +0.000 C 
BRANCH  18  19
ATOM     19  C   UNL     1       1.015   9.368  19.245  0.00  0.00    +0.000 C 
BRANCH  19  20
ATOM     20  C   UNL     1       0.188  10.197  20.202  0.00  0.00    +0.000 A 
ATOM     21  N   UNL     1      -0.632  11.106  19.776  0.00  0.00    +0.000 NA
ATOM     22  C   UNL     1      -1.396  11.797  20.735  0.00  0.00    +0.000 A 
ATOM     23  C   UNL     1      -2.293  12.778  20.304  0.00  0.00    +0.000 A 
ATOM     24  C   UNL     1      -3.082  13.474  21.225  0.00  0.00    +0.000 A 
ATOM     25  C   UNL     1      -2.981  13.198  22.588  0.00  0.00    +0.000 A 
ATOM     26  C   UNL     1      -2.090  12.224  23.035  0.00  0.00    +0.000 A 
ATOM     27  C   UNL     1      -1.308  11.532  22.106  0.00  0.00    +0.000 A 
ATOM     28  C   UNL     1      -0.366  10.489  22.535  0.00  0.00    +0.000 A 
ATOM     29  O   UNL     1      -0.212  10.186  23.712  0.00  0.00    +0.000 OA
ATOM     30  N   UNL     1       0.329   9.869  21.525  0.00  0.00    +0.000 N 
ATOM     31  H   UNL     1       0.994   9.170  21.821  0.00  0.00    +0.000 HD
ENDBRANCH  19  20
ENDBRANCH  18  19
ENDBRANCH   6  18
TORSDOF 4
ENDMDL
MODEL 9
REMARK VINA RESULT:      -8.4      0.925      1.217
REMARK  Name = 
REMARK  6 active torsions:
REMARK  status: ('A' for Active; 'I' for Inactive)
REMARK    1  A    between atoms: C_1  and  C_2
REMARK    2  A    between atoms: C_5  and  C_6
REMARK    3  A    between atoms: C_7  and  C_8
REMARK    4  A    between atoms: C_13  and  C_15
REMARK    5  A    between atoms: C_15  and  C_16
REMARK    6  A    between atoms: C_16  and  C_17
REMARK                            x       y       z     vdW  Elec       q    Type
REMARK                         _______ _______ _______ _____ _____    ______ ____
ROOT
ATOM      1  C   UNL     1       4.326   5.284  17.797  0.00  0.00    +0.000 A 
ATOM      2  C   UNL     1       3.912   4.318  18.700  0.00  0.00    +0.000 A 
ATOM      3  S   UNL     1       2.805   5.008  19.831  0.00  0.00    +0.000 S 
ATOM      4  C   UNL     1       2.916   6.484  18.996  0.00  0.00    +0.000 A 
ATOM      5  N   UNL     1       2.118   7.498  19.452  0.00  0.00    +0.000 N 
ATOM      6  C   UNL     1       1.892   8.613  18.677  0.00  0.00    +0.000 C 
ATOM      7  O   UNL     1       2.290   8.821  17.535  0.00  0.00    +0.000 OA
ATOM      8  N   UNL     1       3.751   6.521  17.999  0.00  0.00    +0.000 NA
ATOM      9  H   UNL     1       1.564   7.316  20.275  0.00  0.00    +0.000 HD
ENDROOT
BRANCH   1  16
ATOM     10  C   UNL     1       5.223   3.725  13.138  0.00  0.00    +0.000 C 
ATOM     11  C   UNL     1       5.733   4.300  14.426  0.00  0.00    +0.000 A 
ATOM     12  C   UNL     1       7.083   4.598  14.593  0.00  0.00    +0.000 A 
ATOM     13  C   UNL     1       7.542   5.123  15.799  0.00  0.00    +0.000 A 
ATOM     14  C   UNL     1       6.662   5.370  16.866  0.00  0.00    +0.000 A 
ATOM     15  C   UNL     1       7.243   5.940  18.137  0.00  0.00    +0.000 C 
ATOM     16  C   UNL     1       5.285   5.078  16.709  0.00  0.00    +0.000 A 
ATOM     17  C   UNL     1       4.844   4.537  15.486  0.00  0.00    +0.000 A 
ENDBRANCH   1  16
BRANCH   6  18
ATOM     18  C   UNL     1       1.007   9.637  19.353  0.00  0.00    +0.000 C 
BRANCH  18  19
ATOM     19  C   UNL     1       0.581  10.690  18.339  0.00  0.00    +0.000 C 
BRANCH  19  20
ATOM     20  C   UNL     1      -0.832  11.181  18.562  0.00  0.00    +0.000 A 
ATOM     21  N   UNL     1      -1.753  11.027  17.662  0.00  0.00    +0.000 NA
ATOM     22  C   UNL     1      -3.051  11.473  17.975  0.00  0.00    +0.000 A 
ATOM     23  C   UNL     1      -4.065  11.314  17.027  0.00  0.00    +0.000 A 
ATOM     24  C   UNL     1      -5.371  11.729  17.306  0.00  0.00    +0.000 A 
ATOM     25  C   UNL     1      -5.677  12.310  18.537  0.00  0.00    +0.000 A 
ATOM     26  C   UNL     1      -4.676  12.477  19.493  0.00  0.00    +0.000 A 
ATOM     27  C   UNL     1      -3.375  12.057  19.204  0.00  0.00    +0.000 A 
ATOM     28  C   UNL     1      -2.294  12.204  20.190  0.00  0.00    +0.000 A 
ATOM     29  O   UNL     1      -2.475  12.706  21.293  0.00  0.00    +0.000 OA
ATOM     30  N   UNL     1      -1.066  11.735  19.794  0.00  0.00    +0.000 N 
ATOM     31  H   UNL     1      -0.318  11.858  20.461  0.00  0.00    +0.000 HD
ENDBRANCH  19  20
ENDBRANCH  18  19
ENDBRANCH   6  18
TORSDOF 4
ENDMDL
