MODEL 1
REMARK VINA RESULT:      -9.1      0.000      0.000
REMARK  Name = 
REMARK  4 active torsions:
REMARK  status: ('A' for Active; 'I' for Inactive)
REMARK    1  A    between atoms: C_1  and  C_2
REMARK    2  A    between atoms: N_6  and  C_7
REMARK    3  A    between atoms: C_11  and  N_12
REMARK    4  A    between atoms: C_13  and  C_15
REMARK                            x       y       z     vdW  Elec       q    Type
REMARK                         _______ _______ _______ _____ _____    ______ ____
ROOT
ATOM      1  N   UNL     1       2.102   7.269  18.818  0.00  0.00    +0.000 N 
ATOM      2  C   UNL     1       1.673   7.454  20.126  0.00  0.00    +0.000 C 
ATOM      3  O   UNL     1       1.747   6.637  21.037  0.00  0.00    +0.000 OA
ATOM      4  H   UNL     1       1.987   8.039  18.169  0.00  0.00    +0.000 HD
ENDROOT
BRANCH   2   5
ATOM      5  C   UNL     1       1.022   8.757  20.451  0.00  0.00    +0.000 A 
ATOM      6  C   UNL     1       1.063   9.745  19.461  0.00  0.00    +0.000 A 
ATOM      7  C   UNL     1       0.481  10.995  19.676  0.00  0.00    +0.000 A 
ATOM      8  C   UNL     1      -0.178  11.292  20.856  0.00  0.00    +0.000 A 
ATOM      9  N   UNL     1      -0.709  12.516  20.999  0.00  0.00    +0.000 NA
ATOM     10  C   UNL     1      -1.373  12.790  22.140  0.00  0.00    +0.000 A 
ATOM     11  C   UNL     1      -1.551  11.876  23.160  0.00  0.00    +0.000 A 
ATOM     12  C   UNL     1      -0.989  10.609  23.011  0.00  0.00    +0.000 A 
ATOM     13  C   UNL     1      -0.267  10.288  21.849  0.00  0.00    +0.000 A 
ATOM     14  C   UNL     1       0.343   9.024  21.647  0.00  0.00    +0.000 A 
ENDBRANCH   2   5
BRANCH   1  19
ATOM     15  C   UNL     1       4.614   4.800  17.569  0.00  0.00    +0.000 A 
ATOM     16  C   UNL     1       3.799   3.715  17.235  0.00  0.00    +0.000 A 
ATOM     17  C   UNL     1       2.422   3.807  17.406  0.00  0.00    +0.000 A 
ATOM     18  C   UNL     1       1.848   4.971  17.919  0.00  0.00    +0.000 A 
ATOM     19  C   UNL     1       2.636   6.068  18.278  0.00  0.00    +0.000 A 
ATOM     20  C   UNL     1       4.025   5.975  18.093  0.00  0.00    +0.000 A 
BRANCH  15  26
ATOM     21  C   UNL     1       6.544   4.819  14.953  0.00  0.00    +0.000 C 
ATOM     22  C   UNL     1       6.874   4.565  16.373  0.00  0.00    +0.000 A 
ATOM     23  N   UNL     1       8.087   4.307  16.823  0.00  0.00    +0.000 NA
ATOM     24  N   UNL     1       8.020   4.381  18.184  0.00  0.00    +0.000 NA
ATOM     25  N   UNL     1       6.798   4.691  18.581  0.00  0.00    +0.000 NA
ATOM     26  N   UNL     1       6.026   4.705  17.467  0.00  0.00    +0.000 N 
ENDBRANCH  15  26
ENDBRANCH   1  19
TORSDOF 3
ENDMDL
MODEL 2
REMARK VINA RESULT:      -9.0      1.135      1.216
REMARK  Name = 
REMARK  4 active torsions:
REMARK  status: ('A' for Active; 'I' for Inactive)
REMARK    1  A    between atoms: C_1  and  C_2
REMARK    2  A    between atoms: N_6  and  C_7
REMARK    3  A    between atoms: C_11  and  N_12
REMARK    4  A    between atoms: C_13  and  C_15
REMARK                            x       y       z     vdW  Elec       q    Type
REMARK                         _______ _______ _______ _____ _____    ______ ____
ROOT
ATOM      1  N   UNL     1       1.978   7.214  18.948  0.00  0.00    +0.000 N 
ATOM      2  C   UNL     1       1.883   8.454  18.331  0.00  0.00    +0.000 C 
ATOM      3  O   UNL     1       2.204   8.718  17.178  0.00  0.00    +0.000 OA
ATOM      4  H   UNL     1       1.663   7.138  19.909  0.00  0.00    +0.000 HD
ENDROOT
BRANCH   2   5
ATOM      5  C   UNL     1       1.379   9.590  19.159  0.00  0.00    +0.000 A 
ATOM      6  C   UNL     1       1.643  10.879  18.684  0.00  0.00    +0.000 A 
ATOM      7  C   UNL     1       1.210  12.001  19.392  0.00  0.00    +0.000 A 
ATOM      8  C   UNL     1       0.485  11.882  20.564  0.00  0.00    +0.000 A 
ATOM      9  N   UNL     1       0.106  13.002  21.197  0.00  0.00    +0.000 NA
ATOM     10  C   UNL     1      -0.623  12.879  22.324  0.00  0.00    +0.000 A 
ATOM     11  C   UNL     1      -1.016  11.665  22.852  0.00  0.00    +0.000 A 
ATOM     12  C   UNL     1      -0.611  10.504  22.197  0.00  0.00    +0.000 A 
ATOM     13  C   UNL     1       0.171  10.584  21.033  0.00  0.00    +0.000 A 
ATOM     14  C   UNL     1       0.628   9.439  20.332  0.00  0.00    +0.000 A 
ENDBRANCH   2   5
BRANCH   1  19
ATOM     15  C   UNL     1       4.545   4.817  17.671  0.00  0.00    +0.000 A 
ATOM     16  C   UNL     1       3.749   3.738  17.278  0.00  0.00    +0.000 A 
ATOM     17  C   UNL     1       2.368   3.810  17.418  0.00  0.00    +0.000 A 
ATOM     18  C   UNL     1       1.769   4.948  17.959  0.00  0.00    +0.000 A 
ATOM     19  C   UNL     1       2.537   6.038  18.377  0.00  0.00    +0.000 A 
ATOM     20  C   UNL     1       3.931   5.966  18.224  0.00  0.00    +0.000 A 
BRANCH  15  26
ATOM     21  C   UNL     1       6.522   4.679  15.095  0.00  0.00    +0.000 C 
ATOM     22  C   UNL     1       6.830   4.534  16.534  0.00  0.00    +0.000 A 
ATOM     23  N   UNL     1       8.038   4.330  17.023  0.00  0.00    +0.000 NA
ATOM     24  N   UNL     1       7.945   4.502  18.374  0.00  0.00    +0.000 NA
ATOM     25  N   UNL     1       6.711   4.819  18.727  0.00  0.00    +0.000 NA
ATOM     26  N   UNL     1       5.960   4.739  17.601  0.00  0.00    +0.000 N 
ENDBRANCH  15  26
ENDBRANCH   1  19
TORSDOF 3
ENDMDL
MODEL 3
REMARK VINA RESULT:      -8.9      1.068      1.566
REMARK  Name = 
REMARK  4 active torsions:
REMARK  status: ('A' for Active; 'I' for Inactive)
REMARK    1  A    between atoms: C_1  and  C_2
REMARK    2  A    between atoms: N_6  and  C_7
REMARK    3  A    between atoms: C_11  and  N_12
REMARK    4  A    between atoms: C_13  and  C_15
REMARK                            x       y       z     vdW  Elec       q    Type
REMARK                         _______ _______ _______ _____ _____    ______ ____
ROOT
ATOM      1  N   UNL     1       1.821   6.455  19.455  0.00  0.00    +0.000 N 
ATOM      2  C   UNL     1       1.894   7.812  19.168  0.00  0.00    +0.000 C 
ATOM      3  O   UNL     1       2.470   8.323  18.215  0.00  0.00    +0.000 OA
ATOM      4  H   UNL     1       1.298   6.172  20.276  0.00  0.00    +0.000 HD
ENDROOT
BRANCH   2   5
ATOM      5  C   UNL     1       1.242   8.747  20.133  0.00  0.00    +0.000 A 
ATOM      6  C   UNL     1       1.300   8.395  21.485  0.00  0.00    +0.000 A 
ATOM      7  C   UNL     1       0.718   9.209  22.458  0.00  0.00    +0.000 A 
ATOM      8  C   UNL     1       0.093  10.398  22.127  0.00  0.00    +0.000 A 
ATOM      9  N   UNL     1      -0.452  11.129  23.112  0.00  0.00    +0.000 NA
ATOM     10  C   UNL     1      -1.035  12.300  22.786  0.00  0.00    +0.000 A 
ATOM     11  C   UNL     1      -1.088  12.796  21.498  0.00  0.00    +0.000 A 
ATOM     12  C   UNL     1      -0.530  12.028  20.477  0.00  0.00    +0.000 A 
ATOM     13  C   UNL     1       0.066  10.790  20.768  0.00  0.00    +0.000 A 
ATOM     14  C   UNL     1       0.635   9.956  19.771  0.00  0.00    +0.000 A 
ENDBRANCH   2   5
BRANCH   1  19
ATOM     15  C   UNL     1       4.550   4.505  17.807  0.00  0.00    +0.000 A 
ATOM     16  C   UNL     1       3.852   3.389  17.336  0.00  0.00    +0.000 A 
ATOM     17  C   UNL     1       2.481   3.291  17.548  0.00  0.00    +0.000 A 
ATOM     18  C   UNL     1       1.797   4.294  18.236  0.00  0.00    +0.000 A 
ATOM     19  C   UNL     1       2.468   5.415  18.734  0.00  0.00    +0.000 A 
ATOM     20  C   UNL     1       3.851   5.515  18.509  0.00  0.00    +0.000 A 
BRANCH  15  26
ATOM     21  C   UNL     1       6.377   4.862  15.142  0.00  0.00    +0.000 C 
ATOM     22  C   UNL     1       6.782   4.602  16.541  0.00  0.00    +0.000 A 
ATOM     23  N   UNL     1       8.031   4.483  16.947  0.00  0.00    +0.000 NA
ATOM     24  N   UNL     1       7.999   4.500  18.311  0.00  0.00    +0.000 NA
ATOM     25  N   UNL     1       6.761   4.638  18.754  0.00  0.00    +0.000 NA
ATOM     26  N   UNL     1       5.959   4.594  17.662  0.00  0.00    +0.000 N 
ENDBRANCH  15  26
ENDBRANCH   1  19
TORSDOF 3
ENDMDL
MODEL 4
REMARK VINA RESULT:      -8.8      1.530      1.940
REMARK  Name = 
REMARK  4 active torsions:
REMARK  status: ('A' for Active; 'I' for Inactive)
REMARK    1  A    between atoms: C_1  and  C_2
REMARK    2  A    between atoms: N_6  and  C_7
REMARK    3  A    between atoms: C_11  and  N_12
REMARK    4  A    between atoms: C_13  and  C_15
REMARK                            x       y       z     vdW  Elec       q    Type
REMARK                         _______ _______ _______ _____ _____    ______ ____
ROOT
ATOM      1  N   UNL     1       1.896   6.317  20.688  0.00  0.00    +0.000 N 
ATOM      2  C   UNL     1       1.840   7.549  20.051  0.00  0.00    +0.000 C 
ATOM      3  O   UNL     1       2.356   7.836  18.977  0.00  0.00    +0.000 OA
ATOM      4  H   UNL     1       1.411   6.218  21.573  0.00  0.00    +0.000 HD
ENDROOT
BRANCH   2   5
ATOM      5  C   UNL     1       1.116   8.648  20.757  0.00  0.00    +0.000 A 
ATOM      6  C   UNL     1       1.110   8.600  22.155  0.00  0.00    +0.000 A 
ATOM      7  C   UNL     1       0.458   9.584  22.898  0.00  0.00    +0.000 A 
ATOM      8  C   UNL     1      -0.177  10.651  22.287  0.00  0.00    +0.000 A 
ATOM      9  N   UNL     1      -0.790  11.559  23.062  0.00  0.00    +0.000 NA
ATOM     10  C   UNL     1      -1.382  12.610  22.462  0.00  0.00    +0.000 A 
ATOM     11  C   UNL     1      -1.378  12.813  21.096  0.00  0.00    +0.000 A 
ATOM     12  C   UNL     1      -0.749  11.863  20.294  0.00  0.00    +0.000 A 
ATOM     13  C   UNL     1      -0.139  10.738  20.875  0.00  0.00    +0.000 A 
ATOM     14  C   UNL     1       0.501   9.728  20.112  0.00  0.00    +0.000 A 
ENDBRANCH   2   5
BRANCH   1  19
ATOM     15  C   UNL     1       4.614   4.296  19.107  0.00  0.00    +0.000 A 
ATOM     16  C   UNL     1       4.170   2.993  19.347  0.00  0.00    +0.000 A 
ATOM     17  C   UNL     1       2.968   2.784  20.015  0.00  0.00    +0.000 A 
ATOM     18  C   UNL     1       2.205   3.866  20.455  0.00  0.00    +0.000 A 
ATOM     19  C   UNL     1       2.628   5.181  20.245  0.00  0.00    +0.000 A 
ATOM     20  C   UNL     1       3.837   5.388  19.562  0.00  0.00    +0.000 A 
BRANCH  15  26
ATOM     21  C   UNL     1       5.413   4.481  15.962  0.00  0.00    +0.000 C 
ATOM     22  C   UNL     1       6.279   4.478  17.161  0.00  0.00    +0.000 A 
ATOM     23  N   UNL     1       7.595   4.572  17.133  0.00  0.00    +0.000 NA
ATOM     24  N   UNL     1       7.997   4.783  18.420  0.00  0.00    +0.000 NA
ATOM     25  N   UNL     1       6.959   4.833  19.238  0.00  0.00    +0.000 NA
ATOM     26  N   UNL     1       5.869   4.533  18.490  0.00  0.00    +0.000 N 
ENDBRANCH  15  26
ENDBRANCH   1  19
TORSDOF 3
ENDMDL
MODEL 5
REMARK VINA RESULT:      -8.8      1.379      1.379
REMARK  Name = 
REMARK  4 active torsions:
REMARK  status: ('A' for Active; 'I' for Inactive)
REMARK    1  A    between atoms: C_1  and  C_2
REMARK    2  A    between atoms: N_6  and  C_7
REMARK    3  A    between atoms: C_11  and  N_12
REMARK    4  A    between atoms: C_13  and  C_15
REMARK                            x       y       z     vdW  Elec       q    Type
REMARK                         _______ _______ _______ _____ _____    ______ ____
ROOT
ATOM      1  N   UNL     1       2.132   6.572  20.246  0.00  0.00    +0.000 N 
ATOM      2  C   UNL     1       1.997   7.656  19.389  0.00  0.00    +0.000 C 
ATOM      3  O   UNL     1       2.435   7.739  18.247  0.00  0.00    +0.000 OA
ATOM      4  H   UNL     1       1.707   6.638  21.163  0.00  0.00    +0.000 HD
ENDROOT
BRANCH   2   5
ATOM      5  C   UNL     1       1.282   8.856  19.917  0.00  0.00    +0.000 A 
ATOM      6  C   UNL     1       1.204   9.965  19.068  0.00  0.00    +0.000 A 
ATOM      7  C   UNL     1       0.555  11.131  19.477  0.00  0.00    +0.000 A 
ATOM      8  C   UNL     1      -0.054  11.223  20.715  0.00  0.00    +0.000 A 
ATOM      9  N   UNL     1      -0.654  12.376  21.047  0.00  0.00    +0.000 NA
ATOM     10  C   UNL     1      -1.270  12.450  22.244  0.00  0.00    +0.000 A 
ATOM     11  C   UNL     1      -1.331  11.400  23.139  0.00  0.00    +0.000 A 
ATOM     12  C   UNL     1      -0.697  10.207  22.795  0.00  0.00    +0.000 A 
ATOM     13  C   UNL     1      -0.023  10.094  21.567  0.00  0.00    +0.000 A 
ATOM     14  C   UNL     1       0.655   8.914  21.168  0.00  0.00    +0.000 A 
ENDBRANCH   2   5
BRANCH   1  19
ATOM     15  C   UNL     1       4.823   4.341  18.921  0.00  0.00    +0.000 A 
ATOM     16  C   UNL     1       4.428   3.098  19.421  0.00  0.00    +0.000 A 
ATOM     17  C   UNL     1       3.266   2.995  20.179  0.00  0.00    +0.000 A 
ATOM     18  C   UNL     1       2.497   4.127  20.453  0.00  0.00    +0.000 A 
ATOM     19  C   UNL     1       2.873   5.387  19.981  0.00  0.00    +0.000 A 
ATOM     20  C   UNL     1       4.040   5.485  19.207  0.00  0.00    +0.000 A 
BRANCH  15  26
ATOM     21  C   UNL     1       5.376   4.508  15.722  0.00  0.00    +0.000 C 
ATOM     22  C   UNL     1       6.333   4.413  16.846  0.00  0.00    +0.000 A 
ATOM     23  N   UNL     1       7.646   4.397  16.709  0.00  0.00    +0.000 NA
ATOM     24  N   UNL     1       8.168   4.553  17.960  0.00  0.00    +0.000 NA
ATOM     25  N   UNL     1       7.208   4.677  18.862  0.00  0.00    +0.000 NA
ATOM     26  N   UNL     1       6.039   4.482  18.204  0.00  0.00    +0.000 N 
ENDBRANCH  15  26
ENDBRANCH   1  19
TORSDOF 3
ENDMDL
MODEL 6
REMARK VINA RESULT:      -8.8      1.265      1.874
REMARK  Name = 
REMARK  4 active torsions:
REMARK  status: ('A' for Active; 'I' for Inactive)
REMARK    1  A    between atoms: C_1  and  C_2
REMARK    2  A    between atoms: N_6  and  C_7
REMARK    3  A    between atoms: C_11  and  N_12
REMARK    4  A    between atoms: C_13  and  C_15
REMARK                            x       y       z     vdW  Elec       q    Type
REMARK                         _______ _______ _______ _____ _____    ______ ____
ROOT
ATOM      1  N   UNL     1       1.991   6.976  19.010  0.00  0.00    +0.000 N 
ATOM      2  C   UNL     1       1.929   8.245  18.451  0.00  0.00    +0.000 C 
ATOM      3  O   UNL     1       2.294   8.562  17.325  0.00  0.00    +0.000 OA
ATOM      4  H   UNL     1       1.642   6.856  19.954  0.00  0.00    +0.000 HD
ENDROOT
BRANCH   2   5
ATOM      5  C   UNL     1       1.405   9.344  19.315  0.00  0.00    +0.000 A 
ATOM      6  C   UNL     1       1.110   9.015  20.642  0.00  0.00    +0.000 A 
ATOM      7  C   UNL     1       0.615   9.978  21.522  0.00  0.00    +0.000 A 
ATOM      8  C   UNL     1       0.426  11.290  21.127  0.00  0.00    +0.000 A 
ATOM      9  N   UNL     1      -0.060  12.163  22.023  0.00  0.00    +0.000 NA
ATOM     10  C   UNL     1      -0.216  13.446  21.639  0.00  0.00    +0.000 A 
ATOM     11  C   UNL     1       0.112  13.914  20.382  0.00  0.00    +0.000 A 
ATOM     12  C   UNL     1       0.607  13.001  19.451  0.00  0.00    +0.000 A 
ATOM     13  C   UNL     1       0.763  11.649  19.801  0.00  0.00    +0.000 A 
ATOM     14  C   UNL     1       1.243  10.671  18.893  0.00  0.00    +0.000 A 
ENDBRANCH   2   5
BRANCH   1  19
ATOM     15  C   UNL     1       4.574   4.669  17.606  0.00  0.00    +0.000 A 
ATOM     16  C   UNL     1       3.795   3.573  17.227  0.00  0.00    +0.000 A 
ATOM     17  C   UNL     1       2.418   3.604  17.420  0.00  0.00    +0.000 A 
ATOM     18  C   UNL     1       1.809   4.718  17.998  0.00  0.00    +0.000 A 
ATOM     19  C   UNL     1       2.561   5.824  18.403  0.00  0.00    +0.000 A 
ATOM     20  C   UNL     1       3.950   5.793  18.197  0.00  0.00    +0.000 A 
BRANCH  15  26
ATOM     21  C   UNL     1       6.458   4.655  14.956  0.00  0.00    +0.000 C 
ATOM     22  C   UNL     1       6.822   4.480  16.380  0.00  0.00    +0.000 A 
ATOM     23  N   UNL     1       8.053   4.296  16.818  0.00  0.00    +0.000 NA
ATOM     24  N   UNL     1       8.006   4.429  18.175  0.00  0.00    +0.000 NA
ATOM     25  N   UNL     1       6.777   4.702  18.582  0.00  0.00    +0.000 NA
ATOM     26  N   UNL     1       5.987   4.632  17.482  0.00  0.00    +0.000 N 
ENDBRANCH  15  26
ENDBRANCH   1  19
TORSDOF 3
ENDMDL
MODEL 7
REMARK VINA RESULT:      -8.7      1.072      1.449
REMARK  Name = 
REMARK  4 active torsions:
REMARK  status: ('A' for Active; 'I' for Inactive)
REMARK    1  A    between atoms: C_1  and  C_2
REMARK    2  A    between atoms: N_6  and  C_7
REMARK    3  A    between atoms: C_11  and  N_12
REMARK    4  A    between atoms: C_13  and  C_15
REMARK                            x       y       z     vdW  Elec       q    Type
REMARK                         _______ _______ _______ _____ _____    ______ ____
ROOT
ATOM      1  N   UNL     1       2.237   7.034  18.746  0.00  0.00    +0.000 N 
ATOM      2  C   UNL     1       1.791   7.193  20.051  0.00  0.00    +0.000 C 
ATOM      3  O   UNL     1       1.817   6.346  20.937  0.00  0.00    +0.000 OA
ATOM      4  H   UNL     1       2.163   7.828  18.121  0.00  0.00    +0.000 HD
ENDROOT
BRANCH   2   5
ATOM      5  C   UNL     1       1.182   8.509  20.407  0.00  0.00    +0.000 A 
ATOM      6  C   UNL     1       1.271   9.523  19.447  0.00  0.00    +0.000 A 
ATOM      7  C   UNL     1       0.731  10.786  19.693  0.00  0.00    +0.000 A 
ATOM      8  C   UNL     1       0.067  11.072  20.872  0.00  0.00    +0.000 A 
ATOM      9  N   UNL     1      -0.423  12.309  21.045  0.00  0.00    +0.000 NA
ATOM     10  C   UNL     1      -1.093  12.573  22.185  0.00  0.00    +0.000 A 
ATOM     11  C   UNL     1      -1.317  11.637  23.175  0.00  0.00    +0.000 A 
ATOM     12  C   UNL     1      -0.798  10.356  22.995  0.00  0.00    +0.000 A 
ATOM     13  C   UNL     1      -0.072  10.043  21.834  0.00  0.00    +0.000 A 
ATOM     14  C   UNL     1       0.496   8.764  21.602  0.00  0.00    +0.000 A 
ENDBRANCH   2   5
BRANCH   1  19
ATOM     15  C   UNL     1       4.423   4.735  16.770  0.00  0.00    +0.000 A 
ATOM     16  C   UNL     1       3.824   3.498  17.018  0.00  0.00    +0.000 A 
ATOM     17  C   UNL     1       2.692   3.426  17.822  0.00  0.00    +0.000 A 
ATOM     18  C   UNL     1       2.153   4.581  18.391  0.00  0.00    +0.000 A 
ATOM     19  C   UNL     1       2.737   5.832  18.177  0.00  0.00    +0.000 A 
ATOM     20  C   UNL     1       3.875   5.901  17.356  0.00  0.00    +0.000 A 
BRANCH  15  26
ATOM     21  C   UNL     1       7.532   4.668  17.717  0.00  0.00    +0.000 C 
ATOM     22  C   UNL     1       6.953   4.944  16.384  0.00  0.00    +0.000 A 
ATOM     23  N   UNL     1       7.661   5.207  15.302  0.00  0.00    +0.000 NA
ATOM     24  N   UNL     1       6.794   5.155  14.249  0.00  0.00    +0.000 NA
ATOM     25  N   UNL     1       5.572   4.855  14.656  0.00  0.00    +0.000 NA
ATOM     26  N   UNL     1       5.618   4.824  16.010  0.00  0.00    +0.000 N 
ENDBRANCH  15  26
ENDBRANCH   1  19
TORSDOF 3
ENDMDL
MODEL 8
REMARK VINA RESULT:      -8.7      0.728      1.512
REMARK  Name = 
REMARK  4 active torsions:
REMARK  status: ('A' for Active; 'I' for Inactive)
REMARK    1  A    between atoms: C_1  and  C_2
REMARK    2  A    between atoms: N_6  and  C_7
REMARK    3  A    between atoms: C_11  and  N_12
REMARK    4  A    between atoms: C_13  and  C_15
REMARK                            x       y       z     vdW  Elec       q    Type
REMARK                         _______ _______ _______ _____ _____    ______ ____
ROOT
ATOM      1  N   UNL     1       2.204   7.269  19.055  0.00  0.00    +0.000 N 
ATOM      2  C   UNL     1       1.640   7.329  20.322  0.00  0.00    +0.000 C 
ATOM      3  O   UNL     1       1.525   6.398  21.111  0.00  0.00    +0.000 OA
ATOM      4  H   UNL     1       2.243   8.125  18.513  0.00  0.00    +0.000 HD
ENDROOT
BRANCH   2   5
ATOM      5  C   UNL     1       1.081   8.644  20.757  0.00  0.00    +0.000 A 
ATOM      6  C   UNL     1       0.686   8.747  22.095  0.00  0.00    +0.000 A 
ATOM      7  C   UNL     1       0.153   9.937  22.590  0.00  0.00    +0.000 A 
ATOM      8  C   UNL     1       0.022  11.059  21.791  0.00  0.00    +0.000 A 
ATOM      9  N   UNL     1      -0.505  12.169  22.331  0.00  0.00    +0.000 NA
ATOM     10  C   UNL     1      -0.603  13.267  21.555  0.00  0.00    +0.000 A 
ATOM     11  C   UNL     1      -0.176  13.317  20.242  0.00  0.00    +0.000 A 
ATOM     12  C   UNL     1       0.361  12.159  19.683  0.00  0.00    +0.000 A 
ATOM     13  C   UNL     1       0.460  10.984  20.448  0.00  0.00    +0.000 A 
ATOM     14  C   UNL     1       0.981   9.771  19.931  0.00  0.00    +0.000 A 
ENDBRANCH   2   5
BRANCH   1  19
ATOM     15  C   UNL     1       4.595   4.837  17.526  0.00  0.00    +0.000 A 
ATOM     16  C   UNL     1       3.739   3.796  17.158  0.00  0.00    +0.000 A 
ATOM     17  C   UNL     1       2.373   3.906  17.398  0.00  0.00    +0.000 A 
ATOM     18  C   UNL     1       1.852   5.045  18.014  0.00  0.00    +0.000 A 
ATOM     19  C   UNL     1       2.683   6.096  18.410  0.00  0.00    +0.000 A 
ATOM     20  C   UNL     1       4.060   5.986  18.156  0.00  0.00    +0.000 A 
BRANCH  15  26
ATOM     21  C   UNL     1       6.383   4.737  14.813  0.00  0.00    +0.000 C 
ATOM     22  C   UNL     1       6.785   4.528  16.222  0.00  0.00    +0.000 A 
ATOM     23  N   UNL     1       8.017   4.267  16.616  0.00  0.00    +0.000 NA
ATOM     24  N   UNL     1       8.023   4.389  17.975  0.00  0.00    +0.000 NA
ATOM     25  N   UNL     1       6.828   4.731  18.426  0.00  0.00    +0.000 NA
ATOM     26  N   UNL     1       5.998   4.718  17.354  0.00  0.00    +0.000 N 
ENDBRANCH  15  26
ENDBRANCH   1  19
TORSDOF 3
ENDMDL
MODEL 9
REMARK VINA RESULT:      -8.7      3.232      8.932
REMARK  Name = 
REMARK  4 active torsions:
REMARK  status: ('A' for Active; 'I' for Inactive)
REMARK    1  A    between atoms: C_1  and  C_2
REMARK    2  A    between atoms: N_6  and  C_7
REMARK    3  A    between atoms: C_11  and  N_12
REMARK    4  A    between atoms: C_13  and  C_15
REMARK                            x       y       z     vdW  Elec       q    Type
REMARK                         _______ _______ _______ _____ _____    ______ ____
ROOT
ATOM      1  N   UNL     1       1.196   9.045  19.102  0.00  0.00    +0.000 N 
ATOM      2  C   UNL     1       2.114   8.420  18.270  0.00  0.00    +0.000 C 
ATOM      3  O   UNL     1       2.573   8.870  17.226  0.00  0.00    +0.000 OA
ATOM      4  H   UNL     1       0.911   8.557  19.944  0.00  0.00    +0.000 HD
ENDROOT
BRANCH   2   5
ATOM      5  C   UNL     1       2.561   7.049  18.657  0.00  0.00    +0.000 A 
ATOM      6  C   UNL     1       3.600   6.491  17.905  0.00  0.00    +0.000 A 
ATOM      7  C   UNL     1       4.083   5.214  18.195  0.00  0.00    +0.000 A 
ATOM      8  C   UNL     1       3.577   4.470  19.246  0.00  0.00    +0.000 A 
ATOM      9  N   UNL     1       4.082   3.247  19.465  0.00  0.00    +0.000 NA
ATOM     10  C   UNL     1       3.604   2.539  20.507  0.00  0.00    +0.000 A 
ATOM     11  C   UNL     1       2.635   3.009  21.371  0.00  0.00    +0.000 A 
ATOM     12  C   UNL     1       2.105   4.277  21.134  0.00  0.00    +0.000 A 
ATOM     13  C   UNL     1       2.557   5.040  20.044  0.00  0.00    +0.000 A 
ATOM     14  C   UNL     1       2.044   6.327  19.741  0.00  0.00    +0.000 A 
ENDBRANCH   2   5
BRANCH   1  19
ATOM     15  C   UNL     1      -1.456  11.501  18.152  0.00  0.00    +0.000 A 
ATOM     16  C   UNL     1      -0.799  12.717  18.359  0.00  0.00    +0.000 A 
ATOM     17  C   UNL     1       0.521  12.724  18.796  0.00  0.00    +0.000 A 
ATOM     18  C   UNL     1       1.193  11.525  19.037  0.00  0.00    +0.000 A 
ATOM     19  C   UNL     1       0.560  10.293  18.855  0.00  0.00    +0.000 A 
ATOM     20  C   UNL     1      -0.770  10.290  18.404  0.00  0.00    +0.000 A 
BRANCH  15  26
ATOM     21  C   UNL     1      -2.857  10.493  15.397  0.00  0.00    +0.000 C 
ATOM     22  C   UNL     1      -3.449  11.185  16.563  0.00  0.00    +0.000 A 
ATOM     23  N   UNL     1      -4.724  11.504  16.675  0.00  0.00    +0.000 NA
ATOM     24  N   UNL     1      -4.916  11.892  17.969  0.00  0.00    +0.000 NA
ATOM     25  N   UNL     1      -3.791  11.808  18.660  0.00  0.00    +0.000 NA
ATOM     26  N   UNL     1      -2.823  11.470  17.773  0.00  0.00    +0.000 N 
ENDBRANCH  15  26
ENDBRANCH   1  19
TORSDOF 3
ENDMDL
