MODEL 1
REMARK VINA RESULT:      -9.0      0.000      0.000
REMARK  Name = 
REMARK  4 active torsions:
REMARK  status: ('A' for Active; 'I' for Inactive)
REMARK    1  A    between atoms: C_2  and  O_3
REMARK    2  A    between atoms: C_2  and  C_4
REMARK    3  A    between atoms: C_9  and  C_10
REMARK    4  A    between atoms: C_15  and  C_16
REMARK                            x       y       z     vdW  Elec       q    Type
REMARK                         _______ _______ _______ _____ _____    ______ ____
ROOT
ATOM      1  C   UNL     1       1.863   7.943  19.674  0.00  0.00    +0.000 C 
ATOM      2  O   UNL     1       2.201   8.401  18.587  0.00  0.00    +0.000 OA
ATOM      3  N   UNL     1       2.143   6.698  20.193  0.00  0.00    +0.000 N 
ATOM      4  C   UNL     1       2.963   5.822  19.524  0.00  0.00    +0.000 A 
ATOM      5  N   UNL     1       3.653   6.019  18.432  0.00  0.00    +0.000 NA
ATOM      6  C   UNL     1       4.315   4.860  18.071  0.00  0.00    +0.000 A 
ATOM      7  C   UNL     1       4.092   3.776  18.899  0.00  0.00    +0.000 A 
ATOM      8  S   UNL     1       3.070   4.258  20.200  0.00  0.00    +0.000 S 
ATOM      9  H   UNL     1       1.731   6.368  21.046  0.00  0.00    +0.000 HD
ENDROOT
BRANCH   6  10
ATOM     10  C   UNL     1       5.124   4.852  16.851  0.00  0.00    +0.000 A 
ATOM     11  C   UNL     1       6.451   5.295  16.954  0.00  0.00    +0.000 A 
ATOM     12  C   UNL     1       7.264   5.391  15.829  0.00  0.00    +0.000 A 
ATOM     13  C   UNL     1       6.813   4.934  14.591  0.00  0.00    +0.000 A 
ATOM     14  C   UNL     1       7.654   5.002  13.475  0.00  0.00    +0.000 A 
ATOM     15  C   UNL     1       7.380   4.233  12.351  0.00  0.00    +0.000 A 
ATOM     16  C   UNL     1       6.184   3.524  12.279  0.00  0.00    +0.000 A 
ATOM     17  C   UNL     1       5.232   3.645  13.299  0.00  0.00    +0.000 A 
ATOM     18  C   UNL     1       5.542   4.329  14.491  0.00  0.00    +0.000 A 
ATOM     19  C   UNL     1       4.670   4.380  15.607  0.00  0.00    +0.000 A 
ENDBRANCH   6  10
BRANCH   1  25
ATOM     20  C   UNL     1       0.388   9.974  20.048  0.00  0.00    +0.000 A 
ATOM     21  C   UNL     1      -0.263  10.823  20.971  0.00  0.00    +0.000 A 
ATOM     22  C   UNL     1      -0.241  10.557  22.341  0.00  0.00    +0.000 A 
ATOM     23  C   UNL     1       0.424   9.438  22.819  0.00  0.00    +0.000 A 
ATOM     24  C   UNL     1       1.082   8.585  21.925  0.00  0.00    +0.000 A 
ATOM     25  C   UNL     1       1.064   8.840  20.537  0.00  0.00    +0.000 A 
BRANCH  20  27
ATOM     26  O   UNL     1      -0.861  10.057  18.050  0.00  0.00    +0.000 OA
ATOM     27  C   UNL     1       0.184  10.347  18.618  0.00  0.00    +0.000 C 
BRANCH  27  28
ATOM     28  O   UNL     1       1.123  11.092  18.019  0.00  0.00    +0.000 OA
ATOM     29  H   UNL     1       1.029  12.073  18.080  0.00  0.00    +0.000 HD
ENDBRANCH  27  28
ENDBRANCH  20  27
ENDBRANCH   1  25
TORSDOF 4
ENDMDL
MODEL 2
REMARK VINA RESULT:      -8.6      2.108      9.223
REMARK  Name = 
REMARK  4 active torsions:
REMARK  status: ('A' for Active; 'I' for Inactive)
REMARK    1  A    between atoms: C_2  and  O_3
REMARK    2  A    between atoms: C_2  and  C_4
REMARK    3  A    between atoms: C_9  and  C_10
REMARK    4  A    between atoms: C_15  and  C_16
REMARK                            x       y       z     vdW  Elec       q    Type
REMARK                         _______ _______ _______ _____ _____    ______ ____
ROOT
ATOM      1  C   UNL     1       4.516   6.204  17.494  0.00  0.00    +0.000 C 
ATOM      2  O   UNL     1       4.477   7.426  17.391  0.00  0.00    +0.000 OA
ATOM      3  N   UNL     1       3.839   5.407  18.390  0.00  0.00    +0.000 N 
ATOM      4  C   UNL     1       2.922   5.944  19.261  0.00  0.00    +0.000 A 
ATOM      5  N   UNL     1       2.479   7.172  19.327  0.00  0.00    +0.000 NA
ATOM      6  C   UNL     1       1.591   7.301  20.380  0.00  0.00    +0.000 A 
ATOM      7  C   UNL     1       1.391   6.153  21.122  0.00  0.00    +0.000 A 
ATOM      8  S   UNL     1       2.302   4.865  20.428  0.00  0.00    +0.000 S 
ATOM      9  H   UNL     1       4.017   4.424  18.474  0.00  0.00    +0.000 HD
ENDROOT
BRANCH   6  10
ATOM     10  C   UNL     1       0.998   8.612  20.654  0.00  0.00    +0.000 A 
ATOM     11  C   UNL     1       0.979   9.543  19.607  0.00  0.00    +0.000 A 
ATOM     12  C   UNL     1       0.503  10.836  19.805  0.00  0.00    +0.000 A 
ATOM     13  C   UNL     1      -0.078  11.195  21.020  0.00  0.00    +0.000 A 
ATOM     14  C   UNL     1      -0.587  12.486  21.194  0.00  0.00    +0.000 A 
ATOM     15  C   UNL     1      -1.481  12.747  22.225  0.00  0.00    +0.000 A 
ATOM     16  C   UNL     1      -1.739  11.764  23.176  0.00  0.00    +0.000 A 
ATOM     17  C   UNL     1      -1.047  10.548  23.136  0.00  0.00    +0.000 A 
ATOM     18  C   UNL     1      -0.224  10.227  22.038  0.00  0.00    +0.000 A 
ATOM     19  C   UNL     1       0.403   8.966  21.878  0.00  0.00    +0.000 A 
ENDBRANCH   6  10
BRANCH   1  25
ATOM     20  C   UNL     1       6.785   5.397  16.691  0.00  0.00    +0.000 A 
ATOM     21  C   UNL     1       7.541   4.792  15.663  0.00  0.00    +0.000 A 
ATOM     22  C   UNL     1       6.931   4.305  14.505  0.00  0.00    +0.000 A 
ATOM     23  C   UNL     1       5.557   4.405  14.351  0.00  0.00    +0.000 A 
ATOM     24  C   UNL     1       4.786   5.007  15.354  0.00  0.00    +0.000 A 
ATOM     25  C   UNL     1       5.390   5.500  16.530  0.00  0.00    +0.000 A 
BRANCH  20  27
ATOM     26  O   UNL     1       7.851   6.946  18.112  0.00  0.00    +0.000 OA
ATOM     27  C   UNL     1       7.576   5.773  17.899  0.00  0.00    +0.000 C 
BRANCH  27  28
ATOM     28  O   UNL     1       7.876   4.811  18.782  0.00  0.00    +0.000 OA
ATOM     29  H   UNL     1       8.795   4.448  18.761  0.00  0.00    +0.000 HD
ENDBRANCH  27  28
ENDBRANCH  20  27
ENDBRANCH   1  25
TORSDOF 4
ENDMDL
MODEL 3
REMARK VINA RESULT:      -8.4      3.741      9.917
REMARK  Name = 
REMARK  4 active torsions:
REMARK  status: ('A' for Active; 'I' for Inactive)
REMARK    1  A    between atoms: C_2  and  O_3
REMARK    2  A    between atoms: C_2  and  C_4
REMARK    3  A    between atoms: C_9  and  C_10
REMARK    4  A    between atoms: C_15  and  C_16
REMARK                            x       y       z     vdW  Elec       q    Type
REMARK                         _______ _______ _______ _____ _____    ______ ____
ROOT
ATOM      1  C   UNL     1       2.235   6.155  19.988  0.00  0.00    +0.000 C 
ATOM      2  O   UNL     1       1.455   6.134  20.934  0.00  0.00    +0.000 OA
ATOM      3  N   UNL     1       2.434   7.169  19.076  0.00  0.00    +0.000 N 
ATOM      4  C   UNL     1       1.787   8.374  19.207  0.00  0.00    +0.000 A 
ATOM      5  N   UNL     1       1.021   8.788  20.181  0.00  0.00    +0.000 NA
ATOM      6  C   UNL     1       0.535  10.052  19.899  0.00  0.00    +0.000 A 
ATOM      7  C   UNL     1       0.930  10.573  18.682  0.00  0.00    +0.000 A 
ATOM      8  S   UNL     1       1.993   9.460  17.907  0.00  0.00    +0.000 S 
ATOM      9  H   UNL     1       3.016   7.056  18.267  0.00  0.00    +0.000 HD
ENDROOT
BRANCH   6  10
ATOM     10  C   UNL     1      -0.376  10.693  20.850  0.00  0.00    +0.000 A 
ATOM     11  C   UNL     1      -0.301  10.287  22.189  0.00  0.00    +0.000 A 
ATOM     12  C   UNL     1      -1.182  10.791  23.142  0.00  0.00    +0.000 A 
ATOM     13  C   UNL     1      -2.080  11.803  22.807  0.00  0.00    +0.000 A 
ATOM     14  C   UNL     1      -2.934  12.328  23.783  0.00  0.00    +0.000 A 
ATOM     15  C   UNL     1      -3.552  13.555  23.577  0.00  0.00    +0.000 A 
ATOM     16  C   UNL     1      -3.448  14.178  22.338  0.00  0.00    +0.000 A 
ATOM     17  C   UNL     1      -2.787  13.537  21.282  0.00  0.00    +0.000 A 
ATOM     18  C   UNL     1      -2.063  12.350  21.505  0.00  0.00    +0.000 A 
ATOM     19  C   UNL     1      -1.273  11.722  20.510  0.00  0.00    +0.000 A 
ENDBRANCH   6  10
BRANCH   1  25
ATOM     20  C   UNL     1       2.726   3.689  20.333  0.00  0.00    +0.000 A 
ATOM     21  C   UNL     1       3.644   2.624  20.194  0.00  0.00    +0.000 A 
ATOM     22  C   UNL     1       4.873   2.804  19.557  0.00  0.00    +0.000 A 
ATOM     23  C   UNL     1       5.210   4.045  19.040  0.00  0.00    +0.000 A 
ATOM     24  C   UNL     1       4.320   5.118  19.170  0.00  0.00    +0.000 A 
ATOM     25  C   UNL     1       3.073   4.949  19.810  0.00  0.00    +0.000 A 
BRANCH  20  27
ATOM     26  O   UNL     1       1.382   2.939  22.118  0.00  0.00    +0.000 OA
ATOM     27  C   UNL     1       1.424   3.304  20.950  0.00  0.00    +0.000 C 
BRANCH  27  28
ATOM     28  O   UNL     1       0.308   3.473  20.228  0.00  0.00    +0.000 OA
ATOM     29  H   UNL     1      -0.550   3.240  20.660  0.00  0.00    +0.000 HD
ENDBRANCH  27  28
ENDBRANCH  20  27
ENDBRANCH   1  25
TORSDOF 4
ENDMDL
MODEL 4
REMARK VINA RESULT:      -8.2      2.641      9.118
REMARK  Name = 
REMARK  4 active torsions:
REMARK  status: ('A' for Active; 'I' for Inactive)
REMARK    1  A    between atoms: C_2  and  O_3
REMARK    2  A    between atoms: C_2  and  C_4
REMARK    3  A    between atoms: C_9  and  C_10
REMARK    4  A    between atoms: C_15  and  C_16
REMARK                            x       y       z     vdW  Elec       q    Type
REMARK                         _______ _______ _______ _____ _____    ______ ____
ROOT
ATOM      1  C   UNL     1       5.107   4.941  15.007  0.00  0.00    +0.000 C 
ATOM      2  O   UNL     1       4.801   6.120  14.864  0.00  0.00    +0.000 OA
ATOM      3  N   UNL     1       4.940   4.152  16.124  0.00  0.00    +0.000 N 
ATOM      4  C   UNL     1       4.286   4.628  17.234  0.00  0.00    +0.000 A 
ATOM      5  N   UNL     1       3.664   5.766  17.391  0.00  0.00    +0.000 NA
ATOM      6  C   UNL     1       3.177   5.868  18.681  0.00  0.00    +0.000 A 
ATOM      7  C   UNL     1       3.464   4.795  19.502  0.00  0.00    +0.000 A 
ATOM      8  S   UNL     1       4.317   3.602  18.598  0.00  0.00    +0.000 S 
ATOM      9  H   UNL     1       5.322   3.227  16.188  0.00  0.00    +0.000 HD
ENDROOT
BRANCH   6  10
ATOM     10  C   UNL     1       2.470   7.087  19.081  0.00  0.00    +0.000 A 
ATOM     11  C   UNL     1       2.218   8.043  18.087  0.00  0.00    +0.000 A 
ATOM     12  C   UNL     1       1.621   9.261  18.397  0.00  0.00    +0.000 A 
ATOM     13  C   UNL     1       1.149   9.507  19.686  0.00  0.00    +0.000 A 
ATOM     14  C   UNL     1       0.516  10.720  19.976  0.00  0.00    +0.000 A 
ATOM     15  C   UNL     1      -0.274  10.837  21.113  0.00  0.00    +0.000 A 
ATOM     16  C   UNL     1      -0.301   9.799  22.040  0.00  0.00    +0.000 A 
ATOM     17  C   UNL     1       0.520   8.679  21.865  0.00  0.00    +0.000 A 
ATOM     18  C   UNL     1       1.239   8.496  20.668  0.00  0.00    +0.000 A 
ATOM     19  C   UNL     1       1.986   7.327  20.380  0.00  0.00    +0.000 A 
ENDBRANCH   6  10
BRANCH   1  25
ATOM     20  C   UNL     1       6.997   4.624  13.343  0.00  0.00    +0.000 A 
ATOM     21  C   UNL     1       7.451   4.007  12.155  0.00  0.00    +0.000 A 
ATOM     22  C   UNL     1       6.662   3.080  11.473  0.00  0.00    +0.000 A 
ATOM     23  C   UNL     1       5.409   2.745  11.960  0.00  0.00    +0.000 A 
ATOM     24  C   UNL     1       4.933   3.347  13.132  0.00  0.00    +0.000 A 
ATOM     25  C   UNL     1       5.723   4.283  13.834  0.00  0.00    +0.000 A 
BRANCH  20  27
ATOM     26  O   UNL     1       8.920   5.988  13.345  0.00  0.00    +0.000 OA
ATOM     27  C   UNL     1       8.000   5.512  13.998  0.00  0.00    +0.000 C 
BRANCH  27  28
ATOM     28  O   UNL     1       7.801   5.854  15.278  0.00  0.00    +0.000 OA
ATOM     29  H   UNL     1       7.483   6.772  15.458  0.00  0.00    +0.000 HD
ENDBRANCH  27  28
ENDBRANCH  20  27
ENDBRANCH   1  25
TORSDOF 4
ENDMDL
MODEL 5
REMARK VINA RESULT:      -8.2      2.523      3.812
REMARK  Name = 
REMARK  4 active torsions:
REMARK  status: ('A' for Active; 'I' for Inactive)
REMARK    1  A    between atoms: C_2  and  O_3
REMARK    2  A    between atoms: C_2  and  C_4
REMARK    3  A    between atoms: C_9  and  C_10
REMARK    4  A    between atoms: C_15  and  C_16
REMARK                            x       y       z     vdW  Elec       q    Type
REMARK                         _______ _______ _______ _____ _____    ______ ____
ROOT
ATOM      1  C   UNL     1       1.365  11.170  18.929  0.00  0.00    +0.000 C 
ATOM      2  O   UNL     1       1.904  10.892  17.862  0.00  0.00    +0.000 OA
ATOM      3  N   UNL     1       1.069  10.324  19.975  0.00  0.00    +0.000 N 
ATOM      4  C   UNL     1       1.461   9.007  19.951  0.00  0.00    +0.000 A 
ATOM      5  N   UNL     1       2.208   8.393  19.072  0.00  0.00    +0.000 NA
ATOM      6  C   UNL     1       2.325   7.054  19.401  0.00  0.00    +0.000 A 
ATOM      7  C   UNL     1       1.633   6.666  20.532  0.00  0.00    +0.000 A 
ATOM      8  S   UNL     1       0.868   8.044  21.229  0.00  0.00    +0.000 S 
ATOM      9  H   UNL     1       0.526  10.618  20.765  0.00  0.00    +0.000 HD
ENDROOT
BRANCH   6  10
ATOM     10  C   UNL     1       3.097   6.171  18.525  0.00  0.00    +0.000 A 
ATOM     11  C   UNL     1       2.790   4.804  18.554  0.00  0.00    +0.000 A 
ATOM     12  C   UNL     1       3.526   3.887  17.809  0.00  0.00    +0.000 A 
ATOM     13  C   UNL     1       4.510   4.325  16.924  0.00  0.00    +0.000 A 
ATOM     14  C   UNL     1       5.217   3.396  16.153  0.00  0.00    +0.000 A 
ATOM     15  C   UNL     1       5.913   3.816  15.026  0.00  0.00    +0.000 A 
ATOM     16  C   UNL     1       6.037   5.176  14.762  0.00  0.00    +0.000 A 
ATOM     17  C   UNL     1       5.529   6.117  15.666  0.00  0.00    +0.000 A 
ATOM     18  C   UNL     1       4.727   5.709  16.750  0.00  0.00    +0.000 A 
ATOM     19  C   UNL     1       4.081   6.618  17.625  0.00  0.00    +0.000 A 
ENDBRANCH   6  10
BRANCH   1  25
ATOM     20  C   UNL     1      -0.253  13.116  18.733  0.00  0.00    +0.000 A 
ATOM     21  C   UNL     1      -0.470  14.506  18.863  0.00  0.00    +0.000 A 
ATOM     22  C   UNL     1       0.524  15.351  19.359  0.00  0.00    +0.000 A 
ATOM     23  C   UNL     1       1.751  14.829  19.740  0.00  0.00    +0.000 A 
ATOM     24  C   UNL     1       1.992  13.455  19.615  0.00  0.00    +0.000 A 
ATOM     25  C   UNL     1       0.994  12.589  19.118  0.00  0.00    +0.000 A 
BRANCH  20  27
ATOM     26  O   UNL     1      -2.239  11.901  19.103  0.00  0.00    +0.000 OA
ATOM     27  C   UNL     1      -1.448  12.346  18.281  0.00  0.00    +0.000 C 
BRANCH  27  28
ATOM     28  O   UNL     1      -1.680  12.253  16.965  0.00  0.00    +0.000 OA
ATOM     29  H   UNL     1      -2.531  11.838  16.683  0.00  0.00    +0.000 HD
ENDBRANCH  27  28
ENDBRANCH  20  27
ENDBRANCH   1  25
TORSDOF 4
ENDMDL
MODEL 6
REMARK VINA RESULT:      -8.1      3.663      5.302
REMARK  Name = 
REMARK  4 active torsions:
REMARK  status: ('A' for Active; 'I' for Inactive)
REMARK    1  A    between atoms: C_2  and  O_3
REMARK    2  A    between atoms: C_2  and  C_4
REMARK    3  A    between atoms: C_9  and  C_10
REMARK    4  A    between atoms: C_15  and  C_16
REMARK                            x       y       z     vdW  Elec       q    Type
REMARK                         _______ _______ _______ _____ _____    ______ ____
ROOT
ATOM      1  C   UNL     1      -0.103  10.932  21.680  0.00  0.00    +0.000 C 
ATOM      2  O   UNL     1       0.062   9.934  22.375  0.00  0.00    +0.000 OA
ATOM      3  N   UNL     1       0.326  11.146  20.388  0.00  0.00    +0.000 N 
ATOM      4  C   UNL     1       0.951  10.149  19.677  0.00  0.00    +0.000 A 
ATOM      5  N   UNL     1       1.141   8.901  20.014  0.00  0.00    +0.000 NA
ATOM      6  C   UNL     1       1.852   8.245  19.026  0.00  0.00    +0.000 A 
ATOM      7  C   UNL     1       2.214   9.028  17.947  0.00  0.00    +0.000 A 
ATOM      8  S   UNL     1       1.584  10.617  18.164  0.00  0.00    +0.000 S 
ATOM      9  H   UNL     1       0.242  12.037  19.936  0.00  0.00    +0.000 HD
ENDROOT
BRANCH   6  10
ATOM     10  C   UNL     1       2.204   6.836  19.218  0.00  0.00    +0.000 A 
ATOM     11  C   UNL     1       1.911   6.262  20.462  0.00  0.00    +0.000 A 
ATOM     12  C   UNL     1       2.281   4.952  20.753  0.00  0.00    +0.000 A 
ATOM     13  C   UNL     1       2.845   4.143  19.768  0.00  0.00    +0.000 A 
ATOM     14  C   UNL     1       3.177   2.817  20.062  0.00  0.00    +0.000 A 
ATOM     15  C   UNL     1       3.382   1.908  19.032  0.00  0.00    +0.000 A 
ATOM     16  C   UNL     1       3.414   2.357  17.715  0.00  0.00    +0.000 A 
ATOM     17  C   UNL     1       3.316   3.725  17.436  0.00  0.00    +0.000 A 
ATOM     18  C   UNL     1       2.998   4.644  18.456  0.00  0.00    +0.000 A 
ATOM     19  C   UNL     1       2.762   6.021  18.218  0.00  0.00    +0.000 A 
ENDBRANCH   6  10
BRANCH   1  25
ATOM     20  C   UNL     1      -0.420  13.374  22.296  0.00  0.00    +0.000 A 
ATOM     21  C   UNL     1      -1.170  14.338  23.006  0.00  0.00    +0.000 A 
ATOM     22  C   UNL     1      -2.326  13.987  23.705  0.00  0.00    +0.000 A 
ATOM     23  C   UNL     1      -2.761  12.671  23.707  0.00  0.00    +0.000 A 
ATOM     24  C   UNL     1      -2.032  11.695  23.016  0.00  0.00    +0.000 A 
ATOM     25  C   UNL     1      -0.863  12.038  22.302  0.00  0.00    +0.000 A 
BRANCH  20  27
ATOM     26  O   UNL     1       1.814  14.090  22.068  0.00  0.00    +0.000 OA
ATOM     27  C   UNL     1       0.728  13.932  21.524  0.00  0.00    +0.000 C 
BRANCH  27  28
ATOM     28  O   UNL     1       0.564  14.148  20.213  0.00  0.00    +0.000 OA
ATOM     29  H   UNL     1       0.885  15.010  19.852  0.00  0.00    +0.000 HD
ENDBRANCH  27  28
ENDBRANCH  20  27
ENDBRANCH   1  25
TORSDOF 4
ENDMDL
MODEL 7
REMARK VINA RESULT:      -8.0      2.178      8.958
REMARK  Name = 
REMARK  4 active torsions:
REMARK  status: ('A' for Active; 'I' for Inactive)
REMARK    1  A    between atoms: C_2  and  O_3
REMARK    2  A    between atoms: C_2  and  C_4
REMARK    3  A    between atoms: C_9  and  C_10
REMARK    4  A    between atoms: C_15  and  C_16
REMARK                            x       y       z     vdW  Elec       q    Type
REMARK                         _______ _______ _______ _____ _____    ______ ____
ROOT
ATOM      1  C   UNL     1       4.513   6.203  17.527  0.00  0.00    +0.000 C 
ATOM      2  O   UNL     1       4.498   7.427  17.433  0.00  0.00    +0.000 OA
ATOM      3  N   UNL     1       3.816   5.412  18.413  0.00  0.00    +0.000 N 
ATOM      4  C   UNL     1       2.904   5.960  19.282  0.00  0.00    +0.000 A 
ATOM      5  N   UNL     1       2.483   7.195  19.355  0.00  0.00    +0.000 NA
ATOM      6  C   UNL     1       1.592   7.333  20.403  0.00  0.00    +0.000 A 
ATOM      7  C   UNL     1       1.365   6.183  21.135  0.00  0.00    +0.000 A 
ATOM      8  S   UNL     1       2.256   4.883  20.437  0.00  0.00    +0.000 S 
ATOM      9  H   UNL     1       3.975   4.425  18.490  0.00  0.00    +0.000 HD
ENDROOT
BRANCH   6  10
ATOM     10  C   UNL     1       1.021   8.652  20.684  0.00  0.00    +0.000 A 
ATOM     11  C   UNL     1       0.669   8.934  22.011  0.00  0.00    +0.000 A 
ATOM     12  C   UNL     1       0.052  10.134  22.350  0.00  0.00    +0.000 A 
ATOM     13  C   UNL     1      -0.120  11.134  21.393  0.00  0.00    +0.000 A 
ATOM     14  C   UNL     1      -0.707  12.351  21.756  0.00  0.00    +0.000 A 
ATOM     15  C   UNL     1      -0.551  13.466  20.942  0.00  0.00    +0.000 A 
ATOM     16  C   UNL     1       0.050  13.329  19.694  0.00  0.00    +0.000 A 
ATOM     17  C   UNL     1       0.426  12.062  19.232  0.00  0.00    +0.000 A 
ATOM     18  C   UNL     1       0.377  10.942  20.086  0.00  0.00    +0.000 A 
ATOM     19  C   UNL     1       0.860   9.662  19.718  0.00  0.00    +0.000 A 
ENDBRANCH   6  10
BRANCH   1  25
ATOM     20  C   UNL     1       6.766   5.330  16.749  0.00  0.00    +0.000 A 
ATOM     21  C   UNL     1       7.521   4.722  15.720  0.00  0.00    +0.000 A 
ATOM     22  C   UNL     1       6.917   4.287  14.540  0.00  0.00    +0.000 A 
ATOM     23  C   UNL     1       5.551   4.442  14.361  0.00  0.00    +0.000 A 
ATOM     24  C   UNL     1       4.783   5.048  15.363  0.00  0.00    +0.000 A 
ATOM     25  C   UNL     1       5.380   5.490  16.564  0.00  0.00    +0.000 A 
BRANCH  20  27
ATOM     26  O   UNL     1       7.923   4.745  18.718  0.00  0.00    +0.000 OA
ATOM     27  C   UNL     1       7.546   5.647  17.980  0.00  0.00    +0.000 C 
BRANCH  27  28
ATOM     28  O   UNL     1       7.907   6.920  18.191  0.00  0.00    +0.000 OA
ATOM     29  H   UNL     1       7.846   7.540  17.424  0.00  0.00    +0.000 HD
ENDBRANCH  27  28
ENDBRANCH  20  27
ENDBRANCH   1  25
TORSDOF 4
ENDMDL
MODEL 8
REMARK VINA RESULT:      -8.0      2.656      8.917
REMARK  Name = 
REMARK  4 active torsions:
REMARK  status: ('A' for Active; 'I' for Inactive)
REMARK    1  A    between atoms: C_2  and  O_3
REMARK    2  A    between atoms: C_2  and  C_4
REMARK    3  A    between atoms: C_9  and  C_10
REMARK    4  A    between atoms: C_15  and  C_16
REMARK                            x       y       z     vdW  Elec       q    Type
REMARK                         _______ _______ _______ _____ _____    ______ ____
ROOT
ATOM      1  C   UNL     1       5.101   4.875  15.057  0.00  0.00    +0.000 C 
ATOM      2  O   UNL     1       4.812   6.064  14.964  0.00  0.00    +0.000 OA
ATOM      3  N   UNL     1       4.908   4.038  16.134  0.00  0.00    +0.000 N 
ATOM      4  C   UNL     1       4.244   4.472  17.256  0.00  0.00    +0.000 A 
ATOM      5  N   UNL     1       3.633   5.609  17.455  0.00  0.00    +0.000 NA
ATOM      6  C   UNL     1       3.129   5.659  18.742  0.00  0.00    +0.000 A 
ATOM      7  C   UNL     1       3.390   4.546  19.517  0.00  0.00    +0.000 A 
ATOM      8  S   UNL     1       4.242   3.384  18.571  0.00  0.00    +0.000 S 
ATOM      9  H   UNL     1       5.277   3.106  16.161  0.00  0.00    +0.000 HD
ENDROOT
BRANCH   6  10
ATOM     10  C   UNL     1       2.432   6.867  19.188  0.00  0.00    +0.000 A 
ATOM     11  C   UNL     1       1.972   6.897  20.511  0.00  0.00    +0.000 A 
ATOM     12  C   UNL     1       1.234   7.974  20.991  0.00  0.00    +0.000 A 
ATOM     13  C   UNL     1       1.040   9.106  20.199  0.00  0.00    +0.000 A 
ATOM     14  C   UNL     1       0.330  10.198  20.707  0.00  0.00    +0.000 A 
ATOM     15  C   UNL     1       0.443  11.443  20.099  0.00  0.00    +0.000 A 
ATOM     16  C   UNL     1       1.134  11.560  18.897  0.00  0.00    +0.000 A 
ATOM     17  C   UNL     1       1.645  10.420  18.265  0.00  0.00    +0.000 A 
ATOM     18  C   UNL     1       1.636   9.173  18.920  0.00  0.00    +0.000 A 
ATOM     19  C   UNL     1       2.249   8.010  18.389  0.00  0.00    +0.000 A 
ENDBRANCH   6  10
BRANCH   1  25
ATOM     20  C   UNL     1       6.991   4.645  13.378  0.00  0.00    +0.000 A 
ATOM     21  C   UNL     1       7.453   4.072  12.172  0.00  0.00    +0.000 A 
ATOM     22  C   UNL     1       6.681   3.147  11.466  0.00  0.00    +0.000 A 
ATOM     23  C   UNL     1       5.437   2.771  11.949  0.00  0.00    +0.000 A 
ATOM     24  C   UNL     1       4.954   3.330  13.139  0.00  0.00    +0.000 A 
ATOM     25  C   UNL     1       5.726   4.264  13.864  0.00  0.00    +0.000 A 
BRANCH  20  27
ATOM     26  O   UNL     1       8.906   6.020  13.418  0.00  0.00    +0.000 OA
ATOM     27  C   UNL     1       7.977   5.537  14.054  0.00  0.00    +0.000 C 
BRANCH  27  28
ATOM     28  O   UNL     1       7.753   5.874  15.331  0.00  0.00    +0.000 OA
ATOM     29  H   UNL     1       7.768   6.836  15.555  0.00  0.00    +0.000 HD
ENDBRANCH  27  28
ENDBRANCH  20  27
ENDBRANCH   1  25
TORSDOF 4
ENDMDL
MODEL 9
REMARK VINA RESULT:      -8.0      3.825      5.265
REMARK  Name = 
REMARK  4 active torsions:
REMARK  status: ('A' for Active; 'I' for Inactive)
REMARK    1  A    between atoms: C_2  and  O_3
REMARK    2  A    between atoms: C_2  and  C_4
REMARK    3  A    between atoms: C_9  and  C_10
REMARK    4  A    between atoms: C_15  and  C_16
REMARK                            x       y       z     vdW  Elec       q    Type
REMARK                         _______ _______ _______ _____ _____    ______ ____
ROOT
ATOM      1  C   UNL     1      -0.505  10.977  21.167  0.00  0.00    +0.000 C 
ATOM      2  O   UNL     1      -0.552   9.954  21.842  0.00  0.00    +0.000 OA
ATOM      3  N   UNL     1       0.217  11.201  20.015  0.00  0.00    +0.000 N 
ATOM      4  C   UNL     1       0.937  10.189  19.426  0.00  0.00    +0.000 A 
ATOM      5  N   UNL     1       0.984   8.924  19.749  0.00  0.00    +0.000 NA
ATOM      6  C   UNL     1       1.868   8.255  18.921  0.00  0.00    +0.000 A 
ATOM      7  C   UNL     1       2.505   9.045  17.984  0.00  0.00    +0.000 A 
ATOM      8  S   UNL     1       1.921  10.661  18.114  0.00  0.00    +0.000 S 
ATOM      9  H   UNL     1       0.282  12.106  19.590  0.00  0.00    +0.000 HD
ENDROOT
BRANCH   6  10
ATOM     10  C   UNL     1       2.097   6.824  19.133  0.00  0.00    +0.000 A 
ATOM     11  C   UNL     1       1.897   6.323  20.427  0.00  0.00    +0.000 A 
ATOM     12  C   UNL     1       2.166   4.992  20.731  0.00  0.00    +0.000 A 
ATOM     13  C   UNL     1       2.526   4.098  19.724  0.00  0.00    +0.000 A 
ATOM     14  C   UNL     1       2.757   2.754  20.036  0.00  0.00    +0.000 A 
ATOM     15  C   UNL     1       2.746   1.796  19.029  0.00  0.00    +0.000 A 
ATOM     16  C   UNL     1       2.668   2.197  17.699  0.00  0.00    +0.000 A 
ATOM     17  C   UNL     1       2.675   3.559  17.374  0.00  0.00    +0.000 A 
ATOM     18  C   UNL     1       2.573   4.538  18.383  0.00  0.00    +0.000 A 
ATOM     19  C   UNL     1       2.450   5.923  18.113  0.00  0.00    +0.000 A 
ENDBRANCH   6  10
BRANCH   1  25
ATOM     20  C   UNL     1      -2.262  12.778  20.826  0.00  0.00    +0.000 A 
ATOM     21  C   UNL     1      -2.927  13.910  21.347  0.00  0.00    +0.000 A 
ATOM     22  C   UNL     1      -2.676  14.366  22.642  0.00  0.00    +0.000 A 
ATOM     23  C   UNL     1      -1.763  13.702  23.446  0.00  0.00    +0.000 A 
ATOM     24  C   UNL     1      -1.085  12.581  22.950  0.00  0.00    +0.000 A 
ATOM     25  C   UNL     1      -1.332  12.108  21.643  0.00  0.00    +0.000 A 
BRANCH  20  27
ATOM     26  O   UNL     1      -3.854  11.943  19.301  0.00  0.00    +0.000 OA
ATOM     27  C   UNL     1      -2.717  12.367  19.466  0.00  0.00    +0.000 C 
BRANCH  27  28
ATOM     28  O   UNL     1      -1.890  12.576  18.433  0.00  0.00    +0.000 OA
ATOM     29  H   UNL     1      -1.891  11.903  17.709  0.00  0.00    +0.000 HD
ENDBRANCH  27  28
ENDBRANCH  20  27
ENDBRANCH   1  25
TORSDOF 4
ENDMDL
