MODEL 1
REMARK VINA RESULT:      -9.4      0.000      0.000
REMARK  Name = 
REMARK  1 active torsions:
REMARK  status: ('A' for Active; 'I' for Inactive)
REMARK    1  A    between atoms: C_2  and  C_3
REMARK                            x       y       z     vdW  Elec       q    Type
REMARK                         _______ _______ _______ _____ _____    ______ ____
ROOT
ATOM      1  C   UNL     1       2.387   7.928  18.857  0.00  0.00    +0.000 A 
ATOM      2  C   UNL     1       2.193   8.627  17.669  0.00  0.00    +0.000 A 
ATOM      3  C   UNL     1       1.249   9.619  17.678  0.00  0.00    +0.000 A 
ATOM      4  C   UNL     1       0.590   9.909  18.872  0.00  0.00    +0.000 A 
ATOM      5  C   UNL     1      -0.676  10.567  18.778  0.00  0.00    +0.000 A 
ATOM      6  O   UNL     1      -1.237  10.617  17.695  0.00  0.00    +0.000 OA
ATOM      7  N   UNL     1      -1.181  11.071  19.960  0.00  0.00    +0.000 N 
ATOM      8  C   UNL     1      -0.679  10.739  21.227  0.00  0.00    +0.000 A 
ATOM      9  N   UNL     1       0.307   9.871  21.307  0.00  0.00    +0.000 NA
ATOM     10  C   UNL     1       0.904   9.402  20.111  0.00  0.00    +0.000 A 
ATOM     11  C   UNL     1       1.780   8.341  20.084  0.00  0.00    +0.000 A 
ATOM     12  C   UNL     1      -1.201  11.323  22.731  0.00  0.00    +0.000 C 
ATOM     13  C   UNL     1      -2.226  12.451  23.391  0.00  0.00    +0.000 C 
ATOM     14  C   UNL     1      -3.329  13.484  22.777  0.00  0.00    +0.000 C 
ATOM     15  C   UNL     1      -3.611  13.530  21.264  0.00  0.00    +0.000 C 
ATOM     16  C   UNL     1      -2.691  12.480  20.876  0.00  0.00    +0.000 C 
ATOM     17  C   UNL     1      -2.306  11.933  19.605  0.00  0.00    +0.000 C 
ENDROOT
BRANCH   1  19
ATOM     18  O   UNL     1       3.995   6.524  17.938  0.00  0.00    +0.000 OA
ATOM     19  C   UNL     1       3.043   6.612  18.704  0.00  0.00    +0.000 C 
ATOM     20  N   UNL     1       2.443   5.577  19.352  0.00  0.00    +0.000 N 
ATOM     21  C   UNL     1       1.696   5.636  20.643  0.00  0.00    +0.000 C 
ATOM     22  C   UNL     1       0.845   4.388  20.540  0.00  0.00    +0.000 C 
ATOM     23  C   UNL     1       1.995   3.517  20.113  0.00  0.00    +0.000 A 
ATOM     24  C   UNL     1       2.588   2.509  20.839  0.00  0.00    +0.000 A 
ATOM     25  C   UNL     1       3.905   2.165  20.511  0.00  0.00    +0.000 A 
ATOM     26  C   UNL     1       4.549   2.703  19.381  0.00  0.00    +0.000 A 
ATOM     27  C   UNL     1       3.957   3.732  18.663  0.00  0.00    +0.000 A 
ATOM     28  C   UNL     1       2.782   4.220  19.193  0.00  0.00    +0.000 A 
ENDBRANCH   1  19
TORSDOF 1
ENDMDL
MODEL 2
REMARK VINA RESULT:      -9.1      2.041      8.870
REMARK  Name = 
REMARK  1 active torsions:
REMARK  status: ('A' for Active; 'I' for Inactive)
REMARK    1  A    between atoms: C_2  and  C_3
REMARK                            x       y       z     vdW  Elec       q    Type
REMARK                         _______ _______ _______ _____ _____    ______ ____
ROOT
ATOM      1  C   UNL     1       0.007  11.562  20.885  0.00  0.00    +0.000 A 
ATOM      2  C   UNL     1      -0.117  11.797  19.518  0.00  0.00    +0.000 A 
ATOM      3  C   UNL     1       0.374  10.837  18.675  0.00  0.00    +0.000 A 
ATOM      4  C   UNL     1       0.905   9.669  19.222  0.00  0.00    +0.000 A 
ATOM      5  C   UNL     1       1.818   8.924  18.413  0.00  0.00    +0.000 A 
ATOM      6  O   UNL     1       2.286   9.447  17.414  0.00  0.00    +0.000 OA
ATOM      7  N   UNL     1       2.125   7.656  18.866  0.00  0.00    +0.000 N 
ATOM      8  C   UNL     1       1.826   7.195  20.156  0.00  0.00    +0.000 A 
ATOM      9  N   UNL     1       1.250   8.021  21.004  0.00  0.00    +0.000 NA
ATOM     10  C   UNL     1       0.846   9.298  20.545  0.00  0.00    +0.000 A 
ATOM     11  C   UNL     1       0.444  10.301  21.397  0.00  0.00    +0.000 A 
ATOM     12  C   UNL     1       2.126   5.654  20.797  0.00  0.00    +0.000 C 
ATOM     13  C   UNL     1       2.658   4.149  20.342  0.00  0.00    +0.000 C 
ATOM     14  C   UNL     1       3.262   3.524  18.962  0.00  0.00    +0.000 C 
ATOM     15  C   UNL     1       3.462   4.409  17.717  0.00  0.00    +0.000 C 
ATOM     16  C   UNL     1       3.005   5.653  18.302  0.00  0.00    +0.000 C 
ATOM     17  C   UNL     1       2.823   6.976  17.776  0.00  0.00    +0.000 C 
ENDROOT
BRANCH   1  19
ATOM     18  O   UNL     1       0.861  13.527  21.785  0.00  0.00    +0.000 OA
ATOM     19  C   UNL     1      -0.098  12.767  21.735  0.00  0.00    +0.000 C 
ATOM     20  N   UNL     1      -1.228  12.859  22.487  0.00  0.00    +0.000 N 
ATOM     21  C   UNL     1      -2.588  12.355  22.133  0.00  0.00    +0.000 C 
ATOM     22  C   UNL     1      -3.219  12.244  23.504  0.00  0.00    +0.000 C 
ATOM     23  C   UNL     1      -2.764  13.612  23.935  0.00  0.00    +0.000 A 
ATOM     24  C   UNL     1      -3.551  14.719  24.156  0.00  0.00    +0.000 A 
ATOM     25  C   UNL     1      -2.942  15.976  24.059  0.00  0.00    +0.000 A 
ATOM     26  C   UNL     1      -1.549  16.111  23.907  0.00  0.00    +0.000 A 
ATOM     27  C   UNL     1      -0.760  14.996  23.665  0.00  0.00    +0.000 A 
ATOM     28  C   UNL     1      -1.449  13.813  23.499  0.00  0.00    +0.000 A 
ENDBRANCH   1  19
TORSDOF 1
ENDMDL
MODEL 3
REMARK VINA RESULT:      -9.1      1.853      8.642
REMARK  Name = 
REMARK  1 active torsions:
REMARK  status: ('A' for Active; 'I' for Inactive)
REMARK    1  A    between atoms: C_2  and  C_3
REMARK                            x       y       z     vdW  Elec       q    Type
REMARK                         _______ _______ _______ _____ _____    ______ ____
ROOT
ATOM      1  C   UNL     1       0.818  10.876  20.061  0.00  0.00    +0.000 A 
ATOM      2  C   UNL     1       0.932  10.926  18.674  0.00  0.00    +0.000 A 
ATOM      3  C   UNL     1       1.400   9.802  18.048  0.00  0.00    +0.000 A 
ATOM      4  C   UNL     1       1.673   8.669  18.815  0.00  0.00    +0.000 A 
ATOM      5  C   UNL     1       2.580   7.711  18.266  0.00  0.00    +0.000 A 
ATOM      6  O   UNL     1       3.259   8.024  17.301  0.00  0.00    +0.000 OA
ATOM      7  N   UNL     1       2.633   6.493  18.915  0.00  0.00    +0.000 N 
ATOM      8  C   UNL     1       2.085   6.262  20.185  0.00  0.00    +0.000 A 
ATOM      9  N   UNL     1       1.514   7.265  20.818  0.00  0.00    +0.000 NA
ATOM     10  C   UNL     1       1.367   8.502  20.145  0.00  0.00    +0.000 A 
ATOM     11  C   UNL     1       0.991   9.659  20.790  0.00  0.00    +0.000 A 
ATOM     12  C   UNL     1       2.065   4.805  21.051  0.00  0.00    +0.000 C 
ATOM     13  C   UNL     1       2.439   3.196  20.878  0.00  0.00    +0.000 C 
ATOM     14  C   UNL     1       3.145   2.311  19.704  0.00  0.00    +0.000 C 
ATOM     15  C   UNL     1       3.649   2.977  18.410  0.00  0.00    +0.000 C 
ATOM     16  C   UNL     1       3.292   4.338  18.755  0.00  0.00    +0.000 C 
ATOM     17  C   UNL     1       3.380   5.585  18.047  0.00  0.00    +0.000 C 
ENDROOT
BRANCH   1  19
ATOM     18  O   UNL     1       1.676  12.985  20.529  0.00  0.00    +0.000 OA
ATOM     19  C   UNL     1       0.761  12.195  20.728  0.00  0.00    +0.000 C 
ATOM     20  N   UNL     1      -0.262  12.365  21.608  0.00  0.00    +0.000 N 
ATOM     21  C   UNL     1      -1.627  11.766  21.527  0.00  0.00    +0.000 C 
ATOM     22  C   UNL     1      -2.064  11.850  22.973  0.00  0.00    +0.000 C 
ATOM     23  C   UNL     1      -1.631  13.283  23.127  0.00  0.00    +0.000 A 
ATOM     24  C   UNL     1      -2.441  14.383  23.288  0.00  0.00    +0.000 A 
ATOM     25  C   UNL     1      -1.920  15.630  22.919  0.00  0.00    +0.000 A 
ATOM     26  C   UNL     1      -0.569  15.786  22.556  0.00  0.00    +0.000 A 
ATOM     27  C   UNL     1       0.241  14.673  22.376  0.00  0.00    +0.000 A 
ATOM     28  C   UNL     1      -0.398  13.457  22.486  0.00  0.00    +0.000 A 
ENDBRANCH   1  19
TORSDOF 1
ENDMDL
MODEL 4
REMARK VINA RESULT:      -8.8      1.943      3.059
REMARK  Name = 
REMARK  1 active torsions:
REMARK  status: ('A' for Active; 'I' for Inactive)
REMARK    1  A    between atoms: C_2  and  C_3
REMARK                            x       y       z     vdW  Elec       q    Type
REMARK                         _______ _______ _______ _____ _____    ______ ____
ROOT
ATOM      1  C   UNL     1       1.804   8.236  19.007  0.00  0.00    +0.000 A 
ATOM      2  C   UNL     1       1.816   7.605  20.248  0.00  0.00    +0.000 A 
ATOM      3  C   UNL     1       1.095   8.193  21.252  0.00  0.00    +0.000 A 
ATOM      4  C   UNL     1       0.351   9.338  20.964  0.00  0.00    +0.000 A 
ATOM      5  C   UNL     1       0.013  10.191  22.060  0.00  0.00    +0.000 A 
ATOM      6  O   UNL     1       0.584  10.036  23.128  0.00  0.00    +0.000 OA
ATOM      7  N   UNL     1      -0.930  11.164  21.795  0.00  0.00    +0.000 N 
ATOM      8  C   UNL     1      -1.340  11.521  20.502  0.00  0.00    +0.000 A 
ATOM      9  N   UNL     1      -0.775  10.925  19.474  0.00  0.00    +0.000 NA
ATOM     10  C   UNL     1       0.131   9.864  19.713  0.00  0.00    +0.000 A 
ATOM     11  C   UNL     1       0.932   9.334  18.726  0.00  0.00    +0.000 A 
ATOM     12  C   UNL     1      -2.508  12.672  20.071  0.00  0.00    +0.000 C 
ATOM     13  C   UNL     1      -3.656  13.662  20.749  0.00  0.00    +0.000 C 
ATOM     14  C   UNL     1      -4.083  14.026  22.280  0.00  0.00    +0.000 C 
ATOM     15  C   UNL     1      -3.338  13.407  23.476  0.00  0.00    +0.000 C 
ATOM     16  C   UNL     1      -2.375  12.638  22.712  0.00  0.00    +0.000 C 
ATOM     17  C   UNL     1      -1.335  11.721  23.084  0.00  0.00    +0.000 C 
ENDROOT
BRANCH   1  19
ATOM     18  O   UNL     1       3.484   8.750  17.485  0.00  0.00    +0.000 OA
ATOM     19  C   UNL     1       2.916   7.861  18.107  0.00  0.00    +0.000 C 
ATOM     20  N   UNL     1       3.132   6.525  17.965  0.00  0.00    +0.000 N 
ATOM     21  C   UNL     1       2.917   5.465  18.993  0.00  0.00    +0.000 C 
ATOM     22  C   UNL     1       2.783   4.238  18.117  0.00  0.00    +0.000 C 
ATOM     23  C   UNL     1       3.997   4.571  17.292  0.00  0.00    +0.000 A 
ATOM     24  C   UNL     1       5.198   3.900  17.274  0.00  0.00    +0.000 A 
ATOM     25  C   UNL     1       6.330   4.611  16.855  0.00  0.00    +0.000 A 
ATOM     26  C   UNL     1       6.228   5.907  16.314  0.00  0.00    +0.000 A 
ATOM     27  C   UNL     1       5.020   6.588  16.351  0.00  0.00    +0.000 A 
ATOM     28  C   UNL     1       4.002   5.944  17.023  0.00  0.00    +0.000 A 
ENDBRANCH   1  19
TORSDOF 1
ENDMDL
MODEL 5
REMARK VINA RESULT:      -8.7      1.562      2.579
REMARK  Name = 
REMARK  1 active torsions:
REMARK  status: ('A' for Active; 'I' for Inactive)
REMARK    1  A    between atoms: C_2  and  C_3
REMARK                            x       y       z     vdW  Elec       q    Type
REMARK                         _______ _______ _______ _____ _____    ______ ____
ROOT
ATOM      1  C   UNL     1       2.214   7.804  18.913  0.00  0.00    +0.000 A 
ATOM      2  C   UNL     1       2.117   8.595  17.771  0.00  0.00    +0.000 A 
ATOM      3  C   UNL     1       1.267   9.667  17.827  0.00  0.00    +0.000 A 
ATOM      4  C   UNL     1       0.605   9.939  19.024  0.00  0.00    +0.000 A 
ATOM      5  C   UNL     1      -0.593  10.715  18.947  0.00  0.00    +0.000 A 
ATOM      6  O   UNL     1      -1.118  10.888  17.858  0.00  0.00    +0.000 OA
ATOM      7  N   UNL     1      -1.082  11.185  20.150  0.00  0.00    +0.000 N 
ATOM      8  C   UNL     1      -0.647  10.726  21.402  0.00  0.00    +0.000 A 
ATOM      9  N   UNL     1       0.254   9.767  21.444  0.00  0.00    +0.000 NA
ATOM     10  C   UNL     1       0.837   9.325  20.232  0.00  0.00    +0.000 A 
ATOM     11  C   UNL     1       1.614   8.191  20.152  0.00  0.00    +0.000 A 
ATOM     12  C   UNL     1      -1.155  11.257  22.930  0.00  0.00    +0.000 C 
ATOM     13  C   UNL     1      -2.091  12.428  23.643  0.00  0.00    +0.000 C 
ATOM     14  C   UNL     1      -3.078  13.597  23.078  0.00  0.00    +0.000 C 
ATOM     15  C   UNL     1      -3.314  13.767  21.565  0.00  0.00    +0.000 C 
ATOM     16  C   UNL     1      -2.483  12.664  21.126  0.00  0.00    +0.000 C 
ATOM     17  C   UNL     1      -2.115  12.169  19.830  0.00  0.00    +0.000 C 
ENDROOT
BRANCH   1  19
ATOM     18  O   UNL     1       2.138   5.494  19.150  0.00  0.00    +0.000 OA
ATOM     19  C   UNL     1       2.752   6.446  18.685  0.00  0.00    +0.000 C 
ATOM     20  N   UNL     1       3.964   6.390  18.069  0.00  0.00    +0.000 N 
ATOM     21  C   UNL     1       4.498   7.337  17.046  0.00  0.00    +0.000 C 
ATOM     22  C   UNL     1       5.985   7.095  17.179  0.00  0.00    +0.000 C 
ATOM     23  C   UNL     1       5.847   5.596  17.149  0.00  0.00    +0.000 A 
ATOM     24  C   UNL     1       6.254   4.745  16.148  0.00  0.00    +0.000 A 
ATOM     25  C   UNL     1       5.617   3.500  16.060  0.00  0.00    +0.000 A 
ATOM     26  C   UNL     1       4.716   3.060  17.048  0.00  0.00    +0.000 A 
ATOM     27  C   UNL     1       4.294   3.928  18.045  0.00  0.00    +0.000 A 
ATOM     28  C   UNL     1       4.742   5.226  17.925  0.00  0.00    +0.000 A 
ENDBRANCH   1  19
TORSDOF 1
ENDMDL
MODEL 6
REMARK VINA RESULT:      -8.7      2.187      9.222
REMARK  Name = 
REMARK  1 active torsions:
REMARK  status: ('A' for Active; 'I' for Inactive)
REMARK    1  A    between atoms: C_2  and  C_3
REMARK                            x       y       z     vdW  Elec       q    Type
REMARK                         _______ _______ _______ _____ _____    ______ ____
ROOT
ATOM      1  C   UNL     1      -1.021  11.793  21.689  0.00  0.00    +0.000 A 
ATOM      2  C   UNL     1      -1.059  12.264  20.379  0.00  0.00    +0.000 A 
ATOM      3  C   UNL     1      -0.393  11.531  19.435  0.00  0.00    +0.000 A 
ATOM      4  C   UNL     1       0.224  10.340  19.819  0.00  0.00    +0.000 A 
ATOM      5  C   UNL     1       1.280   9.852  18.989  0.00  0.00    +0.000 A 
ATOM      6  O   UNL     1       1.764  10.595  18.150  0.00  0.00    +0.000 OA
ATOM      7  N   UNL     1       1.694   8.559  19.241  0.00  0.00    +0.000 N 
ATOM      8  C   UNL     1       1.346   7.839  20.393  0.00  0.00    +0.000 A 
ATOM      9  N   UNL     1       0.611   8.432  21.310  0.00  0.00    +0.000 NA
ATOM     10  C   UNL     1       0.100   9.725  21.044  0.00  0.00    +0.000 A 
ATOM     11  C   UNL     1      -0.484  10.508  22.014  0.00  0.00    +0.000 A 
ATOM     12  C   UNL     1       1.769   6.244  20.781  0.00  0.00    +0.000 C 
ATOM     13  C   UNL     1       2.508   4.909  20.125  0.00  0.00    +0.000 C 
ATOM     14  C   UNL     1       3.291   4.615  18.725  0.00  0.00    +0.000 C 
ATOM     15  C   UNL     1       3.488   5.730  17.682  0.00  0.00    +0.000 C 
ATOM     16  C   UNL     1       2.843   6.793  18.427  0.00  0.00    +0.000 C 
ATOM     17  C   UNL     1       2.553   8.166  18.126  0.00  0.00    +0.000 C 
ENDROOT
BRANCH   1  19
ATOM     18  O   UNL     1      -0.411  13.262  23.383  0.00  0.00    +0.000 OA
ATOM     19  C   UNL     1      -1.335  12.803  22.723  0.00  0.00    +0.000 C 
ATOM     20  N   UNL     1      -2.658  13.044  22.926  0.00  0.00    +0.000 N 
ATOM     21  C   UNL     1      -3.749  12.988  21.909  0.00  0.00    +0.000 C 
ATOM     22  C   UNL     1      -4.959  12.792  22.797  0.00  0.00    +0.000 C 
ATOM     23  C   UNL     1      -4.564  13.888  23.749  0.00  0.00    +0.000 A 
ATOM     24  C   UNL     1      -5.190  15.100  23.926  0.00  0.00    +0.000 A 
ATOM     25  C   UNL     1      -4.429  16.151  24.456  0.00  0.00    +0.000 A 
ATOM     26  C   UNL     1      -3.125  15.943  24.945  0.00  0.00    +0.000 A 
ATOM     27  C   UNL     1      -2.489  14.725  24.747  0.00  0.00    +0.000 A 
ATOM     28  C   UNL     1      -3.185  13.816  23.979  0.00  0.00    +0.000 A 
ENDBRANCH   1  19
TORSDOF 1
ENDMDL
MODEL 7
REMARK VINA RESULT:      -8.7      1.738      8.956
REMARK  Name = 
REMARK  1 active torsions:
REMARK  status: ('A' for Active; 'I' for Inactive)
REMARK    1  A    between atoms: C_2  and  C_3
REMARK                            x       y       z     vdW  Elec       q    Type
REMARK                         _______ _______ _______ _____ _____    ______ ____
ROOT
ATOM      1  C   UNL     1       0.122   9.949  19.966  0.00  0.00    +0.000 A 
ATOM      2  C   UNL     1       0.286   9.307  21.190  0.00  0.00    +0.000 A 
ATOM      3  C   UNL     1       1.133   8.232  21.220  0.00  0.00    +0.000 A 
ATOM      4  C   UNL     1       1.821   7.885  20.057  0.00  0.00    +0.000 A 
ATOM      5  C   UNL     1       2.300   6.542  19.956  0.00  0.00    +0.000 A 
ATOM      6  O   UNL     1       1.883   5.704  20.741  0.00  0.00    +0.000 OA
ATOM      7  N   UNL     1       3.189   6.296  18.929  0.00  0.00    +0.000 N 
ATOM      8  C   UNL     1       3.414   7.181  17.865  0.00  0.00    +0.000 A 
ATOM      9  N   UNL     1       2.718   8.297  17.813  0.00  0.00    +0.000 NA
ATOM     10  C   UNL     1       1.863   8.618  18.895  0.00  0.00    +0.000 A 
ATOM     11  C   UNL     1       0.939   9.637  18.834  0.00  0.00    +0.000 A 
ATOM     12  C   UNL     1       4.502   6.993  16.578  0.00  0.00    +0.000 C 
ATOM     13  C   UNL     1       5.724   5.996  16.057  0.00  0.00    +0.000 C 
ATOM     14  C   UNL     1       6.355   4.592  16.595  0.00  0.00    +0.000 C 
ATOM     15  C   UNL     1       5.785   3.900  17.848  0.00  0.00    +0.000 C 
ATOM     16  C   UNL     1       4.734   4.858  18.123  0.00  0.00    +0.000 C 
ATOM     17  C   UNL     1       3.762   4.975  19.174  0.00  0.00    +0.000 C 
ENDROOT
BRANCH   1  19
ATOM     18  O   UNL     1      -1.712  10.764  18.795  0.00  0.00    +0.000 OA
ATOM     19  C   UNL     1      -1.099  10.775  19.855  0.00  0.00    +0.000 C 
ATOM     20  N   UNL     1      -1.368  11.574  20.923  0.00  0.00    +0.000 N 
ATOM     21  C   UNL     1      -1.061  11.292  22.357  0.00  0.00    +0.000 C 
ATOM     22  C   UNL     1      -1.067  12.692  22.932  0.00  0.00    +0.000 C 
ATOM     23  C   UNL     1      -2.361  13.070  22.263  0.00  0.00    +0.000 A 
ATOM     24  C   UNL     1      -3.574  13.299  22.871  0.00  0.00    +0.000 A 
ATOM     25  C   UNL     1      -4.727  13.145  22.092  0.00  0.00    +0.000 A 
ATOM     26  C   UNL     1      -4.655  12.929  20.703  0.00  0.00    +0.000 A 
ATOM     27  C   UNL     1      -3.433  12.679  20.096  0.00  0.00    +0.000 A 
ATOM     28  C   UNL     1      -2.360  12.571  20.955  0.00  0.00    +0.000 A 
ENDBRANCH   1  19
TORSDOF 1
ENDMDL
MODEL 8
REMARK VINA RESULT:      -8.7      1.313      2.005
REMARK  Name = 
REMARK  1 active torsions:
REMARK  status: ('A' for Active; 'I' for Inactive)
REMARK    1  A    between atoms: C_2  and  C_3
REMARK                            x       y       z     vdW  Elec       q    Type
REMARK                         _______ _______ _______ _____ _____    ______ ____
ROOT
ATOM      1  C   UNL     1       1.842   7.558  20.116  0.00  0.00    +0.000 A 
ATOM      2  C   UNL     1       2.030   8.164  18.876  0.00  0.00    +0.000 A 
ATOM      3  C   UNL     1       1.369   9.342  18.653  0.00  0.00    +0.000 A 
ATOM      4  C   UNL     1       0.608   9.892  19.684  0.00  0.00    +0.000 A 
ATOM      5  C   UNL     1      -0.423  10.811  19.318  0.00  0.00    +0.000 A 
ATOM      6  O   UNL     1      -0.763  10.883  18.147  0.00  0.00    +0.000 OA
ATOM      7  N   UNL     1      -0.983  11.531  20.355  0.00  0.00    +0.000 N 
ATOM      8  C   UNL     1      -0.800  11.218  21.709  0.00  0.00    +0.000 A 
ATOM      9  N   UNL     1      -0.084  10.159  22.021  0.00  0.00    +0.000 NA
ATOM     10  C   UNL     1       0.574   9.451  20.986  0.00  0.00    +0.000 A 
ATOM     11  C   UNL     1       1.156   8.218  21.182  0.00  0.00    +0.000 A 
ATOM     12  C   UNL     1      -1.411  12.052  23.053  0.00  0.00    +0.000 C 
ATOM     13  C   UNL     1      -2.225  13.444  23.447  0.00  0.00    +0.000 C 
ATOM     14  C   UNL     1      -2.922  14.638  22.581  0.00  0.00    +0.000 C 
ATOM     15  C   UNL     1      -2.923  14.599  21.042  0.00  0.00    +0.000 C 
ATOM     16  C   UNL     1      -2.236  13.333  20.891  0.00  0.00    +0.000 C 
ATOM     17  C   UNL     1      -1.787  12.590  19.748  0.00  0.00    +0.000 C 
ENDROOT
BRANCH   1  19
ATOM     18  O   UNL     1       1.737   5.452  21.092  0.00  0.00    +0.000 OA
ATOM     19  C   UNL     1       2.173   6.118  20.161  0.00  0.00    +0.000 C 
ATOM     20  N   UNL     1       3.044   5.685  19.209  0.00  0.00    +0.000 N 
ATOM     21  C   UNL     1       3.188   6.206  17.818  0.00  0.00    +0.000 C 
ATOM     22  C   UNL     1       4.594   5.756  17.487  0.00  0.00    +0.000 C 
ATOM     23  C   UNL     1       4.373   4.355  17.990  0.00  0.00    +0.000 A 
ATOM     24  C   UNL     1       4.309   3.203  17.239  0.00  0.00    +0.000 A 
ATOM     25  C   UNL     1       3.622   2.112  17.786  0.00  0.00    +0.000 A 
ATOM     26  C   UNL     1       3.154   2.125  19.114  0.00  0.00    +0.000 A 
ATOM     27  C   UNL     1       3.202   3.293  19.861  0.00  0.00    +0.000 A 
ATOM     28  C   UNL     1       3.639   4.410  19.181  0.00  0.00    +0.000 A 
ENDBRANCH   1  19
TORSDOF 1
ENDMDL
MODEL 9
REMARK VINA RESULT:      -8.6      1.139      1.299
REMARK  Name = 
REMARK  1 active torsions:
REMARK  status: ('A' for Active; 'I' for Inactive)
REMARK    1  A    between atoms: C_2  and  C_3
REMARK                            x       y       z     vdW  Elec       q    Type
REMARK                         _______ _______ _______ _____ _____    ______ ____
ROOT
ATOM      1  C   UNL     1       2.816   7.470  19.138  0.00  0.00    +0.000 A 
ATOM      2  C   UNL     1       2.705   8.085  17.894  0.00  0.00    +0.000 A 
ATOM      3  C   UNL     1       1.757   9.064  17.766  0.00  0.00    +0.000 A 
ATOM      4  C   UNL     1       1.010   9.428  18.887  0.00  0.00    +0.000 A 
ATOM      5  C   UNL     1      -0.249  10.064  18.657  0.00  0.00    +0.000 A 
ATOM      6  O   UNL     1      -0.731  10.033  17.535  0.00  0.00    +0.000 OA
ATOM      7  N   UNL     1      -0.842  10.641  19.762  0.00  0.00    +0.000 N 
ATOM      8  C   UNL     1      -0.431  10.401  21.082  0.00  0.00    +0.000 A 
ATOM      9  N   UNL     1       0.552   9.552  21.292  0.00  0.00    +0.000 NA
ATOM     10  C   UNL     1       1.237   9.010  20.178  0.00  0.00    +0.000 A 
ATOM     11  C   UNL     1       2.119   7.959  20.287  0.00  0.00    +0.000 A 
ATOM     12  C   UNL     1      -1.065  11.081  22.500  0.00  0.00    +0.000 C 
ATOM     13  C   UNL     1      -2.142  12.239  23.006  0.00  0.00    +0.000 C 
ATOM     14  C   UNL     1      -3.204  13.215  22.245  0.00  0.00    +0.000 C 
ATOM     15  C   UNL     1      -3.376  13.155  20.716  0.00  0.00    +0.000 C 
ATOM     16  C   UNL     1      -2.424  12.091  20.467  0.00  0.00    +0.000 C 
ATOM     17  C   UNL     1      -1.944  11.464  19.269  0.00  0.00    +0.000 C 
ENDROOT
BRANCH   1  19
ATOM     18  O   UNL     1       4.639   6.087  19.543  0.00  0.00    +0.000 OA
ATOM     19  C   UNL     1       3.490   6.155  19.123  0.00  0.00    +0.000 C 
ATOM     20  N   UNL     1       2.799   5.147  18.526  0.00  0.00    +0.000 N 
ATOM     21  C   UNL     1       1.317   4.970  18.490  0.00  0.00    +0.000 C 
ATOM     22  C   UNL     1       1.165   4.070  17.283  0.00  0.00    +0.000 C 
ATOM     23  C   UNL     1       2.253   3.128  17.721  0.00  0.00    +0.000 A 
ATOM     24  C   UNL     1       2.104   1.828  18.148  0.00  0.00    +0.000 A 
ATOM     25  C   UNL     1       3.112   1.295  18.962  0.00  0.00    +0.000 A 
ATOM     26  C   UNL     1       4.311   1.992  19.204  0.00  0.00    +0.000 A 
ATOM     27  C   UNL     1       4.450   3.309  18.789  0.00  0.00    +0.000 A 
ATOM     28  C   UNL     1       3.322   3.873  18.232  0.00  0.00    +0.000 A 
ENDBRANCH   1  19
TORSDOF 1
ENDMDL
