MODEL 1
REMARK VINA RESULT:      -9.6      0.000      0.000
REMARK  Name = 
REMARK  5 active torsions:
REMARK  status: ('A' for Active; 'I' for Inactive)
REMARK    1  A    between atoms: C_1  and  N_2
REMARK    2  A    between atoms: C_9  and  C_10
REMARK    3  A    between atoms: C_12  and  C_13
REMARK    4  A    between atoms: C_13  and  C_14
REMARK    5  A    between atoms: N_16  and  C_17
REMARK                            x       y       z     vdW  Elec       q    Type
REMARK                         _______ _______ _______ _____ _____    ______ ____
ROOT
ATOM      1  C   UNL     1       8.137   8.742  17.990  0.00  0.00    +0.000 A 
ATOM      2  N   UNL     1       8.361   7.622  18.643  0.00  0.00    +0.000 NA
ATOM      3  C   UNL     1       7.590   6.721  17.956  0.00  0.00    +0.000 A 
ATOM      4  N   UNL     1       6.881   7.243  16.947  0.00  0.00    +0.000 NA
ATOM      5  O   UNL     1       7.245   8.597  16.966  0.00  0.00    +0.000 OA
ENDROOT
BRANCH   1  14
ATOM      6  C   UNL     1       9.630  15.132  18.180  0.00  0.00    +0.000 C 
ATOM      7  N   UNL     1      10.325  13.967  18.710  0.00  0.00    +0.000 N 
ATOM      8  C   UNL     1      11.560  14.156  19.328  0.00  0.00    +0.000 C 
ATOM      9  O   UNL     1      12.087  15.258  19.472  0.00  0.00    +0.000 OA
ATOM     10  C   UNL     1      12.309  12.902  19.719  0.00  0.00    +0.000 C 
ATOM     11  C   UNL     1      11.367  11.860  20.285  0.00  0.00    +0.000 C 
ATOM     12  C   UNL     1      10.268  11.596  19.296  0.00  0.00    +0.000 A 
ATOM     13  C   UNL     1       9.728  10.303  19.154  0.00  0.00    +0.000 A 
ATOM     14  C   UNL     1       8.679  10.069  18.258  0.00  0.00    +0.000 A 
ATOM     15  C   UNL     1       8.149  11.159  17.559  0.00  0.00    +0.000 A 
ATOM     16  C   UNL     1       8.658  12.444  17.715  0.00  0.00    +0.000 A 
ATOM     17  C   UNL     1       9.741  12.674  18.566  0.00  0.00    +0.000 A 
ENDBRANCH   1  14
BRANCH   3  18
ATOM     18  C   UNL     1       7.588   5.291  18.317  0.00  0.00    +0.000 C 
BRANCH  18  19
ATOM     19  C   UNL     1       6.208   4.752  18.623  0.00  0.00    +0.000 C 
ATOM     20  O   UNL     1       5.886   4.526  19.790  0.00  0.00    +0.000 OA
ATOM     21  N   UNL     1       5.360   4.602  17.531  0.00  0.00    +0.000 N 
ATOM     22  H   UNL     1       5.802   4.472  16.625  0.00  0.00    +0.000 HD
BRANCH  21  23
ATOM     23  C   UNL     1       4.050   4.102  17.674  0.00  0.00    +0.000 A 
ATOM     24  C   UNL     1       2.947   4.956  17.776  0.00  0.00    +0.000 A 
ATOM     25  C   UNL     1       1.673   4.437  18.004  0.00  0.00    +0.000 A 
ATOM     26  C   UNL     1       1.501   3.062  18.151  0.00  0.00    +0.000 A 
ATOM     27  C   UNL     1       2.592   2.205  18.017  0.00  0.00    +0.000 A 
ATOM     28  C   UNL     1       3.862   2.721  17.743  0.00  0.00    +0.000 A 
ENDBRANCH  21  23
ENDBRANCH  18  19
ENDBRANCH   3  18
TORSDOF 4
ENDMDL
MODEL 2
REMARK VINA RESULT:      -9.4      1.232      1.574
REMARK  Name = 
REMARK  5 active torsions:
REMARK  status: ('A' for Active; 'I' for Inactive)
REMARK    1  A    between atoms: C_1  and  N_2
REMARK    2  A    between atoms: C_9  and  C_10
REMARK    3  A    between atoms: C_12  and  C_13
REMARK    4  A    between atoms: C_13  and  C_14
REMARK    5  A    between atoms: N_16  and  C_17
REMARK                            x       y       z     vdW  Elec       q    Type
REMARK                         _______ _______ _______ _____ _____    ______ ____
ROOT
ATOM      1  C   UNL     1       8.109   8.674  18.052  0.00  0.00    +0.000 A 
ATOM      2  N   UNL     1       7.247   8.291  17.134  0.00  0.00    +0.000 NA
ATOM      3  C   UNL     1       7.110   6.954  17.398  0.00  0.00    +0.000 A 
ATOM      4  N   UNL     1       7.871   6.498  18.401  0.00  0.00    +0.000 NA
ATOM      5  O   UNL     1       8.543   7.647  18.841  0.00  0.00    +0.000 OA
ENDROOT
BRANCH   1  14
ATOM      6  C   UNL     1       9.627  15.061  18.045  0.00  0.00    +0.000 C 
ATOM      7  N   UNL     1      10.328  13.907  18.592  0.00  0.00    +0.000 N 
ATOM      8  C   UNL     1      11.575  14.108  19.181  0.00  0.00    +0.000 C 
ATOM      9  O   UNL     1      12.109  15.211  19.286  0.00  0.00    +0.000 OA
ATOM     10  C   UNL     1      12.328  12.862  19.591  0.00  0.00    +0.000 C 
ATOM     11  C   UNL     1      11.393  11.839  20.202  0.00  0.00    +0.000 C 
ATOM     12  C   UNL     1      10.274  11.553  19.241  0.00  0.00    +0.000 A 
ATOM     13  C   UNL     1       9.727  10.259  19.144  0.00  0.00    +0.000 A 
ATOM     14  C   UNL     1       8.660  10.005  18.275  0.00  0.00    +0.000 A 
ATOM     15  C   UNL     1       8.121  11.079  17.557  0.00  0.00    +0.000 A 
ATOM     16  C   UNL     1       8.637  12.365  17.669  0.00  0.00    +0.000 A 
ATOM     17  C   UNL     1       9.737  12.614  18.494  0.00  0.00    +0.000 A 
ENDBRANCH   1  14
BRANCH   3  18
ATOM     18  C   UNL     1       6.166   6.120  16.630  0.00  0.00    +0.000 C 
BRANCH  18  19
ATOM     19  C   UNL     1       5.251   5.290  17.503  0.00  0.00    +0.000 C 
ATOM     20  O   UNL     1       5.672   4.252  18.015  0.00  0.00    +0.000 OA
ATOM     21  N   UNL     1       3.979   5.811  17.715  0.00  0.00    +0.000 N 
ATOM     22  H   UNL     1       3.620   6.441  17.003  0.00  0.00    +0.000 HD
BRANCH  21  23
ATOM     23  C   UNL     1       3.024   5.135  18.501  0.00  0.00    +0.000 A 
ATOM     24  C   UNL     1       2.172   4.172  17.951  0.00  0.00    +0.000 A 
ATOM     25  C   UNL     1       1.178   3.582  18.733  0.00  0.00    +0.000 A 
ATOM     26  C   UNL     1       1.021   3.969  20.063  0.00  0.00    +0.000 A 
ATOM     27  C   UNL     1       1.890   4.905  20.623  0.00  0.00    +0.000 A 
ATOM     28  C   UNL     1       2.914   5.463  19.853  0.00  0.00    +0.000 A 
ENDBRANCH  21  23
ENDBRANCH  18  19
ENDBRANCH   3  18
TORSDOF 4
ENDMDL
MODEL 3
REMARK VINA RESULT:      -9.2      7.094     10.421
REMARK  Name = 
REMARK  5 active torsions:
REMARK  status: ('A' for Active; 'I' for Inactive)
REMARK    1  A    between atoms: C_1  and  N_2
REMARK    2  A    between atoms: C_9  and  C_10
REMARK    3  A    between atoms: C_12  and  C_13
REMARK    4  A    between atoms: C_13  and  C_14
REMARK    5  A    between atoms: N_16  and  C_17
REMARK                            x       y       z     vdW  Elec       q    Type
REMARK                         _______ _______ _______ _____ _____    ______ ____
ROOT
ATOM      1  C   UNL     1       1.414   8.567  20.618  0.00  0.00    +0.000 A 
ATOM      2  N   UNL     1       0.952   9.591  19.932  0.00  0.00    +0.000 NA
ATOM      3  C   UNL     1       0.610  10.477  20.919  0.00  0.00    +0.000 A 
ATOM      4  N   UNL     1       0.804  10.031  22.167  0.00  0.00    +0.000 NA
ATOM      5  O   UNL     1       1.343   8.752  21.969  0.00  0.00    +0.000 OA
ENDROOT
BRANCH   1  14
ATOM      6  C   UNL     1       4.098   3.651  17.194  0.00  0.00    +0.000 C 
ATOM      7  N   UNL     1       3.234   3.646  18.366  0.00  0.00    +0.000 N 
ATOM      8  C   UNL     1       2.813   2.417  18.873  0.00  0.00    +0.000 C 
ATOM      9  O   UNL     1       3.149   1.333  18.398  0.00  0.00    +0.000 OA
ATOM     10  C   UNL     1       1.796   2.471  19.991  0.00  0.00    +0.000 C 
ATOM     11  C   UNL     1       2.116   3.586  20.965  0.00  0.00    +0.000 C 
ATOM     12  C   UNL     1       2.224   4.883  20.215  0.00  0.00    +0.000 A 
ATOM     13  C   UNL     1       1.790   6.088  20.802  0.00  0.00    +0.000 A 
ATOM     14  C   UNL     1       1.927   7.299  20.114  0.00  0.00    +0.000 A 
ATOM     15  C   UNL     1       2.556   7.284  18.863  0.00  0.00    +0.000 A 
ATOM     16  C   UNL     1       3.013   6.102  18.290  0.00  0.00    +0.000 A 
ATOM     17  C   UNL     1       2.830   4.883  18.947  0.00  0.00    +0.000 A 
ENDBRANCH   1  14
BRANCH   3  18
ATOM     18  C   UNL     1       0.095  11.820  20.590  0.00  0.00    +0.000 C 
BRANCH  18  19
ATOM     19  C   UNL     1      -0.706  11.856  19.307  0.00  0.00    +0.000 C 
ATOM     20  O   UNL     1      -0.536  12.777  18.507  0.00  0.00    +0.000 OA
ATOM     21  N   UNL     1      -1.562  10.780  19.097  0.00  0.00    +0.000 N 
ATOM     22  H   UNL     1      -1.889  10.289  19.924  0.00  0.00    +0.000 HD
BRANCH  21  23
ATOM     23  C   UNL     1      -2.373  10.693  17.947  0.00  0.00    +0.000 A 
ATOM     24  C   UNL     1      -2.007   9.905  16.851  0.00  0.00    +0.000 A 
ATOM     25  C   UNL     1      -2.785   9.906  15.692  0.00  0.00    +0.000 A 
ATOM     26  C   UNL     1      -3.919  10.711  15.619  0.00  0.00    +0.000 A 
ATOM     27  C   UNL     1      -4.305  11.473  16.721  0.00  0.00    +0.000 A 
ATOM     28  C   UNL     1      -3.552  11.438  17.899  0.00  0.00    +0.000 A 
ENDBRANCH  21  23
ENDBRANCH  18  19
ENDBRANCH   3  18
TORSDOF 4
ENDMDL
MODEL 4
REMARK VINA RESULT:      -9.1      1.360      1.581
REMARK  Name = 
REMARK  5 active torsions:
REMARK  status: ('A' for Active; 'I' for Inactive)
REMARK    1  A    between atoms: C_1  and  N_2
REMARK    2  A    between atoms: C_9  and  C_10
REMARK    3  A    between atoms: C_12  and  C_13
REMARK    4  A    between atoms: C_13  and  C_14
REMARK    5  A    between atoms: N_16  and  C_17
REMARK                            x       y       z     vdW  Elec       q    Type
REMARK                         _______ _______ _______ _____ _____    ______ ____
ROOT
ATOM      1  C   UNL     1       8.026   8.359  17.964  0.00  0.00    +0.000 A 
ATOM      2  N   UNL     1       7.302   7.940  16.948  0.00  0.00    +0.000 NA
ATOM      3  C   UNL     1       7.176   6.601  17.208  0.00  0.00    +0.000 A 
ATOM      4  N   UNL     1       7.818   6.178  18.305  0.00  0.00    +0.000 NA
ATOM      5  O   UNL     1       8.389   7.353  18.814  0.00  0.00    +0.000 OA
ENDROOT
BRANCH   1  14
ATOM      6  C   UNL     1       9.274  14.802  18.118  0.00  0.00    +0.000 C 
ATOM      7  N   UNL     1       9.971  13.673  18.721  0.00  0.00    +0.000 N 
ATOM      8  C   UNL     1      11.152  13.920  19.419  0.00  0.00    +0.000 C 
ATOM      9  O   UNL     1      11.628  15.043  19.575  0.00  0.00    +0.000 OA
ATOM     10  C   UNL     1      11.915  12.702  19.889  0.00  0.00    +0.000 C 
ATOM     11  C   UNL     1      10.974  11.638  20.411  0.00  0.00    +0.000 C 
ATOM     12  C   UNL     1       9.957  11.314  19.353  0.00  0.00    +0.000 A 
ATOM     13  C   UNL     1       9.475   9.999  19.203  0.00  0.00    +0.000 A 
ATOM     14  C   UNL     1       8.500   9.709  18.241  0.00  0.00    +0.000 A 
ATOM     15  C   UNL     1       7.982  10.766  17.482  0.00  0.00    +0.000 A 
ATOM     16  C   UNL     1       8.433  12.071  17.645  0.00  0.00    +0.000 A 
ATOM     17  C   UNL     1       9.444  12.357  18.565  0.00  0.00    +0.000 A 
ENDBRANCH   1  14
BRANCH   3  18
ATOM     18  C   UNL     1       6.366   5.730  16.335  0.00  0.00    +0.000 C 
BRANCH  18  19
ATOM     19  C   UNL     1       5.261   5.005  17.070  0.00  0.00    +0.000 C 
ATOM     20  O   UNL     1       5.202   3.776  17.026  0.00  0.00    +0.000 OA
ATOM     21  N   UNL     1       4.400   5.807  17.812  0.00  0.00    +0.000 N 
ATOM     22  H   UNL     1       4.307   6.774  17.514  0.00  0.00    +0.000 HD
BRANCH  21  23
ATOM     23  C   UNL     1       3.321   5.262  18.539  0.00  0.00    +0.000 A 
ATOM     24  C   UNL     1       3.260   5.348  19.933  0.00  0.00    +0.000 A 
ATOM     25  C   UNL     1       2.226   4.724  20.632  0.00  0.00    +0.000 A 
ATOM     26  C   UNL     1       1.262   3.995  19.939  0.00  0.00    +0.000 A 
ATOM     27  C   UNL     1       1.302   3.934  18.547  0.00  0.00    +0.000 A 
ATOM     28  C   UNL     1       2.312   4.597  17.842  0.00  0.00    +0.000 A 
ENDBRANCH  21  23
ENDBRANCH  18  19
ENDBRANCH   3  18
TORSDOF 4
ENDMDL
MODEL 5
REMARK VINA RESULT:      -9.1      0.938      1.474
REMARK  Name = 
REMARK  5 active torsions:
REMARK  status: ('A' for Active; 'I' for Inactive)
REMARK    1  A    between atoms: C_1  and  N_2
REMARK    2  A    between atoms: C_9  and  C_10
REMARK    3  A    between atoms: C_12  and  C_13
REMARK    4  A    between atoms: C_13  and  C_14
REMARK    5  A    between atoms: N_16  and  C_17
REMARK                            x       y       z     vdW  Elec       q    Type
REMARK                         _______ _______ _______ _____ _____    ______ ____
ROOT
ATOM      1  C   UNL     1       8.427   8.850  18.281  0.00  0.00    +0.000 A 
ATOM      2  N   UNL     1       8.569   7.679  18.865  0.00  0.00    +0.000 NA
ATOM      3  C   UNL     1       7.773   6.869  18.098  0.00  0.00    +0.000 A 
ATOM      4  N   UNL     1       7.126   7.494  17.106  0.00  0.00    +0.000 NA
ATOM      5  O   UNL     1       7.562   8.821  17.225  0.00  0.00    +0.000 OA
ENDROOT
BRANCH   1  14
ATOM      6  C   UNL     1      10.568  14.297  21.256  0.00  0.00    +0.000 C 
ATOM      7  N   UNL     1      10.485  13.941  19.846  0.00  0.00    +0.000 N 
ATOM      8  C   UNL     1      10.852  14.896  18.899  0.00  0.00    +0.000 C 
ATOM      9  O   UNL     1      11.265  16.018  19.188  0.00  0.00    +0.000 OA
ATOM     10  C   UNL     1      10.600  14.533  17.453  0.00  0.00    +0.000 C 
ATOM     11  C   UNL     1      10.943  13.081  17.189  0.00  0.00    +0.000 C 
ATOM     12  C   UNL     1      10.182  12.211  18.148  0.00  0.00    +0.000 A 
ATOM     13  C   UNL     1       9.706  10.948  17.745  0.00  0.00    +0.000 A 
ATOM     14  C   UNL     1       9.031  10.124  18.653  0.00  0.00    +0.000 A 
ATOM     15  C   UNL     1       8.897  10.564  19.975  0.00  0.00    +0.000 A 
ATOM     16  C   UNL     1       9.390  11.797  20.388  0.00  0.00    +0.000 A 
ATOM     17  C   UNL     1      10.017  12.647  19.473  0.00  0.00    +0.000 A 
ENDBRANCH   1  14
BRANCH   3  18
ATOM     18  C   UNL     1       7.681   5.421  18.363  0.00  0.00    +0.000 C 
BRANCH  18  19
ATOM     19  C   UNL     1       6.269   4.949  18.630  0.00  0.00    +0.000 C 
ATOM     20  O   UNL     1       5.896   4.763  19.789  0.00  0.00    +0.000 OA
ATOM     21  N   UNL     1       5.455   4.810  17.510  0.00  0.00    +0.000 N 
ATOM     22  H   UNL     1       5.923   4.640  16.625  0.00  0.00    +0.000 HD
BRANCH  21  23
ATOM     23  C   UNL     1       4.120   4.369  17.616  0.00  0.00    +0.000 A 
ATOM     24  C   UNL     1       3.063   5.269  17.782  0.00  0.00    +0.000 A 
ATOM     25  C   UNL     1       1.763   4.801  17.971  0.00  0.00    +0.000 A 
ATOM     26  C   UNL     1       1.519   3.430  18.015  0.00  0.00    +0.000 A 
ATOM     27  C   UNL     1       2.565   2.530  17.817  0.00  0.00    +0.000 A 
ATOM     28  C   UNL     1       3.861   2.998  17.582  0.00  0.00    +0.000 A 
ENDBRANCH  21  23
ENDBRANCH  18  19
ENDBRANCH   3  18
TORSDOF 4
ENDMDL
MODEL 6
REMARK VINA RESULT:      -9.1      1.036      1.205
REMARK  Name = 
REMARK  5 active torsions:
REMARK  status: ('A' for Active; 'I' for Inactive)
REMARK    1  A    between atoms: C_1  and  N_2
REMARK    2  A    between atoms: C_9  and  C_10
REMARK    3  A    between atoms: C_12  and  C_13
REMARK    4  A    between atoms: C_13  and  C_14
REMARK    5  A    between atoms: N_16  and  C_17
REMARK                            x       y       z     vdW  Elec       q    Type
REMARK                         _______ _______ _______ _____ _____    ______ ____
ROOT
ATOM      1  C   UNL     1       8.155   8.360  18.010  0.00  0.00    +0.000 A 
ATOM      2  N   UNL     1       7.955   7.382  18.867  0.00  0.00    +0.000 NA
ATOM      3  C   UNL     1       7.549   6.356  18.055  0.00  0.00    +0.000 A 
ATOM      4  N   UNL     1       7.454   6.671  16.757  0.00  0.00    +0.000 NA
ATOM      5  O   UNL     1       7.859   8.012  16.722  0.00  0.00    +0.000 OA
ENDROOT
BRANCH   1  14
ATOM      6  C   UNL     1       9.212  14.837  18.152  0.00  0.00    +0.000 C 
ATOM      7  N   UNL     1       9.953  13.730  18.740  0.00  0.00    +0.000 N 
ATOM      8  C   UNL     1      11.138  14.011  19.419  0.00  0.00    +0.000 C 
ATOM      9  O   UNL     1      11.583  15.148  19.568  0.00  0.00    +0.000 OA
ATOM     10  C   UNL     1      11.945  12.816  19.874  0.00  0.00    +0.000 C 
ATOM     11  C   UNL     1      11.045  11.723  20.410  0.00  0.00    +0.000 C 
ATOM     12  C   UNL     1      10.020  11.370  19.370  0.00  0.00    +0.000 A 
ATOM     13  C   UNL     1       9.575  10.042  19.226  0.00  0.00    +0.000 A 
ATOM     14  C   UNL     1       8.593   9.724  18.280  0.00  0.00    +0.000 A 
ATOM     15  C   UNL     1       8.031  10.765  17.532  0.00  0.00    +0.000 A 
ATOM     16  C   UNL     1       8.445  12.083  17.689  0.00  0.00    +0.000 A 
ATOM     17  C   UNL     1       9.463  12.399  18.592  0.00  0.00    +0.000 A 
ENDBRANCH   1  14
BRANCH   3  18
ATOM     18  C   UNL     1       7.270   5.015  18.605  0.00  0.00    +0.000 C 
BRANCH  18  19
ATOM     19  C   UNL     1       5.794   4.732  18.774  0.00  0.00    +0.000 C 
ATOM     20  O   UNL     1       4.989   5.663  18.764  0.00  0.00    +0.000 OA
ATOM     21  N   UNL     1       5.443   3.389  18.874  0.00  0.00    +0.000 N 
ATOM     22  H   UNL     1       6.157   2.756  19.219  0.00  0.00    +0.000 HD
BRANCH  21  23
ATOM     23  C   UNL     1       4.103   2.986  19.043  0.00  0.00    +0.000 A 
ATOM     24  C   UNL     1       3.281   2.698  17.949  0.00  0.00    +0.000 A 
ATOM     25  C   UNL     1       1.935   2.386  18.142  0.00  0.00    +0.000 A 
ATOM     26  C   UNL     1       1.402   2.380  19.429  0.00  0.00    +0.000 A 
ATOM     27  C   UNL     1       2.226   2.635  20.525  0.00  0.00    +0.000 A 
ATOM     28  C   UNL     1       3.585   2.903  20.336  0.00  0.00    +0.000 A 
ENDBRANCH  21  23
ENDBRANCH  18  19
ENDBRANCH   3  18
TORSDOF 4
ENDMDL
MODEL 7
REMARK VINA RESULT:      -8.9      1.021      1.366
REMARK  Name = 
REMARK  5 active torsions:
REMARK  status: ('A' for Active; 'I' for Inactive)
REMARK    1  A    between atoms: C_1  and  N_2
REMARK    2  A    between atoms: C_9  and  C_10
REMARK    3  A    between atoms: C_12  and  C_13
REMARK    4  A    between atoms: C_13  and  C_14
REMARK    5  A    between atoms: N_16  and  C_17
REMARK                            x       y       z     vdW  Elec       q    Type
REMARK                         _______ _______ _______ _____ _____    ______ ____
ROOT
ATOM      1  C   UNL     1       8.015   8.816  17.862  0.00  0.00    +0.000 A 
ATOM      2  N   UNL     1       8.253   7.659  18.442  0.00  0.00    +0.000 NA
ATOM      3  C   UNL     1       7.421   6.811  17.761  0.00  0.00    +0.000 A 
ATOM      4  N   UNL     1       6.662   7.398  16.826  0.00  0.00    +0.000 NA
ATOM      5  O   UNL     1       7.057   8.741  16.891  0.00  0.00    +0.000 OA
ENDROOT
BRANCH   1  14
ATOM      6  C   UNL     1       9.723  15.145  18.212  0.00  0.00    +0.000 C 
ATOM      7  N   UNL     1      10.381  13.943  18.707  0.00  0.00    +0.000 N 
ATOM      8  C   UNL     1      11.625  14.074  19.323  0.00  0.00    +0.000 C 
ATOM      9  O   UNL     1      12.190  15.154  19.493  0.00  0.00    +0.000 OA
ATOM     10  C   UNL     1      12.333  12.786  19.677  0.00  0.00    +0.000 C 
ATOM     11  C   UNL     1      11.359  11.762  20.221  0.00  0.00    +0.000 C 
ATOM     12  C   UNL     1      10.247  11.561  19.231  0.00  0.00    +0.000 A 
ATOM     13  C   UNL     1       9.663  10.291  19.059  0.00  0.00    +0.000 A 
ATOM     14  C   UNL     1       8.602  10.116  18.163  0.00  0.00    +0.000 A 
ATOM     15  C   UNL     1       8.106  11.242  17.495  0.00  0.00    +0.000 A 
ATOM     16  C   UNL     1       8.659  12.504  17.682  0.00  0.00    +0.000 A 
ATOM     17  C   UNL     1       9.753  12.675  18.533  0.00  0.00    +0.000 A 
ENDBRANCH   1  14
BRANCH   3  18
ATOM     18  C   UNL     1       7.408   5.364  18.049  0.00  0.00    +0.000 C 
BRANCH  18  19
ATOM     19  C   UNL     1       6.295   4.948  18.985  0.00  0.00    +0.000 C 
ATOM     20  O   UNL     1       6.531   4.797  20.184  0.00  0.00    +0.000 OA
ATOM     21  N   UNL     1       5.036   4.819  18.408  0.00  0.00    +0.000 N 
ATOM     22  H   UNL     1       5.008   4.617  17.413  0.00  0.00    +0.000 HD
BRANCH  21  23
ATOM     23  C   UNL     1       3.912   4.430  19.165  0.00  0.00    +0.000 A 
ATOM     24  C   UNL     1       3.526   3.089  19.266  0.00  0.00    +0.000 A 
ATOM     25  C   UNL     1       2.360   2.742  19.949  0.00  0.00    +0.000 A 
ATOM     26  C   UNL     1       1.567   3.736  20.517  0.00  0.00    +0.000 A 
ATOM     27  C   UNL     1       1.965   5.070  20.447  0.00  0.00    +0.000 A 
ATOM     28  C   UNL     1       3.157   5.415  19.802  0.00  0.00    +0.000 A 
ENDBRANCH  21  23
ENDBRANCH  18  19
ENDBRANCH   3  18
TORSDOF 4
ENDMDL
MODEL 8
REMARK VINA RESULT:      -8.8      0.699      1.815
REMARK  Name = 
REMARK  5 active torsions:
REMARK  status: ('A' for Active; 'I' for Inactive)
REMARK    1  A    between atoms: C_1  and  N_2
REMARK    2  A    between atoms: C_9  and  C_10
REMARK    3  A    between atoms: C_12  and  C_13
REMARK    4  A    between atoms: C_13  and  C_14
REMARK    5  A    between atoms: N_16  and  C_17
REMARK                            x       y       z     vdW  Elec       q    Type
REMARK                         _______ _______ _______ _____ _____    ______ ____
ROOT
ATOM      1  C   UNL     1       8.132   8.798  17.997  0.00  0.00    +0.000 A 
ATOM      2  N   UNL     1       8.357   7.676  18.647  0.00  0.00    +0.000 NA
ATOM      3  C   UNL     1       7.588   6.776  17.957  0.00  0.00    +0.000 A 
ATOM      4  N   UNL     1       6.880   7.299  16.947  0.00  0.00    +0.000 NA
ATOM      5  O   UNL     1       7.242   8.654  16.971  0.00  0.00    +0.000 OA
ENDROOT
BRANCH   1  14
ATOM      6  C   UNL     1      11.444  14.051  20.127  0.00  0.00    +0.000 C 
ATOM      7  N   UNL     1      10.187  13.937  19.399  0.00  0.00    +0.000 N 
ATOM      8  C   UNL     1       9.475  15.102  19.120  0.00  0.00    +0.000 C 
ATOM      9  O   UNL     1       9.860  16.227  19.436  0.00  0.00    +0.000 OA
ATOM     10  C   UNL     1       8.107  14.917  18.503  0.00  0.00    +0.000 C 
ATOM     11  C   UNL     1       8.123  13.812  17.467  0.00  0.00    +0.000 C 
ATOM     12  C   UNL     1       8.654  12.554  18.093  0.00  0.00    +0.000 A 
ATOM     13  C   UNL     1       8.148  11.296  17.712  0.00  0.00    +0.000 A 
ATOM     14  C   UNL     1       8.671  10.124  18.270  0.00  0.00    +0.000 A 
ATOM     15  C   UNL     1       9.743  10.237  19.164  0.00  0.00    +0.000 A 
ATOM     16  C   UNL     1      10.267  11.474  19.523  0.00  0.00    +0.000 A 
ATOM     17  C   UNL     1       9.713  12.649  19.012  0.00  0.00    +0.000 A 
ENDBRANCH   1  14
BRANCH   3  18
ATOM     18  C   UNL     1       7.587   5.344  18.314  0.00  0.00    +0.000 C 
BRANCH  18  19
ATOM     19  C   UNL     1       6.208   4.804  18.620  0.00  0.00    +0.000 C 
ATOM     20  O   UNL     1       5.879   4.598  19.788  0.00  0.00    +0.000 OA
ATOM     21  N   UNL     1       5.369   4.629  17.524  0.00  0.00    +0.000 N 
ATOM     22  H   UNL     1       5.818   4.485  16.625  0.00  0.00    +0.000 HD
BRANCH  21  23
ATOM     23  C   UNL     1       4.060   4.124  17.667  0.00  0.00    +0.000 A 
ATOM     24  C   UNL     1       2.965   4.974  17.850  0.00  0.00    +0.000 A 
ATOM     25  C   UNL     1       1.694   4.444  18.076  0.00  0.00    +0.000 A 
ATOM     26  C   UNL     1       1.519   3.063  18.139  0.00  0.00    +0.000 A 
ATOM     27  C   UNL     1       2.603   2.213  17.924  0.00  0.00    +0.000 A 
ATOM     28  C   UNL     1       3.869   2.742  17.653  0.00  0.00    +0.000 A 
ENDBRANCH  21  23
ENDBRANCH  18  19
ENDBRANCH   3  18
TORSDOF 4
ENDMDL
MODEL 9
REMARK VINA RESULT:      -8.8      1.431      2.353
REMARK  Name = 
REMARK  5 active torsions:
REMARK  status: ('A' for Active; 'I' for Inactive)
REMARK    1  A    between atoms: C_1  and  N_2
REMARK    2  A    between atoms: C_9  and  C_10
REMARK    3  A    between atoms: C_12  and  C_13
REMARK    4  A    between atoms: C_13  and  C_14
REMARK    5  A    between atoms: N_16  and  C_17
REMARK                            x       y       z     vdW  Elec       q    Type
REMARK                         _______ _______ _______ _____ _____    ______ ____
ROOT
ATOM      1  C   UNL     1       7.972   8.379  18.024  0.00  0.00    +0.000 A 
ATOM      2  N   UNL     1       7.091   8.000  17.122  0.00  0.00    +0.000 NA
ATOM      3  C   UNL     1       6.987   6.655  17.358  0.00  0.00    +0.000 A 
ATOM      4  N   UNL     1       7.786   6.191  18.328  0.00  0.00    +0.000 NA
ATOM      5  O   UNL     1       8.448   7.343  18.776  0.00  0.00    +0.000 OA
ENDROOT
BRANCH   1  14
ATOM      6  C   UNL     1      11.143  13.727  20.129  0.00  0.00    +0.000 C 
ATOM      7  N   UNL     1       9.965  13.579  19.285  0.00  0.00    +0.000 N 
ATOM      8  C   UNL     1       9.306  14.730  18.858  0.00  0.00    +0.000 C 
ATOM      9  O   UNL     1       9.677  15.870  19.136  0.00  0.00    +0.000 OA
ATOM     10  C   UNL     1       8.005  14.518  18.117  0.00  0.00    +0.000 C 
ATOM     11  C   UNL     1       8.107  13.346  17.164  0.00  0.00    +0.000 C 
ATOM     12  C   UNL     1       8.549  12.127  17.923  0.00  0.00    +0.000 A 
ATOM     13  C   UNL     1       8.061  10.852  17.577  0.00  0.00    +0.000 A 
ATOM     14  C   UNL     1       8.504   9.715  18.262  0.00  0.00    +0.000 A 
ATOM     15  C   UNL     1       9.481   9.876  19.252  0.00  0.00    +0.000 A 
ATOM     16  C   UNL     1       9.988  11.129  19.580  0.00  0.00    +0.000 A 
ATOM     17  C   UNL     1       9.510  12.273  18.937  0.00  0.00    +0.000 A 
ENDBRANCH   1  14
BRANCH   3  18
ATOM     18  C   UNL     1       6.037   5.821  16.598  0.00  0.00    +0.000 C 
BRANCH  18  19
ATOM     19  C   UNL     1       5.057   5.075  17.477  0.00  0.00    +0.000 C 
ATOM     20  O   UNL     1       5.406   4.033  18.032  0.00  0.00    +0.000 OA
ATOM     21  N   UNL     1       3.813   5.676  17.642  0.00  0.00    +0.000 N 
ATOM     22  H   UNL     1       3.507   6.301  16.902  0.00  0.00    +0.000 HD
BRANCH  21  23
ATOM     23  C   UNL     1       2.804   5.084  18.428  0.00  0.00    +0.000 A 
ATOM     24  C   UNL     1       2.603   5.454  19.761  0.00  0.00    +0.000 A 
ATOM     25  C   UNL     1       1.655   4.791  20.541  0.00  0.00    +0.000 A 
ATOM     26  C   UNL     1       0.920   3.741  19.995  0.00  0.00    +0.000 A 
ATOM     27  C   UNL     1       1.094   3.391  18.656  0.00  0.00    +0.000 A 
ATOM     28  C   UNL     1       2.011   4.085  17.861  0.00  0.00    +0.000 A 
ENDBRANCH  21  23
ENDBRANCH  18  19
ENDBRANCH   3  18
TORSDOF 4
ENDMDL
