MODEL 1
REMARK VINA RESULT:      -8.9      0.000      0.000
REMARK  Name = 
REMARK  2 active torsions:
REMARK  status: ('A' for Active; 'I' for Inactive)
REMARK    1  A    between atoms: C_2  and  C_3
REMARK    2  A    between atoms: C_7  and  N_8
REMARK                            x       y       z     vdW  Elec       q    Type
REMARK                         _______ _______ _______ _____ _____    ______ ____
ROOT
ATOM      1  O   UNL     1       3.426   8.309  16.868  0.00  0.00    +0.000 OA
ATOM      2  C   UNL     1       2.998   7.404  17.597  0.00  0.00    +0.000 C 
ATOM      3  N   UNL     1       3.542   6.171  17.539  0.00  0.00    +0.000 N 
ATOM      4  C   UNL     1       4.902   6.352  17.570  0.00  0.00    +0.000 C 
ATOM      5  C   UNL     1       5.766   5.367  16.847  0.00  0.00    +0.000 C 
ATOM      6  C   UNL     1       7.051   6.217  16.803  0.00  0.00    +0.000 C 
ATOM      7  C   UNL     1       7.541   6.629  18.199  0.00  0.00    +0.000 C 
ATOM      8  C   UNL     1       6.973   5.792  19.375  0.00  0.00    +0.000 C 
ATOM      9  C   UNL     1       6.324   4.368  19.079  0.00  0.00    +0.000 C 
ATOM     10  N   UNL     1       5.659   4.134  17.703  0.00  0.00    +0.000 N 
ATOM     11  C   UNL     1       4.158   3.843  17.832  0.00  0.00    +0.000 A 
ATOM     12  C   UNL     1       3.591   2.570  17.673  0.00  0.00    +0.000 A 
ATOM     13  C   UNL     1       2.189   2.382  17.851  0.00  0.00    +0.000 A 
ATOM     14  C   UNL     1       1.325   3.452  18.277  0.00  0.00    +0.000 A 
ATOM     15  C   UNL     1       1.830   4.685  18.314  0.00  0.00    +0.000 A 
ATOM     16  C   UNL     1       3.177   4.896  17.977  0.00  0.00    +0.000 A 
ENDROOT
BRANCH   2  17
ATOM     17  C   UNL     1       2.144   7.801  18.691  0.00  0.00    +0.000 A 
ATOM     18  C   UNL     1       2.208   7.388  20.018  0.00  0.00    +0.000 A 
ATOM     19  C   UNL     1       1.498   8.108  20.987  0.00  0.00    +0.000 A 
ATOM     20  C   UNL     1       0.842   9.285  20.604  0.00  0.00    +0.000 A 
ATOM     21  C   UNL     1       0.864   9.705  19.273  0.00  0.00    +0.000 A 
ATOM     22  C   UNL     1       1.442   8.928  18.303  0.00  0.00    +0.000 A 
BRANCH  21  23
ATOM     23  N   UNL     1       0.462  10.989  18.876  0.00  0.00    +0.000 N 
ATOM     24  C   UNL     1       1.130  12.180  19.030  0.00  0.00    +0.000 A 
ATOM     25  N   UNL     1       0.333  13.157  18.679  0.00  0.00    +0.000 NA
ATOM     26  N   UNL     1      -0.837  12.556  18.292  0.00  0.00    +0.000 NA
ATOM     27  N   UNL     1      -0.759  11.239  18.393  0.00  0.00    +0.000 NA
ENDBRANCH  21  23
ENDBRANCH   2  17
TORSDOF 2
ENDMDL
MODEL 2
REMARK VINA RESULT:      -8.1      3.335      7.329
REMARK  Name = 
REMARK  2 active torsions:
REMARK  status: ('A' for Active; 'I' for Inactive)
REMARK    1  A    between atoms: C_2  and  C_3
REMARK    2  A    between atoms: C_7  and  N_8
REMARK                            x       y       z     vdW  Elec       q    Type
REMARK                         _______ _______ _______ _____ _____    ______ ____
ROOT
ATOM      1  O   UNL     1       3.219   3.155  16.617  0.00  0.00    +0.000 OA
ATOM      2  C   UNL     1       3.575   4.231  17.115  0.00  0.00    +0.000 C 
ATOM      3  N   UNL     1       2.773   4.872  17.991  0.00  0.00    +0.000 N 
ATOM      4  C   UNL     1       2.353   3.924  18.889  0.00  0.00    +0.000 C 
ATOM      5  C   UNL     1       0.998   4.081  19.505  0.00  0.00    +0.000 C 
ATOM      6  C   UNL     1       0.843   2.637  20.023  0.00  0.00    +0.000 C 
ATOM      7  C   UNL     1       1.966   2.225  20.986  0.00  0.00    +0.000 C 
ATOM      8  C   UNL     1       2.768   3.396  21.610  0.00  0.00    +0.000 C 
ATOM      9  C   UNL     1       2.149   4.864  21.593  0.00  0.00    +0.000 C 
ATOM     10  N   UNL     1       1.189   5.243  20.442  0.00  0.00    +0.000 N 
ATOM     11  C   UNL     1       1.745   6.386  19.582  0.00  0.00    +0.000 A 
ATOM     12  C   UNL     1       1.272   7.706  19.634  0.00  0.00    +0.000 A 
ATOM     13  C   UNL     1       1.875   8.716  18.829  0.00  0.00    +0.000 A 
ATOM     14  C   UNL     1       3.026   8.449  18.007  0.00  0.00    +0.000 A 
ATOM     15  C   UNL     1       3.405   7.179  17.858  0.00  0.00    +0.000 A 
ATOM     16  C   UNL     1       2.706   6.161  18.525  0.00  0.00    +0.000 A 
ENDROOT
BRANCH   2  17
ATOM     17  C   UNL     1       4.966   4.587  16.966  0.00  0.00    +0.000 A 
ATOM     18  C   UNL     1       5.983   4.470  17.908  0.00  0.00    +0.000 A 
ATOM     19  C   UNL     1       7.314   4.577  17.486  0.00  0.00    +0.000 A 
ATOM     20  C   UNL     1       7.578   4.682  16.115  0.00  0.00    +0.000 A 
ATOM     21  C   UNL     1       6.529   4.722  15.194  0.00  0.00    +0.000 A 
ATOM     22  C   UNL     1       5.226   4.756  15.619  0.00  0.00    +0.000 A 
BRANCH  21  23
ATOM     23  N   UNL     1       6.725   4.560  13.814  0.00  0.00    +0.000 N 
ATOM     24  C   UNL     1       6.209   3.593  12.985  0.00  0.00    +0.000 A 
ATOM     25  N   UNL     1       6.775   3.703  11.810  0.00  0.00    +0.000 NA
ATOM     26  N   UNL     1       7.640   4.762  11.915  0.00  0.00    +0.000 NA
ATOM     27  N   UNL     1       7.601   5.297  13.125  0.00  0.00    +0.000 NA
ENDBRANCH  21  23
ENDBRANCH   2  17
TORSDOF 2
ENDMDL
MODEL 3
REMARK VINA RESULT:      -7.9      2.016      3.966
REMARK  Name = 
REMARK  2 active torsions:
REMARK  status: ('A' for Active; 'I' for Inactive)
REMARK    1  A    between atoms: C_2  and  C_3
REMARK    2  A    between atoms: C_7  and  N_8
REMARK                            x       y       z     vdW  Elec       q    Type
REMARK                         _______ _______ _______ _____ _____    ______ ____
ROOT
ATOM      1  O   UNL     1       2.073   6.695  21.219  0.00  0.00    +0.000 OA
ATOM      2  C   UNL     1       2.510   6.863  20.073  0.00  0.00    +0.000 C 
ATOM      3  N   UNL     1       3.201   5.880  19.459  0.00  0.00    +0.000 N 
ATOM      4  C   UNL     1       2.476   4.730  19.645  0.00  0.00    +0.000 C 
ATOM      5  C   UNL     1       3.217   3.433  19.741  0.00  0.00    +0.000 C 
ATOM      6  C   UNL     1       2.082   2.597  20.365  0.00  0.00    +0.000 C 
ATOM      7  C   UNL     1       0.814   2.574  19.499  0.00  0.00    +0.000 C 
ATOM      8  C   UNL     1       1.016   2.978  18.016  0.00  0.00    +0.000 C 
ATOM      9  C   UNL     1       2.481   2.953  17.391  0.00  0.00    +0.000 C 
ATOM     10  N   UNL     1       3.684   3.208  18.329  0.00  0.00    +0.000 N 
ATOM     11  C   UNL     1       4.460   4.473  17.937  0.00  0.00    +0.000 A 
ATOM     12  C   UNL     1       5.706   4.458  17.294  0.00  0.00    +0.000 A 
ATOM     13  C   UNL     1       6.339   5.683  16.929  0.00  0.00    +0.000 A 
ATOM     14  C   UNL     1       5.700   6.958  17.124  0.00  0.00    +0.000 A 
ATOM     15  C   UNL     1       4.575   6.990  17.840  0.00  0.00    +0.000 A 
ATOM     16  C   UNL     1       4.036   5.795  18.343  0.00  0.00    +0.000 A 
ENDROOT
BRANCH   2  17
ATOM     17  C   UNL     1       1.986   7.990  19.339  0.00  0.00    +0.000 A 
ATOM     18  C   UNL     1       1.649   8.050  17.990  0.00  0.00    +0.000 A 
ATOM     19  C   UNL     1       0.878   9.124  17.531  0.00  0.00    +0.000 A 
ATOM     20  C   UNL     1       0.375  10.039  18.465  0.00  0.00    +0.000 A 
ATOM     21  C   UNL     1       0.676   9.901  19.821  0.00  0.00    +0.000 A 
ATOM     22  C   UNL     1       1.543   8.931  20.251  0.00  0.00    +0.000 A 
BRANCH  21  23
ATOM     23  N   UNL     1       0.000  10.613  20.824  0.00  0.00    +0.000 N 
ATOM     24  C   UNL     1      -0.989  11.557  20.683  0.00  0.00    +0.000 A 
ATOM     25  N   UNL     1      -1.223  12.096  21.853  0.00  0.00    +0.000 NA
ATOM     26  N   UNL     1      -0.376  11.464  22.726  0.00  0.00    +0.000 NA
ATOM     27  N   UNL     1       0.358  10.551  22.110  0.00  0.00    +0.000 NA
ENDBRANCH  21  23
ENDBRANCH   2  17
TORSDOF 2
ENDMDL
MODEL 4
REMARK VINA RESULT:      -7.7      2.622      7.729
REMARK  Name = 
REMARK  2 active torsions:
REMARK  status: ('A' for Active; 'I' for Inactive)
REMARK    1  A    between atoms: C_2  and  C_3
REMARK    2  A    between atoms: C_7  and  N_8
REMARK                            x       y       z     vdW  Elec       q    Type
REMARK                         _______ _______ _______ _____ _____    ______ ____
ROOT
ATOM      1  O   UNL     1       1.418   9.170  21.338  0.00  0.00    +0.000 OA
ATOM      2  C   UNL     1       1.075   9.253  20.151  0.00  0.00    +0.000 C 
ATOM      3  N   UNL     1       0.367  10.319  19.722  0.00  0.00    +0.000 N 
ATOM      4  C   UNL     1       1.000  11.426  20.227  0.00  0.00    +0.000 C 
ATOM      5  C   UNL     1       0.172  12.629  20.555  0.00  0.00    +0.000 C 
ATOM      6  C   UNL     1       1.204  13.348  21.446  0.00  0.00    +0.000 C 
ATOM      7  C   UNL     1       2.526  13.632  20.718  0.00  0.00    +0.000 C 
ATOM      8  C   UNL     1       2.456  13.576  19.170  0.00  0.00    +0.000 C 
ATOM      9  C   UNL     1       1.040  13.678  18.447  0.00  0.00    +0.000 C 
ATOM     10  N   UNL     1      -0.207  13.156  19.197  0.00  0.00    +0.000 N 
ATOM     11  C   UNL     1      -0.870  11.982  18.464  0.00  0.00    +0.000 A 
ATOM     12  C   UNL     1      -2.066  12.088  17.739  0.00  0.00    +0.000 A 
ATOM     13  C   UNL     1      -2.591  10.954  17.052  0.00  0.00    +0.000 A 
ATOM     14  C   UNL     1      -1.886   9.700  17.003  0.00  0.00    +0.000 A 
ATOM     15  C   UNL     1      -0.815   9.554  17.784  0.00  0.00    +0.000 A 
ATOM     16  C   UNL     1      -0.391  10.623  18.590  0.00  0.00    +0.000 A 
ENDROOT
BRANCH   2  17
ATOM     17  C   UNL     1       1.721   8.354  19.225  0.00  0.00    +0.000 A 
ATOM     18  C   UNL     1       2.543   8.679  18.151  0.00  0.00    +0.000 A 
ATOM     19  C   UNL     1       3.316   7.672  17.560  0.00  0.00    +0.000 A 
ATOM     20  C   UNL     1       3.322   6.399  18.144  0.00  0.00    +0.000 A 
ATOM     21  C   UNL     1       2.538   6.133  19.268  0.00  0.00    +0.000 A 
ATOM     22  C   UNL     1       1.678   7.079  19.760  0.00  0.00    +0.000 A 
BRANCH  21  23
ATOM     23  N   UNL     1       2.697   4.978  20.047  0.00  0.00    +0.000 N 
ATOM     24  C   UNL     1       3.398   3.834  19.747  0.00  0.00    +0.000 A 
ATOM     25  N   UNL     1       3.149   2.936  20.667  0.00  0.00    +0.000 NA
ATOM     26  N   UNL     1       2.295   3.542  21.552  0.00  0.00    +0.000 NA
ATOM     27  N   UNL     1       2.030   4.788  21.190  0.00  0.00    +0.000 NA
ENDBRANCH  21  23
ENDBRANCH   2  17
TORSDOF 2
ENDMDL
MODEL 5
REMARK VINA RESULT:      -7.6      5.979      8.778
REMARK  Name = 
REMARK  2 active torsions:
REMARK  status: ('A' for Active; 'I' for Inactive)
REMARK    1  A    between atoms: C_2  and  C_3
REMARK    2  A    between atoms: C_7  and  N_8
REMARK                            x       y       z     vdW  Elec       q    Type
REMARK                         _______ _______ _______ _____ _____    ______ ____
ROOT
ATOM      1  O   UNL     1      -0.502  13.645  18.839  0.00  0.00    +0.000 OA
ATOM      2  C   UNL     1      -0.805  12.497  19.192  0.00  0.00    +0.000 C 
ATOM      3  N   UNL     1      -0.793  12.164  20.499  0.00  0.00    +0.000 N 
ATOM      4  C   UNL     1      -1.454  13.171  21.156  0.00  0.00    +0.000 C 
ATOM      5  C   UNL     1      -1.039  13.497  22.557  0.00  0.00    +0.000 C 
ATOM      6  C   UNL     1      -1.711  14.881  22.650  0.00  0.00    +0.000 C 
ATOM      7  C   UNL     1      -3.226  14.826  22.404  0.00  0.00    +0.000 C 
ATOM      8  C   UNL     1      -3.871  13.424  22.553  0.00  0.00    +0.000 C 
ATOM      9  C   UNL     1      -3.089  12.282  23.341  0.00  0.00    +0.000 C 
ATOM     10  N   UNL     1      -1.543  12.316  23.340  0.00  0.00    +0.000 N 
ATOM     11  C   UNL     1      -0.942  11.077  22.662  0.00  0.00    +0.000 A 
ATOM     12  C   UNL     1      -0.340  10.018  23.358  0.00  0.00    +0.000 A 
ATOM     13  C   UNL     1       0.156   8.884  22.650  0.00  0.00    +0.000 A 
ATOM     14  C   UNL     1      -0.012   8.741  21.227  0.00  0.00    +0.000 A 
ATOM     15  C   UNL     1      -0.471   9.791  20.545  0.00  0.00    +0.000 A 
ATOM     16  C   UNL     1      -0.807  10.971  21.225  0.00  0.00    +0.000 A 
ENDROOT
BRANCH   2  17
ATOM     17  C   UNL     1      -1.455  11.666  18.207  0.00  0.00    +0.000 A 
ATOM     18  C   UNL     1      -0.982  10.489  17.636  0.00  0.00    +0.000 A 
ATOM     19  C   UNL     1      -1.874   9.668  16.936  0.00  0.00    +0.000 A 
ATOM     20  C   UNL     1      -3.234  10.003  16.933  0.00  0.00    +0.000 A 
ATOM     21  C   UNL     1      -3.680  11.156  17.581  0.00  0.00    +0.000 A 
ATOM     22  C   UNL     1      -2.788  12.030  18.147  0.00  0.00    +0.000 A 
BRANCH  21  23
ATOM     23  N   UNL     1      -5.036  11.405  17.840  0.00  0.00    +0.000 N 
ATOM     24  C   UNL     1      -5.917  10.654  18.580  0.00  0.00    +0.000 A 
ATOM     25  N   UNL     1      -7.120  11.147  18.427  0.00  0.00    +0.000 NA
ATOM     26  N   UNL     1      -6.973  12.224  17.591  0.00  0.00    +0.000 NA
ATOM     27  N   UNL     1      -5.708  12.396  17.245  0.00  0.00    +0.000 NA
ENDBRANCH  21  23
ENDBRANCH   2  17
TORSDOF 2
ENDMDL
MODEL 6
REMARK VINA RESULT:      -7.4      8.486     10.230
REMARK  Name = 
REMARK  2 active torsions:
REMARK  status: ('A' for Active; 'I' for Inactive)
REMARK    1  A    between atoms: C_2  and  C_3
REMARK    2  A    between atoms: C_7  and  N_8
REMARK                            x       y       z     vdW  Elec       q    Type
REMARK                         _______ _______ _______ _____ _____    ______ ____
ROOT
ATOM      1  O   UNL     1       5.566  14.129  22.502  0.00  0.00    +0.000 OA
ATOM      2  C   UNL     1       6.678  13.586  22.460  0.00  0.00    +0.000 C 
ATOM      3  N   UNL     1       7.485  13.773  21.395  0.00  0.00    +0.000 N 
ATOM      4  C   UNL     1       7.484  15.123  21.148  0.00  0.00    +0.000 C 
ATOM      5  C   UNL     1       7.652  15.585  19.734  0.00  0.00    +0.000 C 
ATOM      6  C   UNL     1       7.149  17.028  19.932  0.00  0.00    +0.000 C 
ATOM      7  C   UNL     1       7.957  17.803  20.983  0.00  0.00    +0.000 C 
ATOM      8  C   UNL     1       9.349  17.208  21.319  0.00  0.00    +0.000 C 
ATOM      9  C   UNL     1      10.022  16.173  20.313  0.00  0.00    +0.000 C 
ATOM     10  N   UNL     1       9.098  15.281  19.451  0.00  0.00    +0.000 N 
ATOM     11  C   UNL     1       9.282  13.790  19.767  0.00  0.00    +0.000 A 
ATOM     12  C   UNL     1       9.962  12.891  18.931  0.00  0.00    +0.000 A 
ATOM     13  C   UNL     1      10.122  11.529  19.322  0.00  0.00    +0.000 A 
ATOM     14  C   UNL     1       9.676  11.047  20.603  0.00  0.00    +0.000 A 
ATOM     15  C   UNL     1       8.925  11.859  21.348  0.00  0.00    +0.000 A 
ATOM     16  C   UNL     1       8.628  13.151  20.888  0.00  0.00    +0.000 A 
ENDROOT
BRANCH   2  17
ATOM     17  C   UNL     1       7.176  13.032  23.697  0.00  0.00    +0.000 A 
ATOM     18  C   UNL     1       8.250  13.477  24.461  0.00  0.00    +0.000 A 
ATOM     19  C   UNL     1       8.391  13.005  25.772  0.00  0.00    +0.000 A 
ATOM     20  C   UNL     1       7.382  12.193  26.306  0.00  0.00    +0.000 A 
ATOM     21  C   UNL     1       6.281  11.830  25.529  0.00  0.00    +0.000 A 
ATOM     22  C   UNL     1       6.214  12.177  24.205  0.00  0.00    +0.000 A 
BRANCH  21  23
ATOM     23  N   UNL     1       5.126  11.251  26.074  0.00  0.00    +0.000 N 
ATOM     24  C   UNL     1       4.556  11.475  27.305  0.00  0.00    +0.000 A 
ATOM     25  N   UNL     1       3.592  10.608  27.484  0.00  0.00    +0.000 NA
ATOM     26  N   UNL     1       3.559   9.851  26.342  0.00  0.00    +0.000 NA
ATOM     27  N   UNL     1       4.477  10.247  25.475  0.00  0.00    +0.000 NA
ENDBRANCH  21  23
ENDBRANCH   2  17
TORSDOF 2
ENDMDL
MODEL 7
REMARK VINA RESULT:      -7.3      3.343      6.726
REMARK  Name = 
REMARK  2 active torsions:
REMARK  status: ('A' for Active; 'I' for Inactive)
REMARK    1  A    between atoms: C_2  and  C_3
REMARK    2  A    between atoms: C_7  and  N_8
REMARK                            x       y       z     vdW  Elec       q    Type
REMARK                         _______ _______ _______ _____ _____    ______ ____
ROOT
ATOM      1  O   UNL     1       2.399   2.778  16.499  0.00  0.00    +0.000 OA
ATOM      2  C   UNL     1       3.009   3.796  16.852  0.00  0.00    +0.000 C 
ATOM      3  N   UNL     1       2.508   4.584  17.826  0.00  0.00    +0.000 N 
ATOM      4  C   UNL     1       2.135   3.743  18.844  0.00  0.00    +0.000 C 
ATOM      5  C   UNL     1       0.973   4.137  19.700  0.00  0.00    +0.000 C 
ATOM      6  C   UNL     1       0.703   2.754  20.325  0.00  0.00    +0.000 C 
ATOM      7  C   UNL     1       1.919   2.192  21.076  0.00  0.00    +0.000 C 
ATOM      8  C   UNL     1       3.001   3.234  21.461  0.00  0.00    +0.000 C 
ATOM      9  C   UNL     1       2.625   4.782  21.474  0.00  0.00    +0.000 C 
ATOM     10  N   UNL     1       1.524   5.279  20.510  0.00  0.00    +0.000 N 
ATOM     11  C   UNL     1       2.065   6.291  19.491  0.00  0.00    +0.000 A 
ATOM     12  C   UNL     1       1.822   7.671  19.554  0.00  0.00    +0.000 A 
ATOM     13  C   UNL     1       2.399   8.546  18.587  0.00  0.00    +0.000 A 
ATOM     14  C   UNL     1       3.307   8.071  17.576  0.00  0.00    +0.000 A 
ATOM     15  C   UNL     1       3.448   6.752  17.434  0.00  0.00    +0.000 A 
ATOM     16  C   UNL     1       2.749   5.881  18.284  0.00  0.00    +0.000 A 
ENDROOT
BRANCH   2  17
ATOM     17  C   UNL     1       4.380   3.915  16.416  0.00  0.00    +0.000 A 
ATOM     18  C   UNL     1       4.854   4.055  15.116  0.00  0.00    +0.000 A 
ATOM     19  C   UNL     1       6.180   4.460  14.917  0.00  0.00    +0.000 A 
ATOM     20  C   UNL     1       6.947   4.821  16.032  0.00  0.00    +0.000 A 
ATOM     21  C   UNL     1       6.408   4.737  17.317  0.00  0.00    +0.000 A 
ATOM     22  C   UNL     1       5.160   4.210  17.520  0.00  0.00    +0.000 A 
BRANCH  21  23
ATOM     23  N   UNL     1       7.019   5.324  18.435  0.00  0.00    +0.000 N 
ATOM     24  C   UNL     1       7.934   6.350  18.469  0.00  0.00    +0.000 A 
ATOM     25  N   UNL     1       8.376   6.476  19.694  0.00  0.00    +0.000 NA
ATOM     26  N   UNL     1       7.714   5.524  20.426  0.00  0.00    +0.000 NA
ATOM     27  N   UNL     1       6.876   4.833  19.670  0.00  0.00    +0.000 NA
ENDBRANCH  21  23
ENDBRANCH   2  17
TORSDOF 2
ENDMDL
MODEL 8
REMARK VINA RESULT:      -7.3      2.136      7.533
REMARK  Name = 
REMARK  2 active torsions:
REMARK  status: ('A' for Active; 'I' for Inactive)
REMARK    1  A    between atoms: C_2  and  C_3
REMARK    2  A    between atoms: C_7  and  N_8
REMARK                            x       y       z     vdW  Elec       q    Type
REMARK                         _______ _______ _______ _____ _____    ______ ____
ROOT
ATOM      1  O   UNL     1       2.417   9.853  17.156  0.00  0.00    +0.000 OA
ATOM      2  C   UNL     1       2.012   9.225  18.142  0.00  0.00    +0.000 C 
ATOM      3  N   UNL     1       1.076   9.764  18.952  0.00  0.00    +0.000 N 
ATOM      4  C   UNL     1       0.095  10.255  18.129  0.00  0.00    +0.000 C 
ATOM      5  C   UNL     1      -0.669  11.461  18.577  0.00  0.00    +0.000 C 
ATOM      6  C   UNL     1      -1.264  11.845  17.207  0.00  0.00    +0.000 C 
ATOM      7  C   UNL     1      -2.105  10.720  16.586  0.00  0.00    +0.000 C 
ATOM      8  C   UNL     1      -2.579   9.623  17.574  0.00  0.00    +0.000 C 
ATOM      9  C   UNL     1      -2.571   9.924  19.139  0.00  0.00    +0.000 C 
ATOM     10  N   UNL     1      -1.526  10.921  19.689  0.00  0.00    +0.000 N 
ATOM     11  C   UNL     1      -0.558  10.253  20.676  0.00  0.00    +0.000 A 
ATOM     12  C   UNL     1      -0.609  10.435  22.066  0.00  0.00    +0.000 A 
ATOM     13  C   UNL     1       0.305   9.742  22.914  0.00  0.00    +0.000 A 
ATOM     14  C   UNL     1       1.244   8.781  22.396  0.00  0.00    +0.000 A 
ATOM     15  C   UNL     1       1.382   8.692  21.073  0.00  0.00    +0.000 A 
ATOM     16  C   UNL     1       0.594   9.497  20.235  0.00  0.00    +0.000 A 
ENDROOT
BRANCH   2  17
ATOM     17  C   UNL     1       2.338   7.821  18.196  0.00  0.00    +0.000 A 
ATOM     18  C   UNL     1       1.462   6.740  18.213  0.00  0.00    +0.000 A 
ATOM     19  C   UNL     1       1.963   5.457  17.959  0.00  0.00    +0.000 A 
ATOM     20  C   UNL     1       3.305   5.321  17.582  0.00  0.00    +0.000 A 
ATOM     21  C   UNL     1       4.134   6.442  17.505  0.00  0.00    +0.000 A 
ATOM     22  C   UNL     1       3.679   7.677  17.888  0.00  0.00    +0.000 A 
BRANCH  21  23
ATOM     23  N   UNL     1       5.393   6.412  16.888  0.00  0.00    +0.000 N 
ATOM     24  C   UNL     1       5.804   5.650  15.820  0.00  0.00    +0.000 A 
ATOM     25  N   UNL     1       7.096   5.799  15.672  0.00  0.00    +0.000 NA
ATOM     26  N   UNL     1       7.481   6.675  16.653  0.00  0.00    +0.000 NA
ATOM     27  N   UNL     1       6.449   7.064  17.384  0.00  0.00    +0.000 NA
ENDBRANCH  21  23
ENDBRANCH   2  17
TORSDOF 2
ENDMDL
MODEL 9
REMARK VINA RESULT:      -7.1      8.508     10.453
REMARK  Name = 
REMARK  2 active torsions:
REMARK  status: ('A' for Active; 'I' for Inactive)
REMARK    1  A    between atoms: C_2  and  C_3
REMARK    2  A    between atoms: C_7  and  N_8
REMARK                            x       y       z     vdW  Elec       q    Type
REMARK                         _______ _______ _______ _____ _____    ______ ____
ROOT
ATOM      1  O   UNL     1       8.335  14.125  21.131  0.00  0.00    +0.000 OA
ATOM      2  C   UNL     1       8.409  14.784  20.086  0.00  0.00    +0.000 C 
ATOM      3  N   UNL     1       9.607  15.003  19.504  0.00  0.00    +0.000 N 
ATOM      4  C   UNL     1      10.245  13.789  19.477  0.00  0.00    +0.000 C 
ATOM      5  C   UNL     1      11.739  13.770  19.576  0.00  0.00    +0.000 C 
ATOM      6  C   UNL     1      11.898  12.281  19.942  0.00  0.00    +0.000 C 
ATOM      7  C   UNL     1      11.292  11.340  18.890  0.00  0.00    +0.000 C 
ATOM      8  C   UNL     1      11.046  11.973  17.496  0.00  0.00    +0.000 C 
ATOM      9  C   UNL     1      11.797  13.323  17.108  0.00  0.00    +0.000 C 
ATOM     10  N   UNL     1      12.170  14.308  18.239  0.00  0.00    +0.000 N 
ATOM     11  C   UNL     1      11.459  15.659  18.083  0.00  0.00    +0.000 A 
ATOM     12  C   UNL     1      12.093  16.831  17.643  0.00  0.00    +0.000 A 
ATOM     13  C   UNL     1      11.345  18.036  17.487  0.00  0.00    +0.000 A 
ATOM     14  C   UNL     1       9.920  18.079  17.689  0.00  0.00    +0.000 A 
ATOM     15  C   UNL     1       9.332  17.007  18.221  0.00  0.00    +0.000 A 
ATOM     16  C   UNL     1      10.100  15.872  18.529  0.00  0.00    +0.000 A 
ENDROOT
BRANCH   2  17
ATOM     17  C   UNL     1       7.173  15.019  19.378  0.00  0.00    +0.000 A 
ATOM     18  C   UNL     1       6.828  14.598  18.097  0.00  0.00    +0.000 A 
ATOM     19  C   UNL     1       5.486  14.657  17.703  0.00  0.00    +0.000 A 
ATOM     20  C   UNL     1       4.523  15.029  18.649  0.00  0.00    +0.000 A 
ATOM     21  C   UNL     1       4.903  15.373  19.947  0.00  0.00    +0.000 A 
ATOM     22  C   UNL     1       6.228  15.448  20.291  0.00  0.00    +0.000 A 
BRANCH  21  23
ATOM     23  N   UNL     1       3.984  15.495  21.000  0.00  0.00    +0.000 N 
ATOM     24  C   UNL     1       3.181  16.566  21.314  0.00  0.00    +0.000 A 
ATOM     25  N   UNL     1       2.604  16.333  22.466  0.00  0.00    +0.000 NA
ATOM     26  N   UNL     1       3.048  15.096  22.858  0.00  0.00    +0.000 NA
ATOM     27  N   UNL     1       3.873  14.575  21.963  0.00  0.00    +0.000 NA
ENDBRANCH  21  23
ENDBRANCH   2  17
TORSDOF 2
ENDMDL
