MODEL 1
REMARK VINA RESULT:      -8.0      0.000      0.000
REMARK  Name = 
REMARK  6 active torsions:
REMARK  status: ('A' for Active; 'I' for Inactive)
REMARK    1  A    between atoms: C_1  and  C_2
REMARK    2  A    between atoms: C_4  and  C_5
REMARK    3  A    between atoms: C_5  and  N_6
REMARK    4  A    between atoms: C_10  and  C_11
REMARK    5  A    between atoms: C_10  and  C_12
REMARK    6  A    between atoms: C_25  and  C_26
REMARK                            x       y       z     vdW  Elec       q    Type
REMARK                         _______ _______ _______ _____ _____    ______ ____
ROOT
ATOM      1  N   UNL     1       1.917   3.578  19.378  0.00  0.00    +0.000 N 
ATOM      2  C   UNL     1       1.668   3.585  18.045  0.00  0.00    +0.000 C 
ATOM      3  O   UNL     1       0.724   4.078  17.457  0.00  0.00    +0.000 OA
ATOM      4  N   UNL     1       2.695   2.922  17.416  0.00  0.00    +0.000 N 
ATOM      5  C   UNL     1       3.844   2.719  18.298  0.00  0.00    +0.000 C 
ATOM      6  C   UNL     1       4.299   1.273  18.112  0.00  0.00    +0.000 C 
ATOM      7  C   UNL     1       3.102   2.942  19.641  0.00  0.00    +0.000 C 
ATOM      8  O   UNL     1       3.520   2.651  20.754  0.00  0.00    +0.000 OA
ATOM      9  H   UNL     1       2.745   2.918  16.405  0.00  0.00    +0.000 HD
ENDROOT
BRANCH   5  10
ATOM     10  C   UNL     1       4.920   3.823  18.103  0.00  0.00    +0.000 A 
ATOM     11  C   UNL     1       5.370   4.525  19.253  0.00  0.00    +0.000 A 
ATOM     12  C   UNL     1       6.390   5.467  19.202  0.00  0.00    +0.000 A 
ATOM     13  C   UNL     1       6.994   5.755  17.993  0.00  0.00    +0.000 A 
ATOM     14  C   UNL     1       6.595   5.107  16.823  0.00  0.00    +0.000 A 
ATOM     15  C   UNL     1       7.257   5.447  15.633  0.00  0.00    +0.000 A 
ATOM     16  C   UNL     1       6.930   4.838  14.430  0.00  0.00    +0.000 A 
ATOM     17  C   UNL     1       5.947   3.862  14.413  0.00  0.00    +0.000 A 
ATOM     18  C   UNL     1       5.290   3.502  15.599  0.00  0.00    +0.000 A 
ATOM     19  C   UNL     1       5.564   4.119  16.847  0.00  0.00    +0.000 A 
ENDBRANCH   5  10
BRANCH   1  20
ATOM     20  C   UNL     1       1.137   4.290  20.360  0.00  0.00    +0.000 C 
BRANCH  20  24
ATOM     21  C   UNL     1       1.408   9.189  21.073  0.00  0.00    +0.000 C 
ATOM     22  C   UNL     1       1.608   7.857  20.469  0.00  0.00    +0.000 A 
ATOM     23  N   UNL     1       1.156   6.720  21.100  0.00  0.00    +0.000 NA
ATOM     24  C   UNL     1       1.467   5.745  20.269  0.00  0.00    +0.000 A 
ATOM     25  O   UNL     1       2.127   6.160  19.142  0.00  0.00    +0.000 OA
ATOM     26  C   UNL     1       2.201   7.517  19.272  0.00  0.00    +0.000 A 
ATOM     27  C   UNL     1       2.837   8.269  18.176  0.00  0.00    +0.000 C 
ENDBRANCH  20  24
ENDBRANCH   1  20
TORSDOF 3
ENDMDL
MODEL 2
REMARK VINA RESULT:      -7.8      8.568     11.617
REMARK  Name = 
REMARK  6 active torsions:
REMARK  status: ('A' for Active; 'I' for Inactive)
REMARK    1  A    between atoms: C_1  and  C_2
REMARK    2  A    between atoms: C_4  and  C_5
REMARK    3  A    between atoms: C_5  and  N_6
REMARK    4  A    between atoms: C_10  and  C_11
REMARK    5  A    between atoms: C_10  and  C_12
REMARK    6  A    between atoms: C_25  and  C_26
REMARK                            x       y       z     vdW  Elec       q    Type
REMARK                         _______ _______ _______ _____ _____    ______ ____
ROOT
ATOM      1  N   UNL     1      -4.833  13.617  22.951  0.00  0.00    +0.000 N 
ATOM      2  C   UNL     1      -4.458  12.661  23.836  0.00  0.00    +0.000 C 
ATOM      3  O   UNL     1      -5.164  11.884  24.452  0.00  0.00    +0.000 OA
ATOM      4  N   UNL     1      -3.088  12.691  23.941  0.00  0.00    +0.000 N 
ATOM      5  C   UNL     1      -2.469  13.475  22.872  0.00  0.00    +0.000 C 
ATOM      6  C   UNL     1      -1.413  14.364  23.526  0.00  0.00    +0.000 C 
ATOM      7  C   UNL     1      -3.735  14.266  22.451  0.00  0.00    +0.000 C 
ATOM      8  O   UNL     1      -3.760  15.267  21.748  0.00  0.00    +0.000 OA
ATOM      9  H   UNL     1      -2.609  11.975  24.473  0.00  0.00    +0.000 HD
ENDROOT
BRANCH   5  10
ATOM     10  C   UNL     1      -1.997  12.574  21.698  0.00  0.00    +0.000 A 
ATOM     11  C   UNL     1      -2.262  13.013  20.373  0.00  0.00    +0.000 A 
ATOM     12  C   UNL     1      -1.806  12.328  19.254  0.00  0.00    +0.000 A 
ATOM     13  C   UNL     1      -1.077  11.166  19.414  0.00  0.00    +0.000 A 
ATOM     14  C   UNL     1      -0.787  10.675  20.688  0.00  0.00    +0.000 A 
ATOM     15  C   UNL     1      -0.037   9.491  20.773  0.00  0.00    +0.000 A 
ATOM     16  C   UNL     1       0.306   8.945  22.002  0.00  0.00    +0.000 A 
ATOM     17  C   UNL     1      -0.083   9.595  23.162  0.00  0.00    +0.000 A 
ATOM     18  C   UNL     1      -0.819  10.788  23.089  0.00  0.00    +0.000 A 
ATOM     19  C   UNL     1      -1.224  11.367  21.858  0.00  0.00    +0.000 A 
ENDBRANCH   5  10
BRANCH   1  20
ATOM     20  C   UNL     1      -6.181  13.806  22.473  0.00  0.00    +0.000 C 
BRANCH  20  24
ATOM     21  C   UNL     1      -6.882  11.845  17.974  0.00  0.00    +0.000 C 
ATOM     22  C   UNL     1      -6.771  11.957  19.441  0.00  0.00    +0.000 A 
ATOM     23  N   UNL     1      -6.355  13.129  20.031  0.00  0.00    +0.000 NA
ATOM     24  C   UNL     1      -6.415  12.879  21.324  0.00  0.00    +0.000 A 
ATOM     25  O   UNL     1      -6.812  11.604  21.628  0.00  0.00    +0.000 OA
ATOM     26  C   UNL     1      -7.052  11.024  20.416  0.00  0.00    +0.000 A 
ATOM     27  C   UNL     1      -7.539   9.633  20.415  0.00  0.00    +0.000 C 
ENDBRANCH  20  24
ENDBRANCH   1  20
TORSDOF 3
ENDMDL
MODEL 3
REMARK VINA RESULT:      -7.5      1.571      5.990
REMARK  Name = 
REMARK  6 active torsions:
REMARK  status: ('A' for Active; 'I' for Inactive)
REMARK    1  A    between atoms: C_1  and  C_2
REMARK    2  A    between atoms: C_4  and  C_5
REMARK    3  A    between atoms: C_5  and  N_6
REMARK    4  A    between atoms: C_10  and  C_11
REMARK    5  A    between atoms: C_10  and  C_12
REMARK    6  A    between atoms: C_25  and  C_26
REMARK                            x       y       z     vdW  Elec       q    Type
REMARK                         _______ _______ _______ _____ _____    ______ ____
ROOT
ATOM      1  N   UNL     1       3.623   3.304  18.387  0.00  0.00    +0.000 N 
ATOM      2  C   UNL     1       4.233   3.625  19.555  0.00  0.00    +0.000 C 
ATOM      3  O   UNL     1       5.374   3.385  19.900  0.00  0.00    +0.000 OA
ATOM      4  N   UNL     1       3.328   4.304  20.336  0.00  0.00    +0.000 N 
ATOM      5  C   UNL     1       2.158   4.739  19.574  0.00  0.00    +0.000 C 
ATOM      6  C   UNL     1       0.928   4.404  20.415  0.00  0.00    +0.000 C 
ATOM      7  C   UNL     1       2.337   3.777  18.372  0.00  0.00    +0.000 C 
ATOM      8  O   UNL     1       1.496   3.520  17.520  0.00  0.00    +0.000 OA
ATOM      9  H   UNL     1       3.631   4.725  21.204  0.00  0.00    +0.000 HD
ENDROOT
BRANCH   5  10
ATOM     10  C   UNL     1       2.299   6.210  19.094  0.00  0.00    +0.000 A 
ATOM     11  C   UNL     1       2.932   6.446  17.845  0.00  0.00    +0.000 A 
ATOM     12  C   UNL     1       3.031   7.713  17.284  0.00  0.00    +0.000 A 
ATOM     13  C   UNL     1       2.511   8.801  17.958  0.00  0.00    +0.000 A 
ATOM     14  C   UNL     1       1.881   8.641  19.194  0.00  0.00    +0.000 A 
ATOM     15  C   UNL     1       1.373   9.791  19.818  0.00  0.00    +0.000 A 
ATOM     16  C   UNL     1       0.720   9.715  21.041  0.00  0.00    +0.000 A 
ATOM     17  C   UNL     1       0.553   8.478  21.641  0.00  0.00    +0.000 A 
ATOM     18  C   UNL     1       1.043   7.320  21.019  0.00  0.00    +0.000 A 
ATOM     19  C   UNL     1       1.747   7.348  19.786  0.00  0.00    +0.000 A 
ENDBRANCH   5  10
BRANCH   1  20
ATOM     20  C   UNL     1       4.286   2.704  17.255  0.00  0.00    +0.000 C 
BRANCH  20  24
ATOM     21  C   UNL     1       7.207   5.234  14.148  0.00  0.00    +0.000 C 
ATOM     22  C   UNL     1       6.444   4.874  15.360  0.00  0.00    +0.000 A 
ATOM     23  N   UNL     1       5.625   3.768  15.377  0.00  0.00    +0.000 NA
ATOM     24  C   UNL     1       5.150   3.737  16.606  0.00  0.00    +0.000 A 
ATOM     25  O   UNL     1       5.576   4.773  17.396  0.00  0.00    +0.000 OA
ATOM     26  C   UNL     1       6.416   5.490  16.593  0.00  0.00    +0.000 A 
ATOM     27  C   UNL     1       7.074   6.668  17.183  0.00  0.00    +0.000 C 
ENDBRANCH  20  24
ENDBRANCH   1  20
TORSDOF 3
ENDMDL
MODEL 4
REMARK VINA RESULT:      -7.5      1.720      5.973
REMARK  Name = 
REMARK  6 active torsions:
REMARK  status: ('A' for Active; 'I' for Inactive)
REMARK    1  A    between atoms: C_1  and  C_2
REMARK    2  A    between atoms: C_4  and  C_5
REMARK    3  A    between atoms: C_5  and  N_6
REMARK    4  A    between atoms: C_10  and  C_11
REMARK    5  A    between atoms: C_10  and  C_12
REMARK    6  A    between atoms: C_25  and  C_26
REMARK                            x       y       z     vdW  Elec       q    Type
REMARK                         _______ _______ _______ _____ _____    ______ ____
ROOT
ATOM      1  N   UNL     1       3.613   3.363  18.373  0.00  0.00    +0.000 N 
ATOM      2  C   UNL     1       4.170   3.639  19.578  0.00  0.00    +0.000 C 
ATOM      3  O   UNL     1       5.299   3.394  19.960  0.00  0.00    +0.000 OA
ATOM      4  N   UNL     1       3.227   4.274  20.349  0.00  0.00    +0.000 N 
ATOM      5  C   UNL     1       2.084   4.732  19.559  0.00  0.00    +0.000 C 
ATOM      6  C   UNL     1       0.825   4.349  20.333  0.00  0.00    +0.000 C 
ATOM      7  C   UNL     1       2.323   3.825  18.324  0.00  0.00    +0.000 C 
ATOM      8  O   UNL     1       1.521   3.599  17.428  0.00  0.00    +0.000 OA
ATOM      9  H   UNL     1       3.490   4.660  21.247  0.00  0.00    +0.000 HD
ENDROOT
BRANCH   5  10
ATOM     10  C   UNL     1       2.230   6.224  19.150  0.00  0.00    +0.000 A 
ATOM     11  C   UNL     1       2.901   6.520  17.934  0.00  0.00    +0.000 A 
ATOM     12  C   UNL     1       3.007   7.811  17.434  0.00  0.00    +0.000 A 
ATOM     13  C   UNL     1       2.457   8.865  18.138  0.00  0.00    +0.000 A 
ATOM     14  C   UNL     1       1.790   8.646  19.344  0.00  0.00    +0.000 A 
ATOM     15  C   UNL     1       1.252   9.763  20.002  0.00  0.00    +0.000 A 
ATOM     16  C   UNL     1       0.561   9.628  21.199  0.00  0.00    +0.000 A 
ATOM     17  C   UNL     1       0.384   8.364  21.737  0.00  0.00    +0.000 A 
ATOM     18  C   UNL     1       0.903   7.239  21.080  0.00  0.00    +0.000 A 
ATOM     19  C   UNL     1       1.646   7.327  19.874  0.00  0.00    +0.000 A 
ENDBRANCH   5  10
BRANCH   1  20
ATOM     20  C   UNL     1       4.329   2.820  17.244  0.00  0.00    +0.000 C 
BRANCH  20  24
ATOM     21  C   UNL     1       7.276   6.784  16.808  0.00  0.00    +0.000 C 
ATOM     22  C   UNL     1       6.588   5.518  16.485  0.00  0.00    +0.000 A 
ATOM     23  N   UNL     1       5.799   4.884  17.419  0.00  0.00    +0.000 NA
ATOM     24  C   UNL     1       5.327   3.832  16.781  0.00  0.00    +0.000 A 
ATOM     25  O   UNL     1       5.780   3.709  15.493  0.00  0.00    +0.000 OA
ATOM     26  C   UNL     1       6.577   4.802  15.307  0.00  0.00    +0.000 A 
ATOM     27  C   UNL     1       7.192   4.973  13.980  0.00  0.00    +0.000 C 
ENDBRANCH  20  24
ENDBRANCH   1  20
TORSDOF 3
ENDMDL
MODEL 5
REMARK VINA RESULT:      -7.4      0.659      1.195
REMARK  Name = 
REMARK  6 active torsions:
REMARK  status: ('A' for Active; 'I' for Inactive)
REMARK    1  A    between atoms: C_1  and  C_2
REMARK    2  A    between atoms: C_4  and  C_5
REMARK    3  A    between atoms: C_5  and  N_6
REMARK    4  A    between atoms: C_10  and  C_11
REMARK    5  A    between atoms: C_10  and  C_12
REMARK    6  A    between atoms: C_25  and  C_26
REMARK                            x       y       z     vdW  Elec       q    Type
REMARK                         _______ _______ _______ _____ _____    ______ ____
ROOT
ATOM      1  N   UNL     1       1.977   3.647  19.362  0.00  0.00    +0.000 N 
ATOM      2  C   UNL     1       1.721   3.621  18.031  0.00  0.00    +0.000 C 
ATOM      3  O   UNL     1       0.778   4.107  17.434  0.00  0.00    +0.000 OA
ATOM      4  N   UNL     1       2.738   2.933  17.414  0.00  0.00    +0.000 N 
ATOM      5  C   UNL     1       3.890   2.742  18.295  0.00  0.00    +0.000 C 
ATOM      6  C   UNL     1       4.330   1.288  18.145  0.00  0.00    +0.000 C 
ATOM      7  C   UNL     1       3.157   3.007  19.636  0.00  0.00    +0.000 C 
ATOM      8  O   UNL     1       3.578   2.742  20.754  0.00  0.00    +0.000 OA
ATOM      9  H   UNL     1       2.782   2.902  16.404  0.00  0.00    +0.000 HD
ENDROOT
BRANCH   5  10
ATOM     10  C   UNL     1       4.974   3.831  18.066  0.00  0.00    +0.000 A 
ATOM     11  C   UNL     1       5.472   4.526  19.200  0.00  0.00    +0.000 A 
ATOM     12  C   UNL     1       6.503   5.453  19.116  0.00  0.00    +0.000 A 
ATOM     13  C   UNL     1       7.072   5.733  17.889  0.00  0.00    +0.000 A 
ATOM     14  C   UNL     1       6.626   5.091  16.732  0.00  0.00    +0.000 A 
ATOM     15  C   UNL     1       7.254   5.422  15.522  0.00  0.00    +0.000 A 
ATOM     16  C   UNL     1       6.880   4.818  14.329  0.00  0.00    +0.000 A 
ATOM     17  C   UNL     1       5.883   3.856  14.344  0.00  0.00    +0.000 A 
ATOM     18  C   UNL     1       5.259   3.505  15.551  0.00  0.00    +0.000 A 
ATOM     19  C   UNL     1       5.582   4.118  16.790  0.00  0.00    +0.000 A 
ENDBRANCH   5  10
BRANCH   1  20
ATOM     20  C   UNL     1       1.208   4.392  20.329  0.00  0.00    +0.000 C 
BRANCH  20  24
ATOM     21  C   UNL     1       2.590   8.788  18.499  0.00  0.00    +0.000 C 
ATOM     22  C   UNL     1       2.021   7.777  19.412  0.00  0.00    +0.000 A 
ATOM     23  N   UNL     1       1.943   6.454  19.039  0.00  0.00    +0.000 NA
ATOM     24  C   UNL     1       1.432   5.852  20.095  0.00  0.00    +0.000 A 
ATOM     25  O   UNL     1       1.136   6.697  21.132  0.00  0.00    +0.000 OA
ATOM     26  C   UNL     1       1.529   7.928  20.690  0.00  0.00    +0.000 A 
ATOM     27  C   UNL     1       1.370   9.062  21.617  0.00  0.00    +0.000 C 
ENDBRANCH  20  24
ENDBRANCH   1  20
TORSDOF 3
ENDMDL
MODEL 6
REMARK VINA RESULT:      -7.3      2.896      6.748
REMARK  Name = 
REMARK  6 active torsions:
REMARK  status: ('A' for Active; 'I' for Inactive)
REMARK    1  A    between atoms: C_1  and  C_2
REMARK    2  A    between atoms: C_4  and  C_5
REMARK    3  A    between atoms: C_5  and  N_6
REMARK    4  A    between atoms: C_10  and  C_11
REMARK    5  A    between atoms: C_10  and  C_12
REMARK    6  A    between atoms: C_25  and  C_26
REMARK                            x       y       z     vdW  Elec       q    Type
REMARK                         _______ _______ _______ _____ _____    ______ ____
ROOT
ATOM      1  N   UNL     1       6.077   5.775  17.037  0.00  0.00    +0.000 N 
ATOM      2  C   UNL     1       5.130   6.431  16.323  0.00  0.00    +0.000 C 
ATOM      3  O   UNL     1       5.162   6.762  15.152  0.00  0.00    +0.000 OA
ATOM      4  N   UNL     1       4.063   6.678  17.154  0.00  0.00    +0.000 N 
ATOM      5  C   UNL     1       4.137   5.904  18.393  0.00  0.00    +0.000 C 
ATOM      6  C   UNL     1       3.805   6.860  19.536  0.00  0.00    +0.000 C 
ATOM      7  C   UNL     1       5.649   5.564  18.322  0.00  0.00    +0.000 C 
ATOM      8  O   UNL     1       6.335   5.130  19.237  0.00  0.00    +0.000 OA
ATOM      9  H   UNL     1       3.209   7.063  16.773  0.00  0.00    +0.000 HD
ENDROOT
BRANCH   5  10
ATOM     10  C   UNL     1       3.301   4.598  18.305  0.00  0.00    +0.000 A 
ATOM     11  C   UNL     1       3.207   3.949  17.045  0.00  0.00    +0.000 A 
ATOM     12  C   UNL     1       2.560   2.733  16.876  0.00  0.00    +0.000 A 
ATOM     13  C   UNL     1       1.965   2.118  17.962  0.00  0.00    +0.000 A 
ATOM     14  C   UNL     1       2.013   2.704  19.228  0.00  0.00    +0.000 A 
ATOM     15  C   UNL     1       1.392   2.021  20.284  0.00  0.00    +0.000 A 
ATOM     16  C   UNL     1       1.407   2.529  21.576  0.00  0.00    +0.000 A 
ATOM     17  C   UNL     1       2.067   3.721  21.824  0.00  0.00    +0.000 A 
ATOM     18  C   UNL     1       2.706   4.405  20.779  0.00  0.00    +0.000 A 
ATOM     19  C   UNL     1       2.689   3.945  19.436  0.00  0.00    +0.000 A 
ENDBRANCH   5  10
BRANCH   1  20
ATOM     20  C   UNL     1       7.288   5.224  16.479  0.00  0.00    +0.000 C 
BRANCH  20  24
ATOM     21  C   UNL     1       5.891   2.962  12.294  0.00  0.00    +0.000 C 
ATOM     22  C   UNL     1       6.516   3.941  13.206  0.00  0.00    +0.000 A 
ATOM     23  N   UNL     1       6.302   3.878  14.564  0.00  0.00    +0.000 NA
ATOM     24  C   UNL     1       7.033   4.860  15.052  0.00  0.00    +0.000 A 
ATOM     25  O   UNL     1       7.693   5.592  14.100  0.00  0.00    +0.000 OA
ATOM     26  C   UNL     1       7.366   4.987  12.919  0.00  0.00    +0.000 A 
ATOM     27  C   UNL     1       7.965   5.535  11.690  0.00  0.00    +0.000 C 
ENDBRANCH  20  24
ENDBRANCH   1  20
TORSDOF 3
ENDMDL
MODEL 7
REMARK VINA RESULT:      -7.2      8.543     11.540
REMARK  Name = 
REMARK  6 active torsions:
REMARK  status: ('A' for Active; 'I' for Inactive)
REMARK    1  A    between atoms: C_1  and  C_2
REMARK    2  A    between atoms: C_4  and  C_5
REMARK    3  A    between atoms: C_5  and  N_6
REMARK    4  A    between atoms: C_10  and  C_11
REMARK    5  A    between atoms: C_10  and  C_12
REMARK    6  A    between atoms: C_25  and  C_26
REMARK                            x       y       z     vdW  Elec       q    Type
REMARK                         _______ _______ _______ _____ _____    ______ ____
ROOT
ATOM      1  N   UNL     1      -4.715  13.905  22.440  0.00  0.00    +0.000 N 
ATOM      2  C   UNL     1      -4.619  12.879  23.322  0.00  0.00    +0.000 C 
ATOM      3  O   UNL     1      -5.513  12.198  23.787  0.00  0.00    +0.000 OA
ATOM      4  N   UNL     1      -3.290  12.706  23.630  0.00  0.00    +0.000 N 
ATOM      5  C   UNL     1      -2.411  13.421  22.706  0.00  0.00    +0.000 C 
ATOM      6  C   UNL     1      -1.354  14.127  23.553  0.00  0.00    +0.000 C 
ATOM      7  C   UNL     1      -3.473  14.400  22.142  0.00  0.00    +0.000 C 
ATOM      8  O   UNL     1      -3.249  15.414  21.494  0.00  0.00    +0.000 OA
ATOM      9  H   UNL     1      -3.005  11.913  24.191  0.00  0.00    +0.000 HD
ENDROOT
BRANCH   5  10
ATOM     10  C   UNL     1      -1.895  12.494  21.571  0.00  0.00    +0.000 A 
ATOM     11  C   UNL     1      -2.104  12.905  20.228  0.00  0.00    +0.000 A 
ATOM     12  C   UNL     1      -1.606  12.196  19.142  0.00  0.00    +0.000 A 
ATOM     13  C   UNL     1      -0.887  11.036  19.356  0.00  0.00    +0.000 A 
ATOM     14  C   UNL     1      -0.651  10.571  20.651  0.00  0.00    +0.000 A 
ATOM     15  C   UNL     1       0.091   9.388  20.791  0.00  0.00    +0.000 A 
ATOM     16  C   UNL     1       0.382   8.867  22.045  0.00  0.00    +0.000 A 
ATOM     17  C   UNL     1      -0.052   9.542  23.173  0.00  0.00    +0.000 A 
ATOM     18  C   UNL     1      -0.780  10.735  23.046  0.00  0.00    +0.000 A 
ATOM     19  C   UNL     1      -1.133  11.289  21.787  0.00  0.00    +0.000 A 
ENDBRANCH   5  10
BRANCH   1  20
ATOM     20  C   UNL     1      -5.934  14.302  21.778  0.00  0.00    +0.000 C 
BRANCH  20  24
ATOM     21  C   UNL     1      -5.461  11.075  18.044  0.00  0.00    +0.000 C 
ATOM     22  C   UNL     1      -5.828  12.293  18.793  0.00  0.00    +0.000 A 
ATOM     23  N   UNL     1      -5.616  12.378  20.150  0.00  0.00    +0.000 NA
ATOM     24  C   UNL     1      -6.016  13.595  20.464  0.00  0.00    +0.000 A 
ATOM     25  O   UNL     1      -6.511  14.310  19.405  0.00  0.00    +0.000 OA
ATOM     26  C   UNL     1      -6.374  13.473  18.335  0.00  0.00    +0.000 A 
ATOM     27  C   UNL     1      -6.793  13.984  17.018  0.00  0.00    +0.000 C 
ENDBRANCH  20  24
ENDBRANCH   1  20
TORSDOF 3
ENDMDL
MODEL 8
REMARK VINA RESULT:      -7.1      3.735      8.429
REMARK  Name = 
REMARK  6 active torsions:
REMARK  status: ('A' for Active; 'I' for Inactive)
REMARK    1  A    between atoms: C_1  and  C_2
REMARK    2  A    between atoms: C_4  and  C_5
REMARK    3  A    between atoms: C_5  and  N_6
REMARK    4  A    between atoms: C_10  and  C_11
REMARK    5  A    between atoms: C_10  and  C_12
REMARK    6  A    between atoms: C_25  and  C_26
REMARK                            x       y       z     vdW  Elec       q    Type
REMARK                         _______ _______ _______ _____ _____    ______ ____
ROOT
ATOM      1  N   UNL     1       1.361   8.677  19.639  0.00  0.00    +0.000 N 
ATOM      2  C   UNL     1       0.535   9.056  20.645  0.00  0.00    +0.000 C 
ATOM      3  O   UNL     1       0.559   8.710  21.811  0.00  0.00    +0.000 OA
ATOM      4  N   UNL     1      -0.384   9.940  20.132  0.00  0.00    +0.000 N 
ATOM      5  C   UNL     1       0.000  10.430  18.808  0.00  0.00    +0.000 C 
ATOM      6  C   UNL     1      -1.247  10.368  17.931  0.00  0.00    +0.000 C 
ATOM      7  C   UNL     1       1.021   9.311  18.473  0.00  0.00    +0.000 C 
ATOM      8  O   UNL     1       1.487   9.066  17.369  0.00  0.00    +0.000 OA
ATOM      9  H   UNL     1      -1.020  10.421  20.755  0.00  0.00    +0.000 HD
ENDROOT
BRANCH   5  10
ATOM     10  C   UNL     1       0.731  11.799  18.893  0.00  0.00    +0.000 A 
ATOM     11  C   UNL     1       2.037  11.892  18.343  0.00  0.00    +0.000 A 
ATOM     12  C   UNL     1       2.741  13.088  18.288  0.00  0.00    +0.000 A 
ATOM     13  C   UNL     1       2.171  14.241  18.792  0.00  0.00    +0.000 A 
ATOM     14  C   UNL     1       0.892  14.219  19.353  0.00  0.00    +0.000 A 
ATOM     15  C   UNL     1       0.375  15.429  19.841  0.00  0.00    +0.000 A 
ATOM     16  C   UNL     1      -0.894  15.494  20.400  0.00  0.00    +0.000 A 
ATOM     17  C   UNL     1      -1.667  14.346  20.455  0.00  0.00    +0.000 A 
ATOM     18  C   UNL     1      -1.167  13.134  19.955  0.00  0.00    +0.000 A 
ATOM     19  C   UNL     1       0.136  13.008  19.406  0.00  0.00    +0.000 A 
ENDBRANCH   5  10
BRANCH   1  20
ATOM     20  C   UNL     1       2.538   7.860  19.811  0.00  0.00    +0.000 C 
BRANCH  20  24
ATOM     21  C   UNL     1       1.180   3.181  20.734  0.00  0.00    +0.000 C 
ATOM     22  C   UNL     1       1.608   4.387  19.998  0.00  0.00    +0.000 A 
ATOM     23  N   UNL     1       1.702   5.606  20.631  0.00  0.00    +0.000 NA
ATOM     24  C   UNL     1       2.142   6.423  19.695  0.00  0.00    +0.000 A 
ATOM     25  O   UNL     1       2.314   5.830  18.471  0.00  0.00    +0.000 OA
ATOM     26  C   UNL     1       1.982   4.522  18.678  0.00  0.00    +0.000 A 
ATOM     27  C   UNL     1       2.104   3.604  17.532  0.00  0.00    +0.000 C 
ENDBRANCH  20  24
ENDBRANCH   1  20
TORSDOF 3
ENDMDL
MODEL 9
REMARK VINA RESULT:      -7.1      2.845      6.651
REMARK  Name = 
REMARK  6 active torsions:
REMARK  status: ('A' for Active; 'I' for Inactive)
REMARK    1  A    between atoms: C_1  and  C_2
REMARK    2  A    between atoms: C_4  and  C_5
REMARK    3  A    between atoms: C_5  and  N_6
REMARK    4  A    between atoms: C_10  and  C_11
REMARK    5  A    between atoms: C_10  and  C_12
REMARK    6  A    between atoms: C_25  and  C_26
REMARK                            x       y       z     vdW  Elec       q    Type
REMARK                         _______ _______ _______ _____ _____    ______ ____
ROOT
ATOM      1  N   UNL     1       5.961   6.028  17.242  0.00  0.00    +0.000 N 
ATOM      2  C   UNL     1       5.044   6.592  16.418  0.00  0.00    +0.000 C 
ATOM      3  O   UNL     1       5.163   6.881  15.242  0.00  0.00    +0.000 OA
ATOM      4  N   UNL     1       3.892   6.799  17.139  0.00  0.00    +0.000 N 
ATOM      5  C   UNL     1       3.901   6.078  18.412  0.00  0.00    +0.000 C 
ATOM      6  C   UNL     1       3.405   7.052  19.479  0.00  0.00    +0.000 C 
ATOM      7  C   UNL     1       5.431   5.837  18.491  0.00  0.00    +0.000 C 
ATOM      8  O   UNL     1       6.057   5.484  19.482  0.00  0.00    +0.000 OA
ATOM      9  H   UNL     1       3.054   7.112  16.667  0.00  0.00    +0.000 HD
ENDROOT
BRANCH   5  10
ATOM     10  C   UNL     1       3.160   4.717  18.306  0.00  0.00    +0.000 A 
ATOM     11  C   UNL     1       3.107   4.083  17.036  0.00  0.00    +0.000 A 
ATOM     12  C   UNL     1       2.548   2.826  16.851  0.00  0.00    +0.000 A 
ATOM     13  C   UNL     1       2.004   2.154  17.929  0.00  0.00    +0.000 A 
ATOM     14  C   UNL     1       2.017   2.722  19.204  0.00  0.00    +0.000 A 
ATOM     15  C   UNL     1       1.451   1.979  20.252  0.00  0.00    +0.000 A 
ATOM     16  C   UNL     1       1.436   2.466  21.551  0.00  0.00    +0.000 A 
ATOM     17  C   UNL     1       2.010   3.699  21.816  0.00  0.00    +0.000 A 
ATOM     18  C   UNL     1       2.593   4.443  20.780  0.00  0.00    +0.000 A 
ATOM     19  C   UNL     1       2.603   4.004  19.429  0.00  0.00    +0.000 A 
ENDBRANCH   5  10
BRANCH   1  20
ATOM     20  C   UNL     1       7.251   5.539  16.818  0.00  0.00    +0.000 C 
BRANCH  20  24
ATOM     21  C   UNL     1       7.677   5.077  11.900  0.00  0.00    +0.000 C 
ATOM     22  C   UNL     1       7.233   4.838  13.288  0.00  0.00    +0.000 A 
ATOM     23  N   UNL     1       7.806   5.515  14.340  0.00  0.00    +0.000 NA
ATOM     24  C   UNL     1       7.147   5.086  15.397  0.00  0.00    +0.000 A 
ATOM     25  O   UNL     1       6.194   4.142  15.117  0.00  0.00    +0.000 OA
ATOM     26  C   UNL     1       6.246   3.999  13.760  0.00  0.00    +0.000 A 
ATOM     27  C   UNL     1       5.294   3.060  13.141  0.00  0.00    +0.000 C 
ENDBRANCH  20  24
ENDBRANCH   1  20
TORSDOF 3
ENDMDL
