MODEL 1
REMARK VINA RESULT:      -9.3      0.000      0.000
REMARK  Name = 
REMARK  4 active torsions:
REMARK  status: ('A' for Active; 'I' for Inactive)
REMARK    1  A    between atoms: C_2  and  C_3
REMARK    2  A    between atoms: C_3  and  C_4
REMARK    3  A    between atoms: N_13  and  C_14
REMARK    4  A    between atoms: C_19  and  C_20
REMARK                            x       y       z     vdW  Elec       q    Type
REMARK                         _______ _______ _______ _____ _____    ______ ____
ROOT
ATOM      1  C   UNL     1       5.556   4.274  17.985  0.00  0.00    +0.000 A 
ATOM      2  C   UNL     1       5.530   4.630  19.335  0.00  0.00    +0.000 A 
ATOM      3  C   UNL     1       6.567   5.393  19.868  0.00  0.00    +0.000 A 
ATOM      4  C   UNL     1       7.633   5.789  19.060  0.00  0.00    +0.000 A 
ATOM      5  C   UNL     1       7.660   5.443  17.706  0.00  0.00    +0.000 A 
ATOM      6  C   UNL     1       6.615   4.699  17.144  0.00  0.00    +0.000 A 
ENDROOT
BRANCH   6   7
ATOM      7  C   UNL     1       6.546   4.542  15.681  0.00  0.00    +0.000 A 
ATOM      8  N   UNL     1       5.880   3.650  14.964  0.00  0.00    +0.000 NA
ATOM      9  C   UNL     1       6.273   3.851  13.652  0.00  0.00    +0.000 A 
ATOM     10  C   UNL     1       5.919   3.186  12.464  0.00  0.00    +0.000 A 
ATOM     11  C   UNL     1       6.517   3.593  11.261  0.00  0.00    +0.000 A 
ATOM     12  C   UNL     1       7.445   4.638  11.230  0.00  0.00    +0.000 A 
ATOM     13  C   UNL     1       7.801   5.316  12.393  0.00  0.00    +0.000 A 
ATOM     14  C   UNL     1       7.192   4.881  13.570  0.00  0.00    +0.000 A 
ATOM     15  N   UNL     1       7.339   5.300  14.852  0.00  0.00    +0.000 N 
ATOM     16  H   UNL     1       7.962   6.031  15.153  0.00  0.00    +0.000 HD
ENDBRANCH   6   7
BRANCH   1  19
ATOM     17  O   UNL     1       2.648   2.517  16.926  0.00  0.00    +0.000 OA
ATOM     18  C   UNL     1       3.247   3.455  17.458  0.00  0.00    +0.000 C 
ATOM     19  N   UNL     1       4.606   3.361  17.501  0.00  0.00    +0.000 N 
ATOM     20  H   UNL     1       4.958   2.592  16.934  0.00  0.00    +0.000 HD
BRANCH  18  21
ATOM     21  C   UNL     1       2.525   4.735  17.905  0.00  0.00    +0.000 C 
BRANCH  21  22
ATOM     22  C   UNL     1       1.963   4.563  19.315  0.00  0.00    +0.000 C 
ATOM     23  C   UNL     1       0.771   3.626  19.404  0.00  0.00    +0.000 C 
ATOM     24  C   UNL     1       1.208   2.318  20.069  0.00  0.00    +0.000 C 
ATOM     25  C   UNL     1       1.576   2.518  21.540  0.00  0.00    +0.000 C 
ATOM     26  C   UNL     1       2.164   3.897  21.843  0.00  0.00    +0.000 C 
ATOM     27  C   UNL     1       2.773   4.551  20.625  0.00  0.00    +0.000 C 
ATOM     28  C   UNL     1       2.125   5.794  20.156  0.00  0.00    +0.000 C 
ATOM     29  F   UNL     1       2.933   6.836  19.746  0.00  0.00    +0.000 F 
ATOM     30  F   UNL     1       1.062   6.353  20.823  0.00  0.00    +0.000 F 
ENDBRANCH  21  22
ENDBRANCH  18  21
ENDBRANCH   1  19
TORSDOF 4
ENDMDL
MODEL 2
REMARK VINA RESULT:      -8.7      3.531      7.995
REMARK  Name = 
REMARK  4 active torsions:
REMARK  status: ('A' for Active; 'I' for Inactive)
REMARK    1  A    between atoms: C_2  and  C_3
REMARK    2  A    between atoms: C_3  and  C_4
REMARK    3  A    between atoms: N_13  and  C_14
REMARK    4  A    between atoms: C_19  and  C_20
REMARK                            x       y       z     vdW  Elec       q    Type
REMARK                         _______ _______ _______ _____ _____    ______ ____
ROOT
ATOM      1  C   UNL     1       2.387   5.084  18.971  0.00  0.00    +0.000 A 
ATOM      2  C   UNL     1       2.634   3.730  18.736  0.00  0.00    +0.000 A 
ATOM      3  C   UNL     1       2.461   2.806  19.764  0.00  0.00    +0.000 A 
ATOM      4  C   UNL     1       2.055   3.234  21.029  0.00  0.00    +0.000 A 
ATOM      5  C   UNL     1       1.797   4.587  21.269  0.00  0.00    +0.000 A 
ATOM      6  C   UNL     1       1.939   5.527  20.241  0.00  0.00    +0.000 A 
ENDROOT
BRANCH   6   7
ATOM      7  C   UNL     1       1.447   6.901  20.447  0.00  0.00    +0.000 A 
ATOM      8  N   UNL     1       1.751   8.008  19.787  0.00  0.00    +0.000 NA
ATOM      9  C   UNL     1       1.130   9.038  20.472  0.00  0.00    +0.000 A 
ATOM     10  C   UNL     1       1.121  10.428  20.253  0.00  0.00    +0.000 A 
ATOM     11  C   UNL     1       0.419  11.246  21.151  0.00  0.00    +0.000 A 
ATOM     12  C   UNL     1      -0.265  10.705  22.244  0.00  0.00    +0.000 A 
ATOM     13  C   UNL     1      -0.277   9.332  22.473  0.00  0.00    +0.000 A 
ATOM     14  C   UNL     1       0.436   8.550  21.564  0.00  0.00    +0.000 A 
ATOM     15  N   UNL     1       0.645   7.210  21.520  0.00  0.00    +0.000 N 
ATOM     16  H   UNL     1       0.295   6.548  22.193  0.00  0.00    +0.000 HD
ENDBRANCH   6   7
BRANCH   1  19
ATOM     17  O   UNL     1       3.983   7.308  16.698  0.00  0.00    +0.000 OA
ATOM     18  C   UNL     1       3.956   6.520  17.648  0.00  0.00    +0.000 C 
ATOM     19  N   UNL     1       2.733   6.023  17.988  0.00  0.00    +0.000 N 
ATOM     20  H   UNL     1       2.019   6.248  17.299  0.00  0.00    +0.000 HD
BRANCH  18  21
ATOM     21  C   UNL     1       5.239   5.997  18.311  0.00  0.00    +0.000 C 
BRANCH  21  22
ATOM     22  C   UNL     1       6.062   5.187  17.311  0.00  0.00    +0.000 C 
ATOM     23  C   UNL     1       5.357   3.951  16.777  0.00  0.00    +0.000 C 
ATOM     24  C   UNL     1       4.946   4.198  15.322  0.00  0.00    +0.000 C 
ATOM     25  C   UNL     1       6.157   4.308  14.396  0.00  0.00    +0.000 C 
ATOM     26  C   UNL     1       7.394   4.902  15.072  0.00  0.00    +0.000 C 
ATOM     27  C   UNL     1       7.051   5.749  16.274  0.00  0.00    +0.000 C 
ATOM     28  C   UNL     1       7.535   5.259  17.582  0.00  0.00    +0.000 C 
ATOM     29  F   UNL     1       8.051   6.178  18.472  0.00  0.00    +0.000 F 
ATOM     30  F   UNL     1       8.301   4.124  17.690  0.00  0.00    +0.000 F 
ENDBRANCH  21  22
ENDBRANCH  18  21
ENDBRANCH   1  19
TORSDOF 4
ENDMDL
MODEL 3
REMARK VINA RESULT:      -8.4      0.286      1.131
REMARK  Name = 
REMARK  4 active torsions:
REMARK  status: ('A' for Active; 'I' for Inactive)
REMARK    1  A    between atoms: C_2  and  C_3
REMARK    2  A    between atoms: C_3  and  C_4
REMARK    3  A    between atoms: N_13  and  C_14
REMARK    4  A    between atoms: C_19  and  C_20
REMARK                            x       y       z     vdW  Elec       q    Type
REMARK                         _______ _______ _______ _____ _____    ______ ____
ROOT
ATOM      1  C   UNL     1       5.619   4.427  17.900  0.00  0.00    +0.000 A 
ATOM      2  C   UNL     1       5.466   4.802  19.236  0.00  0.00    +0.000 A 
ATOM      3  C   UNL     1       6.510   5.445  19.897  0.00  0.00    +0.000 A 
ATOM      4  C   UNL     1       7.709   5.702  19.230  0.00  0.00    +0.000 A 
ATOM      5  C   UNL     1       7.865   5.338  17.890  0.00  0.00    +0.000 A 
ATOM      6  C   UNL     1       6.818   4.714  17.200  0.00  0.00    +0.000 A 
ENDROOT
BRANCH   6   7
ATOM      7  C   UNL     1       6.916   4.547  15.739  0.00  0.00    +0.000 A 
ATOM      8  N   UNL     1       7.602   5.259  14.858  0.00  0.00    +0.000 NA
ATOM      9  C   UNL     1       7.234   4.776  13.615  0.00  0.00    +0.000 A 
ATOM     10  C   UNL     1       7.615   5.164  12.317  0.00  0.00    +0.000 A 
ATOM     11  C   UNL     1       7.038   4.504  11.221  0.00  0.00    +0.000 A 
ATOM     12  C   UNL     1       6.106   3.478  11.400  0.00  0.00    +0.000 A 
ATOM     13  C   UNL     1       5.723   3.072  12.676  0.00  0.00    +0.000 A 
ATOM     14  C   UNL     1       6.311   3.754  13.741  0.00  0.00    +0.000 A 
ATOM     15  N   UNL     1       6.136   3.626  15.081  0.00  0.00    +0.000 N 
ATOM     16  H   UNL     1       5.503   2.980  15.521  0.00  0.00    +0.000 HD
ENDBRANCH   6   7
BRANCH   1  19
ATOM     17  O   UNL     1       2.649   2.941  16.620  0.00  0.00    +0.000 OA
ATOM     18  C   UNL     1       3.282   3.775  17.275  0.00  0.00    +0.000 C 
ATOM     19  N   UNL     1       4.637   3.625  17.298  0.00  0.00    +0.000 N 
ATOM     20  H   UNL     1       4.961   2.930  16.629  0.00  0.00    +0.000 HD
BRANCH  18  21
ATOM     21  C   UNL     1       2.607   5.006  17.897  0.00  0.00    +0.000 C 
BRANCH  21  22
ATOM     22  C   UNL     1       2.002   4.651  19.254  0.00  0.00    +0.000 C 
ATOM     23  C   UNL     1       0.911   3.595  19.195  0.00  0.00    +0.000 C 
ATOM     24  C   UNL     1       1.451   2.282  19.768  0.00  0.00    +0.000 C 
ATOM     25  C   UNL     1       1.728   2.382  21.269  0.00  0.00    +0.000 C 
ATOM     26  C   UNL     1       2.155   3.780  21.722  0.00  0.00    +0.000 C 
ATOM     27  C   UNL     1       2.747   4.600  20.601  0.00  0.00    +0.000 C 
ATOM     28  C   UNL     1       1.996   5.810  20.206  0.00  0.00    +0.000 C 
ATOM     29  F   UNL     1       2.709   6.960  19.932  0.00  0.00    +0.000 F 
ATOM     30  F   UNL     1       0.851   6.196  20.858  0.00  0.00    +0.000 F 
ENDBRANCH  21  22
ENDBRANCH  18  21
ENDBRANCH   1  19
TORSDOF 4
ENDMDL
MODEL 4
REMARK VINA RESULT:      -8.3      2.631      5.309
REMARK  Name = 
REMARK  4 active torsions:
REMARK  status: ('A' for Active; 'I' for Inactive)
REMARK    1  A    between atoms: C_2  and  C_3
REMARK    2  A    between atoms: C_3  and  C_4
REMARK    3  A    between atoms: N_13  and  C_14
REMARK    4  A    between atoms: C_19  and  C_20
REMARK                            x       y       z     vdW  Elec       q    Type
REMARK                         _______ _______ _______ _____ _____    ______ ____
ROOT
ATOM      1  C   UNL     1       6.025   4.978  17.300  0.00  0.00    +0.000 A 
ATOM      2  C   UNL     1       7.010   4.378  16.514  0.00  0.00    +0.000 A 
ATOM      3  C   UNL     1       7.015   4.586  15.136  0.00  0.00    +0.000 A 
ATOM      4  C   UNL     1       6.032   5.380  14.543  0.00  0.00    +0.000 A 
ATOM      5  C   UNL     1       5.049   5.990  15.327  0.00  0.00    +0.000 A 
ATOM      6  C   UNL     1       5.042   5.816  16.716  0.00  0.00    +0.000 A 
ENDROOT
BRANCH   6   7
ATOM      7  C   UNL     1       4.146   6.644  17.542  0.00  0.00    +0.000 A 
ATOM      8  N   UNL     1       3.674   6.412  18.757  0.00  0.00    +0.000 NA
ATOM      9  C   UNL     1       2.767   7.427  19.010  0.00  0.00    +0.000 A 
ATOM     10  C   UNL     1       1.944   7.682  20.122  0.00  0.00    +0.000 A 
ATOM     11  C   UNL     1       1.081   8.788  20.081  0.00  0.00    +0.000 A 
ATOM     12  C   UNL     1       1.034   9.630  18.966  0.00  0.00    +0.000 A 
ATOM     13  C   UNL     1       1.848   9.402  17.860  0.00  0.00    +0.000 A 
ATOM     14  C   UNL     1       2.687   8.290  17.933  0.00  0.00    +0.000 A 
ATOM     15  N   UNL     1       3.565   7.781  17.032  0.00  0.00    +0.000 N 
ATOM     16  H   UNL     1       3.737   8.160  16.115  0.00  0.00    +0.000 HD
ENDBRANCH   6   7
BRANCH   1  19
ATOM     17  O   UNL     1       5.246   3.568  20.474  0.00  0.00    +0.000 OA
ATOM     18  C   UNL     1       5.091   3.726  19.259  0.00  0.00    +0.000 C 
ATOM     19  N   UNL     1       5.920   4.623  18.654  0.00  0.00    +0.000 N 
ATOM     20  H   UNL     1       6.675   4.926  19.266  0.00  0.00    +0.000 HD
BRANCH  18  21
ATOM     21  C   UNL     1       4.133   2.850  18.438  0.00  0.00    +0.000 C 
BRANCH  21  22
ATOM     22  C   UNL     1       2.753   2.817  19.091  0.00  0.00    +0.000 C 
ATOM     23  C   UNL     1       2.544   1.662  20.056  0.00  0.00    +0.000 C 
ATOM     24  C   UNL     1       2.545   2.199  21.490  0.00  0.00    +0.000 C 
ATOM     25  C   UNL     1       1.330   3.083  21.772  0.00  0.00    +0.000 C 
ATOM     26  C   UNL     1       0.833   3.852  20.546  0.00  0.00    +0.000 C 
ATOM     27  C   UNL     1       1.907   4.037  19.501  0.00  0.00    +0.000 C 
ATOM     28  C   UNL     1       1.679   3.369  18.202  0.00  0.00    +0.000 C 
ATOM     29  F   UNL     1       1.995   4.060  17.049  0.00  0.00    +0.000 F 
ATOM     30  F   UNL     1       0.529   2.665  17.942  0.00  0.00    +0.000 F 
ENDBRANCH  21  22
ENDBRANCH  18  21
ENDBRANCH   1  19
TORSDOF 4
ENDMDL
MODEL 5
REMARK VINA RESULT:      -8.2      3.476      7.780
REMARK  Name = 
REMARK  4 active torsions:
REMARK  status: ('A' for Active; 'I' for Inactive)
REMARK    1  A    between atoms: C_2  and  C_3
REMARK    2  A    between atoms: C_3  and  C_4
REMARK    3  A    between atoms: N_13  and  C_14
REMARK    4  A    between atoms: C_19  and  C_20
REMARK                            x       y       z     vdW  Elec       q    Type
REMARK                         _______ _______ _______ _____ _____    ______ ____
ROOT
ATOM      1  C   UNL     1       2.230   5.084  18.717  0.00  0.00    +0.000 A 
ATOM      2  C   UNL     1       2.261   3.738  18.350  0.00  0.00    +0.000 A 
ATOM      3  C   UNL     1       1.937   2.759  19.287  0.00  0.00    +0.000 A 
ATOM      4  C   UNL     1       1.596   3.122  20.591  0.00  0.00    +0.000 A 
ATOM      5  C   UNL     1       1.555   4.469  20.961  0.00  0.00    +0.000 A 
ATOM      6  C   UNL     1       1.851   5.469  20.027  0.00  0.00    +0.000 A 
ENDROOT
BRANCH   6   7
ATOM      7  C   UNL     1       1.581   6.877  20.369  0.00  0.00    +0.000 A 
ATOM      8  N   UNL     1       1.126   7.393  21.501  0.00  0.00    +0.000 NA
ATOM      9  C   UNL     1       0.915   8.736  21.245  0.00  0.00    +0.000 A 
ATOM     10  C   UNL     1       0.418   9.771  22.059  0.00  0.00    +0.000 A 
ATOM     11  C   UNL     1       0.277  11.053  21.507  0.00  0.00    +0.000 A 
ATOM     12  C   UNL     1       0.624  11.313  20.178  0.00  0.00    +0.000 A 
ATOM     13  C   UNL     1       1.128  10.306  19.359  0.00  0.00    +0.000 A 
ATOM     14  C   UNL     1       1.248   9.043  19.939  0.00  0.00    +0.000 A 
ATOM     15  N   UNL     1       1.668   7.864  19.416  0.00  0.00    +0.000 N 
ATOM     16  H   UNL     1       1.964   7.727  18.464  0.00  0.00    +0.000 HD
ENDBRANCH   6   7
BRANCH   1  19
ATOM     17  O   UNL     1       4.174   7.293  16.715  0.00  0.00    +0.000 OA
ATOM     18  C   UNL     1       4.009   6.455  17.606  0.00  0.00    +0.000 C 
ATOM     19  N   UNL     1       2.727   6.048  17.825  0.00  0.00    +0.000 N 
ATOM     20  H   UNL     1       2.088   6.375  17.103  0.00  0.00    +0.000 HD
BRANCH  18  21
ATOM     21  C   UNL     1       5.190   5.782  18.322  0.00  0.00    +0.000 C 
BRANCH  21  22
ATOM     22  C   UNL     1       6.071   5.044  17.315  0.00  0.00    +0.000 C 
ATOM     23  C   UNL     1       5.426   3.809  16.708  0.00  0.00    +0.000 C 
ATOM     24  C   UNL     1       5.051   4.102  15.253  0.00  0.00    +0.000 C 
ATOM     25  C   UNL     1       6.285   4.294  14.370  0.00  0.00    +0.000 C 
ATOM     26  C   UNL     1       7.479   4.901  15.109  0.00  0.00    +0.000 C 
ATOM     27  C   UNL     1       7.069   5.684  16.334  0.00  0.00    +0.000 C 
ATOM     28  C   UNL     1       7.532   5.155  17.634  0.00  0.00    +0.000 C 
ATOM     29  F   UNL     1       7.988   6.053  18.578  0.00  0.00    +0.000 F 
ATOM     30  F   UNL     1       8.334   4.044  17.720  0.00  0.00    +0.000 F 
ENDBRANCH  21  22
ENDBRANCH  18  21
ENDBRANCH   1  19
TORSDOF 4
ENDMDL
MODEL 6
REMARK VINA RESULT:      -8.2      3.054      7.315
REMARK  Name = 
REMARK  4 active torsions:
REMARK  status: ('A' for Active; 'I' for Inactive)
REMARK    1  A    between atoms: C_2  and  C_3
REMARK    2  A    between atoms: C_3  and  C_4
REMARK    3  A    between atoms: N_13  and  C_14
REMARK    4  A    between atoms: C_19  and  C_20
REMARK                            x       y       z     vdW  Elec       q    Type
REMARK                         _______ _______ _______ _____ _____    ______ ____
ROOT
ATOM      1  C   UNL     1       3.433   3.757  19.307  0.00  0.00    +0.000 A 
ATOM      2  C   UNL     1       3.566   2.456  18.819  0.00  0.00    +0.000 A 
ATOM      3  C   UNL     1       2.429   1.719  18.495  0.00  0.00    +0.000 A 
ATOM      4  C   UNL     1       1.161   2.274  18.671  0.00  0.00    +0.000 A 
ATOM      5  C   UNL     1       1.021   3.579  19.151  0.00  0.00    +0.000 A 
ATOM      6  C   UNL     1       2.152   4.346  19.457  0.00  0.00    +0.000 A 
ENDROOT
BRANCH   6   7
ATOM      7  C   UNL     1       1.994   5.784  19.740  0.00  0.00    +0.000 A 
ATOM      8  N   UNL     1       1.664   6.383  20.874  0.00  0.00    +0.000 NA
ATOM      9  C   UNL     1       1.512   7.723  20.562  0.00  0.00    +0.000 A 
ATOM     10  C   UNL     1       1.144   8.826  21.354  0.00  0.00    +0.000 A 
ATOM     11  C   UNL     1       1.033  10.085  20.745  0.00  0.00    +0.000 A 
ATOM     12  C   UNL     1       1.285  10.255  19.380  0.00  0.00    +0.000 A 
ATOM     13  C   UNL     1       1.661   9.179  18.581  0.00  0.00    +0.000 A 
ATOM     14  C   UNL     1       1.754   7.942  19.218  0.00  0.00    +0.000 A 
ATOM     15  N   UNL     1       2.060   6.713  18.730  0.00  0.00    +0.000 N 
ATOM     16  H   UNL     1       2.269   6.510  17.766  0.00  0.00    +0.000 HD
ENDBRANCH   6   7
BRANCH   1  19
ATOM     17  O   UNL     1       6.300   5.792  19.861  0.00  0.00    +0.000 OA
ATOM     18  C   UNL     1       5.394   5.311  19.174  0.00  0.00    +0.000 C 
ATOM     19  N   UNL     1       4.567   4.424  19.796  0.00  0.00    +0.000 N 
ATOM     20  H   UNL     1       4.713   4.400  20.803  0.00  0.00    +0.000 HD
BRANCH  18  21
ATOM     21  C   UNL     1       5.106   5.799  17.746  0.00  0.00    +0.000 C 
BRANCH  21  22
ATOM     22  C   UNL     1       5.958   5.028  16.740  0.00  0.00    +0.000 C 
ATOM     23  C   UNL     1       5.341   3.722  16.267  0.00  0.00    +0.000 C 
ATOM     24  C   UNL     1       4.861   3.888  14.822  0.00  0.00    +0.000 C 
ATOM     25  C   UNL     1       6.027   4.069  13.849  0.00  0.00    +0.000 C 
ATOM     26  C   UNL     1       7.233   4.784  14.462  0.00  0.00    +0.000 C 
ATOM     27  C   UNL     1       6.861   5.637  15.652  0.00  0.00    +0.000 C 
ATOM     28  C   UNL     1       7.429   5.229  16.954  0.00  0.00    +0.000 C 
ATOM     29  F   UNL     1       7.897   6.215  17.799  0.00  0.00    +0.000 F 
ATOM     30  F   UNL     1       8.290   4.165  17.066  0.00  0.00    +0.000 F 
ENDBRANCH  21  22
ENDBRANCH  18  21
ENDBRANCH   1  19
TORSDOF 4
ENDMDL
MODEL 7
REMARK VINA RESULT:      -8.1      2.710      6.672
REMARK  Name = 
REMARK  4 active torsions:
REMARK  status: ('A' for Active; 'I' for Inactive)
REMARK    1  A    between atoms: C_2  and  C_3
REMARK    2  A    between atoms: C_3  and  C_4
REMARK    3  A    between atoms: N_13  and  C_14
REMARK    4  A    between atoms: C_19  and  C_20
REMARK                            x       y       z     vdW  Elec       q    Type
REMARK                         _______ _______ _______ _____ _____    ______ ____
ROOT
ATOM      1  C   UNL     1       1.733   3.525  19.515  0.00  0.00    +0.000 A 
ATOM      2  C   UNL     1       1.656   2.268  20.116  0.00  0.00    +0.000 A 
ATOM      3  C   UNL     1       1.911   2.138  21.480  0.00  0.00    +0.000 A 
ATOM      4  C   UNL     1       2.256   3.257  22.239  0.00  0.00    +0.000 A 
ATOM      5  C   UNL     1       2.326   4.520  21.644  0.00  0.00    +0.000 A 
ATOM      6  C   UNL     1       2.047   4.676  20.280  0.00  0.00    +0.000 A 
ENDROOT
BRANCH   6   7
ATOM      7  C   UNL     1       1.903   6.034  19.725  0.00  0.00    +0.000 A 
ATOM      8  N   UNL     1       2.340   6.518  18.573  0.00  0.00    +0.000 NA
ATOM      9  C   UNL     1       2.069   7.875  18.607  0.00  0.00    +0.000 A 
ATOM     10  C   UNL     1       2.330   8.899  17.679  0.00  0.00    +0.000 A 
ATOM     11  C   UNL     1       1.967  10.214  18.007  0.00  0.00    +0.000 A 
ATOM     12  C   UNL     1       1.353  10.514  19.226  0.00  0.00    +0.000 A 
ATOM     13  C   UNL     1       1.075   9.514  20.154  0.00  0.00    +0.000 A 
ATOM     14  C   UNL     1       1.456   8.221  19.797  0.00  0.00    +0.000 A 
ATOM     15  N   UNL     1       1.358   7.049  20.475  0.00  0.00    +0.000 N 
ATOM     16  H   UNL     1       0.977   6.947  21.400  0.00  0.00    +0.000 HD
ENDBRANCH   6   7
BRANCH   1  19
ATOM     17  O   UNL     1       2.251   3.517  15.993  0.00  0.00    +0.000 OA
ATOM     18  C   UNL     1       2.610   3.415  17.170  0.00  0.00    +0.000 C 
ATOM     19  N   UNL     1       1.651   3.621  18.117  0.00  0.00    +0.000 N 
ATOM     20  H   UNL     1       0.717   3.673  17.716  0.00  0.00    +0.000 HD
BRANCH  18  21
ATOM     21  C   UNL     1       4.014   2.925  17.555  0.00  0.00    +0.000 C 
BRANCH  21  22
ATOM     22  C   UNL     1       5.061   3.979  17.198  0.00  0.00    +0.000 C 
ATOM     23  C   UNL     1       5.793   3.717  15.892  0.00  0.00    +0.000 C 
ATOM     24  C   UNL     1       5.307   4.711  14.835  0.00  0.00    +0.000 C 
ATOM     25  C   UNL     1       5.725   6.145  15.161  0.00  0.00    +0.000 C 
ATOM     26  C   UNL     1       5.815   6.432  16.661  0.00  0.00    +0.000 C 
ATOM     27  C   UNL     1       4.971   5.489  17.486  0.00  0.00    +0.000 C 
ATOM     28  C   UNL     1       5.700   4.593  18.407  0.00  0.00    +0.000 C 
ATOM     29  F   UNL     1       5.177   4.389  19.669  0.00  0.00    +0.000 F 
ATOM     30  F   UNL     1       7.065   4.652  18.546  0.00  0.00    +0.000 F 
ENDBRANCH  21  22
ENDBRANCH  18  21
ENDBRANCH   1  19
TORSDOF 4
ENDMDL
MODEL 8
REMARK VINA RESULT:      -8.0      3.033      7.207
REMARK  Name = 
REMARK  4 active torsions:
REMARK  status: ('A' for Active; 'I' for Inactive)
REMARK    1  A    between atoms: C_2  and  C_3
REMARK    2  A    between atoms: C_3  and  C_4
REMARK    3  A    between atoms: N_13  and  C_14
REMARK    4  A    between atoms: C_19  and  C_20
REMARK                            x       y       z     vdW  Elec       q    Type
REMARK                         _______ _______ _______ _____ _____    ______ ____
ROOT
ATOM      1  C   UNL     1       3.258   4.383  20.056  0.00  0.00    +0.000 A 
ATOM      2  C   UNL     1       3.321   2.991  19.977  0.00  0.00    +0.000 A 
ATOM      3  C   UNL     1       2.150   2.241  20.072  0.00  0.00    +0.000 A 
ATOM      4  C   UNL     1       0.922   2.878  20.258  0.00  0.00    +0.000 A 
ATOM      5  C   UNL     1       0.853   4.272  20.329  0.00  0.00    +0.000 A 
ATOM      6  C   UNL     1       2.014   5.045  20.208  0.00  0.00    +0.000 A 
ENDROOT
BRANCH   6   7
ATOM      7  C   UNL     1       1.895   6.506  20.056  0.00  0.00    +0.000 A 
ATOM      8  N   UNL     1       1.383   7.397  20.891  0.00  0.00    +0.000 NA
ATOM      9  C   UNL     1       1.383   8.600  20.206  0.00  0.00    +0.000 A 
ATOM     10  C   UNL     1       0.935   9.881  20.578  0.00  0.00    +0.000 A 
ATOM     11  C   UNL     1       1.030  10.924  19.644  0.00  0.00    +0.000 A 
ATOM     12  C   UNL     1       1.562  10.710  18.369  0.00  0.00    +0.000 A 
ATOM     13  C   UNL     1       2.021   9.453  17.985  0.00  0.00    +0.000 A 
ATOM     14  C   UNL     1       1.904   8.438  18.936  0.00  0.00    +0.000 A 
ATOM     15  N   UNL     1       2.223   7.121  18.871  0.00  0.00    +0.000 N 
ATOM     16  H   UNL     1       2.608   6.659  18.064  0.00  0.00    +0.000 HD
ENDBRANCH   6   7
BRANCH   1  19
ATOM     17  O   UNL     1       6.487   5.826  19.654  0.00  0.00    +0.000 OA
ATOM     18  C   UNL     1       5.595   5.010  19.404  0.00  0.00    +0.000 C 
ATOM     19  N   UNL     1       4.452   5.118  20.138  0.00  0.00    +0.000 N 
ATOM     20  H   UNL     1       4.426   5.972  20.691  0.00  0.00    +0.000 HD
BRANCH  18  21
ATOM     21  C   UNL     1       5.694   4.029  18.225  0.00  0.00    +0.000 C 
BRANCH  21  22
ATOM     22  C   UNL     1       5.700   4.790  16.901  0.00  0.00    +0.000 C 
ATOM     23  C   UNL     1       6.993   5.536  16.613  0.00  0.00    +0.000 C 
ATOM     24  C   UNL     1       7.757   4.806  15.505  0.00  0.00    +0.000 C 
ATOM     25  C   UNL     1       7.030   4.883  14.162  0.00  0.00    +0.000 C 
ATOM     26  C   UNL     1       5.507   4.935  14.290  0.00  0.00    +0.000 C 
ATOM     27  C   UNL     1       5.012   4.354  15.594  0.00  0.00    +0.000 C 
ATOM     28  C   UNL     1       4.340   5.294  16.516  0.00  0.00    +0.000 C 
ATOM     29  F   UNL     1       3.209   4.861  17.177  0.00  0.00    +0.000 F 
ATOM     30  F   UNL     1       4.130   6.609  16.183  0.00  0.00    +0.000 F 
ENDBRANCH  21  22
ENDBRANCH  18  21
ENDBRANCH   1  19
TORSDOF 4
ENDMDL
MODEL 9
REMARK VINA RESULT:      -8.0      3.099      5.816
REMARK  Name = 
REMARK  4 active torsions:
REMARK  status: ('A' for Active; 'I' for Inactive)
REMARK    1  A    between atoms: C_2  and  C_3
REMARK    2  A    between atoms: C_3  and  C_4
REMARK    3  A    between atoms: N_13  and  C_14
REMARK    4  A    between atoms: C_19  and  C_20
REMARK                            x       y       z     vdW  Elec       q    Type
REMARK                         _______ _______ _______ _____ _____    ______ ____
ROOT
ATOM      1  C   UNL     1       4.004   5.151  17.371  0.00  0.00    +0.000 A 
ATOM      2  C   UNL     1       5.065   4.251  17.253  0.00  0.00    +0.000 A 
ATOM      3  C   UNL     1       6.371   4.694  17.450  0.00  0.00    +0.000 A 
ATOM      4  C   UNL     1       6.619   6.034  17.752  0.00  0.00    +0.000 A 
ATOM      5  C   UNL     1       5.560   6.937  17.880  0.00  0.00    +0.000 A 
ATOM      6  C   UNL     1       4.238   6.506  17.712  0.00  0.00    +0.000 A 
ENDROOT
BRANCH   6   7
ATOM      7  C   UNL     1       3.133   7.412  18.074  0.00  0.00    +0.000 A 
ATOM      8  N   UNL     1       2.558   8.362  17.352  0.00  0.00    +0.000 NA
ATOM      9  C   UNL     1       1.681   9.006  18.208  0.00  0.00    +0.000 A 
ATOM     10  C   UNL     1       0.823  10.103  18.007  0.00  0.00    +0.000 A 
ATOM     11  C   UNL     1       0.063  10.570  19.090  0.00  0.00    +0.000 A 
ATOM     12  C   UNL     1       0.142   9.964  20.347  0.00  0.00    +0.000 A 
ATOM     13  C   UNL     1       0.976   8.870  20.565  0.00  0.00    +0.000 A 
ATOM     14  C   UNL     1       1.722   8.438  19.468  0.00  0.00    +0.000 A 
ATOM     15  N   UNL     1       2.633   7.438  19.354  0.00  0.00    +0.000 N 
ATOM     16  H   UNL     1       2.924   6.833  20.104  0.00  0.00    +0.000 HD
ENDBRANCH   6   7
BRANCH   1  19
ATOM     17  O   UNL     1       0.615   4.080  17.181  0.00  0.00    +0.000 OA
ATOM     18  C   UNL     1       1.666   4.342  17.772  0.00  0.00    +0.000 C 
ATOM     19  N   UNL     1       2.714   4.740  16.997  0.00  0.00    +0.000 N 
ATOM     20  H   UNL     1       2.436   4.925  16.036  0.00  0.00    +0.000 HD
BRANCH  18  21
ATOM     21  C   UNL     1       1.753   4.378  19.306  0.00  0.00    +0.000 C 
BRANCH  21  22
ATOM     22  C   UNL     1       2.426   3.110  19.829  0.00  0.00    +0.000 C 
ATOM     23  C   UNL     1       2.137   1.864  19.009  0.00  0.00    +0.000 C 
ATOM     24  C   UNL     1       3.392   1.481  18.219  0.00  0.00    +0.000 C 
ATOM     25  C   UNL     1       4.524   1.014  19.135  0.00  0.00    +0.000 C 
ATOM     26  C   UNL     1       4.522   1.690  20.507  0.00  0.00    +0.000 C 
ATOM     27  C   UNL     1       3.809   3.021  20.499  0.00  0.00    +0.000 C 
ATOM     28  C   UNL     1       2.583   3.113  21.320  0.00  0.00    +0.000 C 
ATOM     29  F   UNL     1       2.376   4.262  22.056  0.00  0.00    +0.000 F 
ATOM     30  F   UNL     1       2.147   2.062  22.090  0.00  0.00    +0.000 F 
ENDBRANCH  21  22
ENDBRANCH  18  21
ENDBRANCH   1  19
TORSDOF 4
ENDMDL
