MODEL 1
REMARK VINA RESULT:      -8.8      0.000      0.000
REMARK  Name = 
REMARK  4 active torsions:
REMARK  status: ('A' for Active; 'I' for Inactive)
REMARK    1  A    between atoms: S_2  and  N_4
REMARK    2  A    between atoms: S_2  and  C_16
REMARK    3  A    between atoms: N_4  and  C_5
REMARK    4  A    between atoms: C_10  and  C_11
REMARK                            x       y       z     vdW  Elec       q    Type
REMARK                         _______ _______ _______ _____ _____    ______ ____
ROOT
ATOM      1  N   UNL     1       2.688   4.141  17.777  0.00  0.00    +0.000 N 
ATOM      2  H   UNL     1       1.848   3.558  17.827  0.00  0.00    +0.000 HD
ENDROOT
BRANCH   1   3
ATOM      3  C   UNL     1       2.548   5.398  18.459  0.00  0.00    +0.000 A 
ATOM      4  C   UNL     1       2.824   6.560  17.723  0.00  0.00    +0.000 A 
ATOM      5  C   UNL     1       2.596   7.824  18.274  0.00  0.00    +0.000 A 
ATOM      6  C   UNL     1       2.089   7.938  19.564  0.00  0.00    +0.000 A 
ATOM      7  C   UNL     1       1.841   6.787  20.315  0.00  0.00    +0.000 A 
ATOM      8  C   UNL     1       2.090   5.503  19.792  0.00  0.00    +0.000 A 
BRANCH   8   9
ATOM      9  C   UNL     1       1.819   4.360  20.668  0.00  0.00    +0.000 A 
ATOM     10  N   UNL     1       2.477   4.042  21.770  0.00  0.00    +0.000 NA
ATOM     11  N   UNL     1       1.939   2.884  22.287  0.00  0.00    +0.000 NA
ATOM     12  C   UNL     1       0.980   2.503  21.480  0.00  0.00    +0.000 A 
ATOM     13  N   UNL     1       0.884   3.380  20.447  0.00  0.00    +0.000 N 
ATOM     14  H   UNL     1       0.241   3.307  19.671  0.00  0.00    +0.000 HD
ENDBRANCH   8   9
ENDBRANCH   1   3
BRANCH   1  16
ATOM     15  O   UNL     1       4.435   3.263  19.444  0.00  0.00    +0.000 OA
ATOM     16  S   UNL     1       4.095   3.223  18.058  0.00  0.00    +0.000 S 
ATOM     17  O   UNL     1       3.793   1.937  17.445  0.00  0.00    +0.000 OA
BRANCH  16  18
ATOM     18  C   UNL     1       5.281   4.065  17.042  0.00  0.00    +0.000 A 
ATOM     19  C   UNL     1       5.182   3.863  15.652  0.00  0.00    +0.000 A 
ATOM     20  C   UNL     1       5.897   4.665  14.776  0.00  0.00    +0.000 A 
ATOM     21  C   UNL     1       6.573   5.770  15.279  0.00  0.00    +0.000 A 
ATOM     22  C   UNL     1       6.699   5.954  16.671  0.00  0.00    +0.000 A 
ATOM     23  C   UNL     1       7.374   7.085  17.142  0.00  0.00    +0.000 A 
ATOM     24  C   UNL     1       7.999   7.045  18.380  0.00  0.00    +0.000 A 
ATOM     25  C   UNL     1       7.723   5.996  19.241  0.00  0.00    +0.000 A 
ATOM     26  C   UNL     1       6.744   5.050  18.889  0.00  0.00    +0.000 A 
ATOM     27  C   UNL     1       6.212   5.000  17.571  0.00  0.00    +0.000 A 
ENDBRANCH  16  18
ENDBRANCH   1  16
TORSDOF 4
ENDMDL
MODEL 2
REMARK VINA RESULT:      -8.5      2.712      5.765
REMARK  Name = 
REMARK  4 active torsions:
REMARK  status: ('A' for Active; 'I' for Inactive)
REMARK    1  A    between atoms: S_2  and  N_4
REMARK    2  A    between atoms: S_2  and  C_16
REMARK    3  A    between atoms: N_4  and  C_5
REMARK    4  A    between atoms: C_10  and  C_11
REMARK                            x       y       z     vdW  Elec       q    Type
REMARK                         _______ _______ _______ _____ _____    ______ ____
ROOT
ATOM      1  N   UNL     1       4.154   6.262  18.686  0.00  0.00    +0.000 N 
ATOM      2  H   UNL     1       4.704   5.959  19.494  0.00  0.00    +0.000 HD
ENDROOT
BRANCH   1   3
ATOM      3  C   UNL     1       4.610   5.699  17.444  0.00  0.00    +0.000 A 
ATOM      4  C   UNL     1       4.850   6.590  16.388  0.00  0.00    +0.000 A 
ATOM      5  C   UNL     1       5.409   6.139  15.189  0.00  0.00    +0.000 A 
ATOM      6  C   UNL     1       5.734   4.796  15.036  0.00  0.00    +0.000 A 
ATOM      7  C   UNL     1       5.468   3.896  16.071  0.00  0.00    +0.000 A 
ATOM      8  C   UNL     1       4.878   4.322  17.278  0.00  0.00    +0.000 A 
BRANCH   8   9
ATOM      9  C   UNL     1       4.619   3.297  18.292  0.00  0.00    +0.000 A 
ATOM     10  N   UNL     1       5.066   3.293  19.536  0.00  0.00    +0.000 NA
ATOM     11  N   UNL     1       4.631   2.143  20.158  0.00  0.00    +0.000 NA
ATOM     12  C   UNL     1       3.947   1.456  19.277  0.00  0.00    +0.000 A 
ATOM     13  N   UNL     1       3.931   2.125  18.095  0.00  0.00    +0.000 N 
ATOM     14  H   UNL     1       3.494   1.805  17.243  0.00  0.00    +0.000 HD
ENDBRANCH   8   9
ENDBRANCH   1   3
BRANCH   1  16
ATOM     15  O   UNL     1       1.796   5.505  18.001  0.00  0.00    +0.000 OA
ATOM     16  S   UNL     1       2.485   6.222  19.025  0.00  0.00    +0.000 S 
ATOM     17  O   UNL     1       2.425   5.726  20.393  0.00  0.00    +0.000 OA
BRANCH  16  18
ATOM     18  C   UNL     1       2.081   7.950  19.036  0.00  0.00    +0.000 A 
ATOM     19  C   UNL     1       2.407   8.684  17.879  0.00  0.00    +0.000 A 
ATOM     20  C   UNL     1       1.908   9.966  17.701  0.00  0.00    +0.000 A 
ATOM     21  C   UNL     1       0.955  10.445  18.593  0.00  0.00    +0.000 A 
ATOM     22  C   UNL     1       0.653   9.723  19.766  0.00  0.00    +0.000 A 
ATOM     23  C   UNL     1      -0.321  10.228  20.633  0.00  0.00    +0.000 A 
ATOM     24  C   UNL     1      -0.267   9.913  21.983  0.00  0.00    +0.000 A 
ATOM     25  C   UNL     1       0.578   8.902  22.407  0.00  0.00    +0.000 A 
ATOM     26  C   UNL     1       1.287   8.147  21.455  0.00  0.00    +0.000 A 
ATOM     27  C   UNL     1       1.352   8.556  20.094  0.00  0.00    +0.000 A 
ENDBRANCH  16  18
ENDBRANCH   1  16
TORSDOF 4
ENDMDL
MODEL 3
REMARK VINA RESULT:      -8.4      2.258      6.126
REMARK  Name = 
REMARK  4 active torsions:
REMARK  status: ('A' for Active; 'I' for Inactive)
REMARK    1  A    between atoms: S_2  and  N_4
REMARK    2  A    between atoms: S_2  and  C_16
REMARK    3  A    between atoms: N_4  and  C_5
REMARK    4  A    between atoms: C_10  and  C_11
REMARK                            x       y       z     vdW  Elec       q    Type
REMARK                         _______ _______ _______ _____ _____    ______ ____
ROOT
ATOM      1  N   UNL     1       4.416   4.711  16.687  0.00  0.00    +0.000 N 
ATOM      2  H   UNL     1       4.405   5.640  17.116  0.00  0.00    +0.000 HD
ENDROOT
BRANCH   1   3
ATOM      3  C   UNL     1       5.382   4.583  15.630  0.00  0.00    +0.000 A 
ATOM      4  C   UNL     1       5.005   3.834  14.505  0.00  0.00    +0.000 A 
ATOM      5  C   UNL     1       5.838   3.763  13.385  0.00  0.00    +0.000 A 
ATOM      6  C   UNL     1       7.052   4.441  13.378  0.00  0.00    +0.000 A 
ATOM      7  C   UNL     1       7.449   5.163  14.505  0.00  0.00    +0.000 A 
ATOM      8  C   UNL     1       6.640   5.226  15.657  0.00  0.00    +0.000 A 
BRANCH   8   9
ATOM      9  C   UNL     1       7.157   5.991  16.795  0.00  0.00    +0.000 A 
ATOM     10  N   UNL     1       7.361   7.296  16.837  0.00  0.00    +0.000 NA
ATOM     11  N   UNL     1       7.884   7.623  18.068  0.00  0.00    +0.000 NA
ATOM     12  C   UNL     1       8.013   6.510  18.747  0.00  0.00    +0.000 A 
ATOM     13  N   UNL     1       7.593   5.465  17.987  0.00  0.00    +0.000 N 
ATOM     14  H   UNL     1       7.609   4.493  18.261  0.00  0.00    +0.000 HD
ENDBRANCH   8   9
ENDBRANCH   1   3
BRANCH   1  16
ATOM     15  O   UNL     1       4.258   2.207  17.238  0.00  0.00    +0.000 OA
ATOM     16  S   UNL     1       4.346   3.485  17.867  0.00  0.00    +0.000 S 
ATOM     17  O   UNL     1       5.488   3.770  18.725  0.00  0.00    +0.000 OA
BRANCH  16  18
ATOM     18  C   UNL     1       2.864   3.915  18.743  0.00  0.00    +0.000 A 
ATOM     19  C   UNL     1       2.071   2.849  19.210  0.00  0.00    +0.000 A 
ATOM     20  C   UNL     1       1.042   3.084  20.108  0.00  0.00    +0.000 A 
ATOM     21  C   UNL     1       0.914   4.352  20.665  0.00  0.00    +0.000 A 
ATOM     22  C   UNL     1       1.686   5.425  20.175  0.00  0.00    +0.000 A 
ATOM     23  C   UNL     1       1.542   6.683  20.768  0.00  0.00    +0.000 A 
ATOM     24  C   UNL     1       1.808   7.825  20.027  0.00  0.00    +0.000 A 
ATOM     25  C   UNL     1       2.462   7.705  18.813  0.00  0.00    +0.000 A 
ATOM     26  C   UNL     1       2.934   6.445  18.403  0.00  0.00    +0.000 A 
ATOM     27  C   UNL     1       2.538   5.257  19.077  0.00  0.00    +0.000 A 
ENDBRANCH  16  18
ENDBRANCH   1  16
TORSDOF 4
ENDMDL
MODEL 4
REMARK VINA RESULT:      -8.2      5.412      7.307
REMARK  Name = 
REMARK  4 active torsions:
REMARK  status: ('A' for Active; 'I' for Inactive)
REMARK    1  A    between atoms: S_2  and  N_4
REMARK    2  A    between atoms: S_2  and  C_16
REMARK    3  A    between atoms: N_4  and  C_5
REMARK    4  A    between atoms: C_10  and  C_11
REMARK                            x       y       z     vdW  Elec       q    Type
REMARK                         _______ _______ _______ _____ _____    ______ ____
ROOT
ATOM      1  N   UNL     1       0.487  10.738  20.580  0.00  0.00    +0.000 N 
ATOM      2  H   UNL     1       0.557  10.712  19.559  0.00  0.00    +0.000 HD
ENDROOT
BRANCH   1   3
ATOM      3  C   UNL     1      -0.644  11.487  21.055  0.00  0.00    +0.000 A 
ATOM      4  C   UNL     1      -0.586  11.969  22.371  0.00  0.00    +0.000 A 
ATOM      5  C   UNL     1      -1.589  12.806  22.867  0.00  0.00    +0.000 A 
ATOM      6  C   UNL     1      -2.657  13.169  22.054  0.00  0.00    +0.000 A 
ATOM      7  C   UNL     1      -2.739  12.667  20.753  0.00  0.00    +0.000 A 
ATOM      8  C   UNL     1      -1.755  11.799  20.239  0.00  0.00    +0.000 A 
BRANCH   8   9
ATOM      9  C   UNL     1      -1.945  11.309  18.872  0.00  0.00    +0.000 A 
ATOM     10  N   UNL     1      -1.658  10.099  18.424  0.00  0.00    +0.000 NA
ATOM     11  N   UNL     1      -1.949  10.045  17.079  0.00  0.00    +0.000 NA
ATOM     12  C   UNL     1      -2.386  11.229  16.724  0.00  0.00    +0.000 A 
ATOM     13  N   UNL     1      -2.380  12.054  17.803  0.00  0.00    +0.000 N 
ATOM     14  H   UNL     1      -2.646  13.029  17.800  0.00  0.00    +0.000 HD
ENDBRANCH   8   9
ENDBRANCH   1   3
BRANCH   1  16
ATOM     15  O   UNL     1       1.683   9.322  22.358  0.00  0.00    +0.000 OA
ATOM     16  S   UNL     1       0.782   9.204  21.258  0.00  0.00    +0.000 S 
ATOM     17  O   UNL     1      -0.553   8.673  21.496  0.00  0.00    +0.000 OA
BRANCH  16  18
ATOM     18  C   UNL     1       1.495   8.336  19.885  0.00  0.00    +0.000 A 
ATOM     19  C   UNL     1       1.677   9.070  18.697  0.00  0.00    +0.000 A 
ATOM     20  C   UNL     1       2.446   8.552  17.666  0.00  0.00    +0.000 A 
ATOM     21  C   UNL     1       3.166   7.383  17.888  0.00  0.00    +0.000 A 
ATOM     22  C   UNL     1       2.958   6.633  19.063  0.00  0.00    +0.000 A 
ATOM     23  C   UNL     1       3.710   5.470  19.260  0.00  0.00    +0.000 A 
ATOM     24  C   UNL     1       3.196   4.446  20.042  0.00  0.00    +0.000 A 
ATOM     25  C   UNL     1       2.083   4.690  20.828  0.00  0.00    +0.000 A 
ATOM     26  C   UNL     1       1.556   5.992  20.897  0.00  0.00    +0.000 A 
ATOM     27  C   UNL     1       1.980   7.005  19.992  0.00  0.00    +0.000 A 
ENDBRANCH  16  18
ENDBRANCH   1  16
TORSDOF 4
ENDMDL
MODEL 5
REMARK VINA RESULT:      -8.2      2.603      5.790
REMARK  Name = 
REMARK  4 active torsions:
REMARK  status: ('A' for Active; 'I' for Inactive)
REMARK    1  A    between atoms: S_2  and  N_4
REMARK    2  A    between atoms: S_2  and  C_16
REMARK    3  A    between atoms: N_4  and  C_5
REMARK    4  A    between atoms: C_10  and  C_11
REMARK                            x       y       z     vdW  Elec       q    Type
REMARK                         _______ _______ _______ _____ _____    ______ ____
ROOT
ATOM      1  N   UNL     1       3.275   6.032  17.629  0.00  0.00    +0.000 N 
ATOM      2  H   UNL     1       2.927   6.723  16.960  0.00  0.00    +0.000 HD
ENDROOT
BRANCH   1   3
ATOM      3  C   UNL     1       4.698   5.840  17.561  0.00  0.00    +0.000 A 
ATOM      4  C   UNL     1       5.479   6.956  17.222  0.00  0.00    +0.000 A 
ATOM      5  C   UNL     1       6.874   6.884  17.252  0.00  0.00    +0.000 A 
ATOM      6  C   UNL     1       7.501   5.700  17.622  0.00  0.00    +0.000 A 
ATOM      7  C   UNL     1       6.732   4.575  17.930  0.00  0.00    +0.000 A 
ATOM      8  C   UNL     1       5.325   4.614  17.878  0.00  0.00    +0.000 A 
BRANCH   8   9
ATOM      9  C   UNL     1       4.610   3.375  18.197  0.00  0.00    +0.000 A 
ATOM     10  N   UNL     1       3.582   2.870  17.538  0.00  0.00    +0.000 NA
ATOM     11  N   UNL     1       3.175   1.716  18.170  0.00  0.00    +0.000 NA
ATOM     12  C   UNL     1       3.946   1.549  19.217  0.00  0.00    +0.000 A 
ATOM     13  N   UNL     1       4.841   2.570  19.285  0.00  0.00    +0.000 N 
ATOM     14  H   UNL     1       5.534   2.697  20.009  0.00  0.00    +0.000 HD
ENDBRANCH   8   9
ENDBRANCH   1   3
BRANCH   1  16
ATOM     15  O   UNL     1       1.445   5.366  19.303  0.00  0.00    +0.000 OA
ATOM     16  S   UNL     1       2.563   6.241  19.162  0.00  0.00    +0.000 S 
ATOM     17  O   UNL     1       3.683   6.105  20.082  0.00  0.00    +0.000 OA
BRANCH  16  18
ATOM     18  C   UNL     1       2.087   7.950  19.105  0.00  0.00    +0.000 A 
ATOM     19  C   UNL     1       2.361   8.645  17.912  0.00  0.00    +0.000 A 
ATOM     20  C   UNL     1       1.807   9.896  17.687  0.00  0.00    +0.000 A 
ATOM     21  C   UNL     1       0.851  10.374  18.576  0.00  0.00    +0.000 A 
ATOM     22  C   UNL     1       0.600   9.694  19.785  0.00  0.00    +0.000 A 
ATOM     23  C   UNL     1      -0.378  10.197  20.649  0.00  0.00    +0.000 A 
ATOM     24  C   UNL     1      -0.286   9.945  22.010  0.00  0.00    +0.000 A 
ATOM     25  C   UNL     1       0.607   8.988  22.460  0.00  0.00    +0.000 A 
ATOM     26  C   UNL     1       1.329   8.221  21.529  0.00  0.00    +0.000 A 
ATOM     27  C   UNL     1       1.353   8.572  20.150  0.00  0.00    +0.000 A 
ENDBRANCH  16  18
ENDBRANCH   1  16
TORSDOF 4
ENDMDL
MODEL 6
REMARK VINA RESULT:      -8.1      3.121      6.645
REMARK  Name = 
REMARK  4 active torsions:
REMARK  status: ('A' for Active; 'I' for Inactive)
REMARK    1  A    between atoms: S_2  and  N_4
REMARK    2  A    between atoms: S_2  and  C_16
REMARK    3  A    between atoms: N_4  and  C_5
REMARK    4  A    between atoms: C_10  and  C_11
REMARK                            x       y       z     vdW  Elec       q    Type
REMARK                         _______ _______ _______ _____ _____    ______ ____
ROOT
ATOM      1  N   UNL     1       3.223   6.236  19.869  0.00  0.00    +0.000 N 
ATOM      2  H   UNL     1       3.215   6.629  20.814  0.00  0.00    +0.000 HD
ENDROOT
BRANCH   1   3
ATOM      3  C   UNL     1       2.867   4.844  19.829  0.00  0.00    +0.000 A 
ATOM      4  C   UNL     1       1.629   4.484  20.383  0.00  0.00    +0.000 A 
ATOM      5  C   UNL     1       1.156   3.173  20.276  0.00  0.00    +0.000 A 
ATOM      6  C   UNL     1       1.913   2.213  19.614  0.00  0.00    +0.000 A 
ATOM      7  C   UNL     1       3.160   2.556  19.087  0.00  0.00    +0.000 A 
ATOM      8  C   UNL     1       3.672   3.863  19.208  0.00  0.00    +0.000 A 
BRANCH   8   9
ATOM      9  C   UNL     1       4.999   4.116  18.642  0.00  0.00    +0.000 A 
ATOM     10  N   UNL     1       6.041   4.621  19.279  0.00  0.00    +0.000 NA
ATOM     11  N   UNL     1       7.090   4.732  18.393  0.00  0.00    +0.000 NA
ATOM     12  C   UNL     1       6.663   4.317  17.226  0.00  0.00    +0.000 A 
ATOM     13  N   UNL     1       5.361   3.943  17.328  0.00  0.00    +0.000 N 
ATOM     14  H   UNL     1       4.783   3.607  16.571  0.00  0.00    +0.000 HD
ENDBRANCH   8   9
ENDBRANCH   1   3
BRANCH   1  16
ATOM     15  O   UNL     1       3.476   8.045  18.064  0.00  0.00    +0.000 OA
ATOM     16  S   UNL     1       2.482   7.291  18.756  0.00  0.00    +0.000 S 
ATOM     17  O   UNL     1       1.603   6.418  17.991  0.00  0.00    +0.000 OA
BRANCH  16  18
ATOM     18  C   UNL     1       1.484   8.297  19.824  0.00  0.00    +0.000 A 
ATOM     19  C   UNL     1       1.606   8.066  21.208  0.00  0.00    +0.000 A 
ATOM     20  C   UNL     1       1.061   8.960  22.117  0.00  0.00    +0.000 A 
ATOM     21  C   UNL     1       0.547  10.163  21.647  0.00  0.00    +0.000 A 
ATOM     22  C   UNL     1       0.396  10.380  20.262  0.00  0.00    +0.000 A 
ATOM     23  C   UNL     1      -0.112  11.607  19.825  0.00  0.00    +0.000 A 
ATOM     24  C   UNL     1      -0.784  11.679  18.613  0.00  0.00    +0.000 A 
ATOM     25  C   UNL     1      -0.711  10.610  17.737  0.00  0.00    +0.000 A 
ATOM     26  C   UNL     1       0.122   9.519  18.043  0.00  0.00    +0.000 A 
ATOM     27  C   UNL     1       0.691   9.371  19.339  0.00  0.00    +0.000 A 
ENDBRANCH  16  18
ENDBRANCH   1  16
TORSDOF 4
ENDMDL
MODEL 7
REMARK VINA RESULT:      -8.1      2.816      6.118
REMARK  Name = 
REMARK  4 active torsions:
REMARK  status: ('A' for Active; 'I' for Inactive)
REMARK    1  A    between atoms: S_2  and  N_4
REMARK    2  A    between atoms: S_2  and  C_16
REMARK    3  A    between atoms: N_4  and  C_5
REMARK    4  A    between atoms: C_10  and  C_11
REMARK                            x       y       z     vdW  Elec       q    Type
REMARK                         _______ _______ _______ _____ _____    ______ ____
ROOT
ATOM      1  N   UNL     1       3.120   6.306  19.887  0.00  0.00    +0.000 N 
ATOM      2  H   UNL     1       2.712   6.894  20.619  0.00  0.00    +0.000 HD
ENDROOT
BRANCH   1   3
ATOM      3  C   UNL     1       2.951   4.899  20.127  0.00  0.00    +0.000 A 
ATOM      4  C   UNL     1       1.770   4.497  20.770  0.00  0.00    +0.000 A 
ATOM      5  C   UNL     1       1.474   3.141  20.933  0.00  0.00    +0.000 A 
ATOM      6  C   UNL     1       2.353   2.176  20.452  0.00  0.00    +0.000 A 
ATOM      7  C   UNL     1       3.545   2.567  19.839  0.00  0.00    +0.000 A 
ATOM      8  C   UNL     1       3.880   3.928  19.690  0.00  0.00    +0.000 A 
BRANCH   8   9
ATOM      9  C   UNL     1       5.163   4.234  19.054  0.00  0.00    +0.000 A 
ATOM     10  N   UNL     1       6.193   4.843  19.617  0.00  0.00    +0.000 NA
ATOM     11  N   UNL     1       7.196   4.972  18.682  0.00  0.00    +0.000 NA
ATOM     12  C   UNL     1       6.752   4.463  17.559  0.00  0.00    +0.000 A 
ATOM     13  N   UNL     1       5.483   4.011  17.738  0.00  0.00    +0.000 N 
ATOM     14  H   UNL     1       4.900   3.595  17.025  0.00  0.00    +0.000 HD
ENDBRANCH   8   9
ENDBRANCH   1   3
BRANCH   1  16
ATOM     15  O   UNL     1       3.932   6.920  17.529  0.00  0.00    +0.000 OA
ATOM     16  S   UNL     1       2.756   6.909  18.336  0.00  0.00    +0.000 S 
ATOM     17  O   UNL     1       1.620   6.102  17.913  0.00  0.00    +0.000 OA
BRANCH  16  18
ATOM     18  C   UNL     1       2.175   8.542  18.714  0.00  0.00    +0.000 A 
ATOM     19  C   UNL     1       2.449   9.548  17.767  0.00  0.00    +0.000 A 
ATOM     20  C   UNL     1       1.825  10.783  17.857  0.00  0.00    +0.000 A 
ATOM     21  C   UNL     1       0.808  10.953  18.789  0.00  0.00    +0.000 A 
ATOM     22  C   UNL     1       0.556   9.959  19.757  0.00  0.00    +0.000 A 
ATOM     23  C   UNL     1      -0.485  10.159  20.670  0.00  0.00    +0.000 A 
ATOM     24  C   UNL     1      -0.428   9.553  21.917  0.00  0.00    +0.000 A 
ATOM     25  C   UNL     1       0.507   8.557  22.141  0.00  0.00    +0.000 A 
ATOM     26  C   UNL     1       1.311   8.109  21.078  0.00  0.00    +0.000 A 
ATOM     27  C   UNL     1       1.364   8.821  19.847  0.00  0.00    +0.000 A 
ENDBRANCH  16  18
ENDBRANCH   1  16
TORSDOF 4
ENDMDL
MODEL 8
REMARK VINA RESULT:      -8.0      2.533      5.196
REMARK  Name = 
REMARK  4 active torsions:
REMARK  status: ('A' for Active; 'I' for Inactive)
REMARK    1  A    between atoms: S_2  and  N_4
REMARK    2  A    between atoms: S_2  and  C_16
REMARK    3  A    between atoms: N_4  and  C_5
REMARK    4  A    between atoms: C_10  and  C_11
REMARK                            x       y       z     vdW  Elec       q    Type
REMARK                         _______ _______ _______ _____ _____    ______ ____
ROOT
ATOM      1  N   UNL     1       6.552   4.084  18.060  0.00  0.00    +0.000 N 
ATOM      2  H   UNL     1       6.119   3.252  18.472  0.00  0.00    +0.000 HD
ENDROOT
BRANCH   1   3
ATOM      3  C   UNL     1       6.280   4.231  16.656  0.00  0.00    +0.000 A 
ATOM      4  C   UNL     1       7.283   4.814  15.868  0.00  0.00    +0.000 A 
ATOM      5  C   UNL     1       7.147   4.883  14.479  0.00  0.00    +0.000 A 
ATOM      6  C   UNL     1       6.009   4.368  13.866  0.00  0.00    +0.000 A 
ATOM      7  C   UNL     1       4.992   3.814  14.646  0.00  0.00    +0.000 A 
ATOM      8  C   UNL     1       5.093   3.760  16.051  0.00  0.00    +0.000 A 
BRANCH   8   9
ATOM      9  C   UNL     1       3.963   3.180  16.780  0.00  0.00    +0.000 A 
ATOM     10  N   UNL     1       2.742   3.680  16.862  0.00  0.00    +0.000 NA
ATOM     11  N   UNL     1       1.981   2.859  17.664  0.00  0.00    +0.000 NA
ATOM     12  C   UNL     1       2.756   1.887  18.078  0.00  0.00    +0.000 A 
ATOM     13  N   UNL     1       4.004   2.058  17.570  0.00  0.00    +0.000 N 
ATOM     14  H   UNL     1       4.800   1.463  17.752  0.00  0.00    +0.000 HD
ENDBRANCH   8   9
ENDBRANCH   1   3
BRANCH   1  16
ATOM     15  O   UNL     1       7.109   5.274  20.267  0.00  0.00    +0.000 OA
ATOM     16  S   UNL     1       6.358   5.444  19.066  0.00  0.00    +0.000 S 
ATOM     17  O   UNL     1       6.674   6.564  18.192  0.00  0.00    +0.000 OA
BRANCH  16  18
ATOM     18  C   UNL     1       4.606   5.431  19.352  0.00  0.00    +0.000 A 
ATOM     19  C   UNL     1       4.112   4.430  20.210  0.00  0.00    +0.000 A 
ATOM     20  C   UNL     1       2.810   4.495  20.684  0.00  0.00    +0.000 A 
ATOM     21  C   UNL     1       2.063   5.641  20.436  0.00  0.00    +0.000 A 
ATOM     22  C   UNL     1       2.546   6.627  19.552  0.00  0.00    +0.000 A 
ATOM     23  C   UNL     1       1.775   7.774  19.337  0.00  0.00    +0.000 A 
ATOM     24  C   UNL     1       1.888   8.462  18.138  0.00  0.00    +0.000 A 
ATOM     25  C   UNL     1       2.943   8.170  17.290  0.00  0.00    +0.000 A 
ATOM     26  C   UNL     1       3.931   7.258  17.701  0.00  0.00    +0.000 A 
ATOM     27  C   UNL     1       3.744   6.443  18.853  0.00  0.00    +0.000 A 
ENDBRANCH  16  18
ENDBRANCH   1  16
TORSDOF 4
ENDMDL
MODEL 9
REMARK VINA RESULT:      -8.0      0.776      2.205
REMARK  Name = 
REMARK  4 active torsions:
REMARK  status: ('A' for Active; 'I' for Inactive)
REMARK    1  A    between atoms: S_2  and  N_4
REMARK    2  A    between atoms: S_2  and  C_16
REMARK    3  A    between atoms: N_4  and  C_5
REMARK    4  A    between atoms: C_10  and  C_11
REMARK                            x       y       z     vdW  Elec       q    Type
REMARK                         _______ _______ _______ _____ _____    ______ ____
ROOT
ATOM      1  N   UNL     1       2.385   4.007  17.871  0.00  0.00    +0.000 N 
ATOM      2  H   UNL     1       1.518   3.468  17.954  0.00  0.00    +0.000 HD
ENDROOT
BRANCH   1   3
ATOM      3  C   UNL     1       2.321   5.290  18.515  0.00  0.00    +0.000 A 
ATOM      4  C   UNL     1       2.517   6.421  17.709  0.00  0.00    +0.000 A 
ATOM      5  C   UNL     1       2.352   7.706  18.232  0.00  0.00    +0.000 A 
ATOM      6  C   UNL     1       1.987   7.872  19.564  0.00  0.00    +0.000 A 
ATOM      7  C   UNL     1       1.820   6.752  20.382  0.00  0.00    +0.000 A 
ATOM      8  C   UNL     1       2.010   5.448  19.885  0.00  0.00    +0.000 A 
BRANCH   8   9
ATOM      9  C   UNL     1       1.834   4.341  20.828  0.00  0.00    +0.000 A 
ATOM     10  N   UNL     1       2.595   4.073  21.875  0.00  0.00    +0.000 NA
ATOM     11  N   UNL     1       2.120   2.934  22.488  0.00  0.00    +0.000 NA
ATOM     12  C   UNL     1       1.094   2.513  21.790  0.00  0.00    +0.000 A 
ATOM     13  N   UNL     1       0.892   3.346  20.736  0.00  0.00    +0.000 N 
ATOM     14  H   UNL     1       0.181   3.237  20.027  0.00  0.00    +0.000 HD
ENDBRANCH   8   9
ENDBRANCH   1   3
BRANCH   1  16
ATOM     15  O   UNL     1       3.700   2.495  19.477  0.00  0.00    +0.000 OA
ATOM     16  S   UNL     1       3.750   3.029  18.155  0.00  0.00    +0.000 S 
ATOM     17  O   UNL     1       3.754   2.110  17.025  0.00  0.00    +0.000 OA
BRANCH  16  18
ATOM     18  C   UNL     1       5.074   4.190  17.939  0.00  0.00    +0.000 A 
ATOM     19  C   UNL     1       5.627   4.745  19.109  0.00  0.00    +0.000 A 
ATOM     20  C   UNL     1       6.814   5.460  19.051  0.00  0.00    +0.000 A 
ATOM     21  C   UNL     1       7.529   5.475  17.859  0.00  0.00    +0.000 A 
ATOM     22  C   UNL     1       6.961   4.948  16.682  0.00  0.00    +0.000 A 
ATOM     23  C   UNL     1       7.715   4.967  15.504  0.00  0.00    +0.000 A 
ATOM     24  C   UNL     1       7.069   5.001  14.277  0.00  0.00    +0.000 A 
ATOM     25  C   UNL     1       5.709   4.746  14.223  0.00  0.00    +0.000 A 
ATOM     26  C   UNL     1       5.030   4.359  15.392  0.00  0.00    +0.000 A 
ATOM     27  C   UNL     1       5.647   4.467  16.669  0.00  0.00    +0.000 A 
ENDBRANCH  16  18
ENDBRANCH   1  16
TORSDOF 4
ENDMDL
