MODEL 1
REMARK VINA RESULT:      -8.4      0.000      0.000
REMARK  Name = 
REMARK  8 active torsions:
REMARK  status: ('A' for Active; 'I' for Inactive)
REMARK    1  A    between atoms: C_1  and  N_2
REMARK    2  A    between atoms: C_6  and  C_7
REMARK    3  A    between atoms: C_7  and  C_8
REMARK    4  A    between atoms: C_8  and  C_9
REMARK    5  A    between atoms: C_13  and  N_14
REMARK    6  A    between atoms: C_15  and  C_17
REMARK    7  A    between atoms: C_17  and  C_18
REMARK    8  A    between atoms: C_18  and  C_19
REMARK                            x       y       z     vdW  Elec       q    Type
REMARK                         _______ _______ _______ _____ _____    ______ ____
ROOT
ATOM      1  C   UNL     1       5.016   4.167  17.019  0.00  0.00    +0.000 A 
ATOM      2  C   UNL     1       5.506   3.511  15.873  0.00  0.00    +0.000 A 
ATOM      3  C   UNL     1       6.472   4.089  15.049  0.00  0.00    +0.000 A 
ATOM      4  C   UNL     1       6.959   5.359  15.341  0.00  0.00    +0.000 A 
ATOM      5  C   UNL     1       6.496   6.057  16.452  0.00  0.00    +0.000 A 
ATOM      6  C   UNL     1       5.560   5.442  17.296  0.00  0.00    +0.000 A 
ENDROOT
BRANCH   1   7
ATOM      7  C   UNL     1       3.867   3.510  17.932  0.00  0.00    +0.000 C 
ATOM      8  C   UNL     1       3.718   1.962  17.930  0.00  0.00    +0.000 C 
ATOM      9  O   UNL     1       3.957   1.876  19.353  0.00  0.00    +0.000 OA
ATOM     10  C   UNL     1       4.244   3.285  19.425  0.00  0.00    +0.000 C 
BRANCH   7  11
ATOM     11  C   UNL     1       2.548   4.298  17.790  0.00  0.00    +0.000 C 
BRANCH  11  17
ATOM     12  C   UNL     1       0.972   3.765  20.482  0.00  0.00    +0.000 C 
ATOM     13  N   UNL     1       1.578   4.999  20.054  0.00  0.00    +0.000 N 
ATOM     14  C   UNL     1       1.530   6.172  20.742  0.00  0.00    +0.000 A 
ATOM     15  N   UNL     1       2.201   7.090  20.091  0.00  0.00    +0.000 NA
ATOM     16  N   UNL     1       2.681   6.515  18.940  0.00  0.00    +0.000 NA
ATOM     17  C   UNL     1       2.296   5.251  18.910  0.00  0.00    +0.000 A 
ENDBRANCH  11  17
ENDBRANCH   7  11
ENDBRANCH   1   7
BRANCH   5  18
ATOM     18  N   UNL     1       6.880   7.380  16.757  0.00  0.00    +0.000 N 
ATOM     19  C   UNL     1       7.739   7.759  17.769  0.00  0.00    +0.000 C 
ATOM     20  O   UNL     1       8.230   7.031  18.627  0.00  0.00    +0.000 OA
ATOM     21  H   UNL     1       6.633   8.081  16.067  0.00  0.00    +0.000 HD
BRANCH  19  22
ATOM     22  C   UNL     1       8.076   9.236  17.754  0.00  0.00    +0.000 C 
BRANCH  22  23
ATOM     23  C   UNL     1       9.001   9.591  18.918  0.00  0.00    +0.000 C 
BRANCH  23  24
ATOM     24  C   UNL     1       9.712  10.918  18.715  0.00  0.00    +0.000 C 
ATOM     25  F   UNL     1       8.880  11.975  18.851  0.00  0.00    +0.000 F 
ATOM     26  F   UNL     1      10.688  11.065  19.642  0.00  0.00    +0.000 F 
ATOM     27  F   UNL     1      10.296  10.996  17.503  0.00  0.00    +0.000 F 
ENDBRANCH  23  24
ENDBRANCH  22  23
ENDBRANCH  19  22
ENDBRANCH   5  18
TORSDOF 7
ENDMDL
MODEL 2
REMARK VINA RESULT:      -8.3      0.758      1.314
REMARK  Name = 
REMARK  8 active torsions:
REMARK  status: ('A' for Active; 'I' for Inactive)
REMARK    1  A    between atoms: C_1  and  N_2
REMARK    2  A    between atoms: C_6  and  C_7
REMARK    3  A    between atoms: C_7  and  C_8
REMARK    4  A    between atoms: C_8  and  C_9
REMARK    5  A    between atoms: C_13  and  N_14
REMARK    6  A    between atoms: C_15  and  C_17
REMARK    7  A    between atoms: C_17  and  C_18
REMARK    8  A    between atoms: C_18  and  C_19
REMARK                            x       y       z     vdW  Elec       q    Type
REMARK                         _______ _______ _______ _____ _____    ______ ____
ROOT
ATOM      1  C   UNL     1       4.963   4.125  17.038  0.00  0.00    +0.000 A 
ATOM      2  C   UNL     1       5.458   3.446  15.907  0.00  0.00    +0.000 A 
ATOM      3  C   UNL     1       6.428   4.005  15.077  0.00  0.00    +0.000 A 
ATOM      4  C   UNL     1       6.918   5.279  15.345  0.00  0.00    +0.000 A 
ATOM      5  C   UNL     1       6.451   6.000  16.441  0.00  0.00    +0.000 A 
ATOM      6  C   UNL     1       5.510   5.404  17.292  0.00  0.00    +0.000 A 
ENDROOT
BRANCH   1   7
ATOM      7  C   UNL     1       3.809   3.489  17.958  0.00  0.00    +0.000 C 
ATOM      8  C   UNL     1       2.337   3.584  17.465  0.00  0.00    +0.000 C 
ATOM      9  O   UNL     1       2.183   2.147  17.455  0.00  0.00    +0.000 OA
ATOM     10  C   UNL     1       3.573   1.961  17.780  0.00  0.00    +0.000 C 
BRANCH   7  11
ATOM     11  C   UNL     1       4.032   3.863  19.438  0.00  0.00    +0.000 C 
BRANCH  11  17
ATOM     12  C   UNL     1       1.520   3.397  21.306  0.00  0.00    +0.000 C 
ATOM     13  N   UNL     1       1.967   4.641  20.736  0.00  0.00    +0.000 N 
ATOM     14  C   UNL     1       1.335   5.838  20.883  0.00  0.00    +0.000 A 
ATOM     15  N   UNL     1       2.013   6.771  20.262  0.00  0.00    +0.000 NA
ATOM     16  N   UNL     1       3.100   6.172  19.675  0.00  0.00    +0.000 NA
ATOM     17  C   UNL     1       3.069   4.880  19.952  0.00  0.00    +0.000 A 
ENDBRANCH  11  17
ENDBRANCH   7  11
ENDBRANCH   1   7
BRANCH   5  18
ATOM     18  N   UNL     1       6.838   7.328  16.721  0.00  0.00    +0.000 N 
ATOM     19  C   UNL     1       7.701   7.723  17.724  0.00  0.00    +0.000 C 
ATOM     20  O   UNL     1       8.193   7.010  18.593  0.00  0.00    +0.000 OA
ATOM     21  H   UNL     1       6.590   8.016  16.021  0.00  0.00    +0.000 HD
BRANCH  19  22
ATOM     22  C   UNL     1       8.039   9.199  17.682  0.00  0.00    +0.000 C 
BRANCH  22  23
ATOM     23  C   UNL     1       8.985   9.569  18.825  0.00  0.00    +0.000 C 
BRANCH  23  24
ATOM     24  C   UNL     1       9.539  10.977  18.691  0.00  0.00    +0.000 C 
ATOM     25  F   UNL     1      10.664  11.020  17.944  0.00  0.00    +0.000 F 
ATOM     26  F   UNL     1       8.630  11.774  18.080  0.00  0.00    +0.000 F 
ATOM     27  F   UNL     1       9.810  11.528  19.892  0.00  0.00    +0.000 F 
ENDBRANCH  23  24
ENDBRANCH  22  23
ENDBRANCH  19  22
ENDBRANCH   5  18
TORSDOF 7
ENDMDL
MODEL 3
REMARK VINA RESULT:      -8.2      1.368      2.088
REMARK  Name = 
REMARK  8 active torsions:
REMARK  status: ('A' for Active; 'I' for Inactive)
REMARK    1  A    between atoms: C_1  and  N_2
REMARK    2  A    between atoms: C_6  and  C_7
REMARK    3  A    between atoms: C_7  and  C_8
REMARK    4  A    between atoms: C_8  and  C_9
REMARK    5  A    between atoms: C_13  and  N_14
REMARK    6  A    between atoms: C_15  and  C_17
REMARK    7  A    between atoms: C_17  and  C_18
REMARK    8  A    between atoms: C_18  and  C_19
REMARK                            x       y       z     vdW  Elec       q    Type
REMARK                         _______ _______ _______ _____ _____    ______ ____
ROOT
ATOM      1  C   UNL     1       4.904   4.326  17.083  0.00  0.00    +0.000 A 
ATOM      2  C   UNL     1       5.405   3.606  15.981  0.00  0.00    +0.000 A 
ATOM      3  C   UNL     1       6.429   4.106  15.178  0.00  0.00    +0.000 A 
ATOM      4  C   UNL     1       6.968   5.360  15.445  0.00  0.00    +0.000 A 
ATOM      5  C   UNL     1       6.498   6.120  16.512  0.00  0.00    +0.000 A 
ATOM      6  C   UNL     1       5.501   5.582  17.338  0.00  0.00    +0.000 A 
ENDROOT
BRANCH   1   7
ATOM      7  C   UNL     1       3.689   3.759  17.971  0.00  0.00    +0.000 C 
ATOM      8  C   UNL     1       2.269   3.717  17.336  0.00  0.00    +0.000 C 
ATOM      9  O   UNL     1       2.170   2.285  17.505  0.00  0.00    +0.000 OA
ATOM     10  C   UNL     1       3.528   2.211  17.978  0.00  0.00    +0.000 C 
BRANCH   7  11
ATOM     11  C   UNL     1       3.753   4.333  19.402  0.00  0.00    +0.000 C 
BRANCH  11  17
ATOM     12  C   UNL     1       0.718   4.461  20.287  0.00  0.00    +0.000 C 
ATOM     13  N   UNL     1       1.743   3.591  20.803  0.00  0.00    +0.000 N 
ATOM     14  C   UNL     1       1.569   2.692  21.811  0.00  0.00    +0.000 A 
ATOM     15  N   UNL     1       2.690   2.045  22.019  0.00  0.00    +0.000 NA
ATOM     16  N   UNL     1       3.625   2.545  21.146  0.00  0.00    +0.000 NA
ATOM     17  C   UNL     1       3.057   3.490  20.416  0.00  0.00    +0.000 A 
ENDBRANCH  11  17
ENDBRANCH   7  11
ENDBRANCH   1   7
BRANCH   5  18
ATOM     18  N   UNL     1       6.935   7.433  16.786  0.00  0.00    +0.000 N 
ATOM     19  C   UNL     1       7.812   7.800  17.788  0.00  0.00    +0.000 C 
ATOM     20  O   UNL     1       8.276   7.072  18.661  0.00  0.00    +0.000 OA
ATOM     21  H   UNL     1       6.715   8.127  16.082  0.00  0.00    +0.000 HD
BRANCH  19  22
ATOM     22  C   UNL     1       8.208   9.261  17.739  0.00  0.00    +0.000 C 
BRANCH  22  23
ATOM     23  C   UNL     1       8.984   9.652  18.996  0.00  0.00    +0.000 C 
BRANCH  23  24
ATOM     24  C   UNL     1       9.485  11.086  18.951  0.00  0.00    +0.000 C 
ATOM     25  F   UNL     1      10.800  11.164  18.651  0.00  0.00    +0.000 F 
ATOM     26  F   UNL     1       8.821  11.776  17.992  0.00  0.00    +0.000 F 
ATOM     27  F   UNL     1       9.281  11.728  20.118  0.00  0.00    +0.000 F 
ENDBRANCH  23  24
ENDBRANCH  22  23
ENDBRANCH  19  22
ENDBRANCH   5  18
TORSDOF 7
ENDMDL
MODEL 4
REMARK VINA RESULT:      -8.2      0.674      1.464
REMARK  Name = 
REMARK  8 active torsions:
REMARK  status: ('A' for Active; 'I' for Inactive)
REMARK    1  A    between atoms: C_1  and  N_2
REMARK    2  A    between atoms: C_6  and  C_7
REMARK    3  A    between atoms: C_7  and  C_8
REMARK    4  A    between atoms: C_8  and  C_9
REMARK    5  A    between atoms: C_13  and  N_14
REMARK    6  A    between atoms: C_15  and  C_17
REMARK    7  A    between atoms: C_17  and  C_18
REMARK    8  A    between atoms: C_18  and  C_19
REMARK                            x       y       z     vdW  Elec       q    Type
REMARK                         _______ _______ _______ _____ _____    ______ ____
ROOT
ATOM      1  C   UNL     1       4.944   4.267  17.070  0.00  0.00    +0.000 A 
ATOM      2  C   UNL     1       5.436   3.596  15.934  0.00  0.00    +0.000 A 
ATOM      3  C   UNL     1       6.431   4.146  15.126  0.00  0.00    +0.000 A 
ATOM      4  C   UNL     1       6.948   5.403  15.424  0.00  0.00    +0.000 A 
ATOM      5  C   UNL     1       6.485   6.115  16.526  0.00  0.00    +0.000 A 
ATOM      6  C   UNL     1       5.518   5.528  17.354  0.00  0.00    +0.000 A 
ENDROOT
BRANCH   1   7
ATOM      7  C   UNL     1       3.762   3.644  17.965  0.00  0.00    +0.000 C 
ATOM      8  C   UNL     1       3.589   2.098  17.984  0.00  0.00    +0.000 C 
ATOM      9  O   UNL     1       3.791   2.032  19.414  0.00  0.00    +0.000 OA
ATOM     10  C   UNL     1       4.098   3.438  19.470  0.00  0.00    +0.000 C 
BRANCH   7  11
ATOM     11  C   UNL     1       2.460   4.449  17.776  0.00  0.00    +0.000 C 
BRANCH  11  17
ATOM     12  C   UNL     1       2.947   7.573  17.912  0.00  0.00    +0.000 C 
ATOM     13  N   UNL     1       2.413   6.725  18.947  0.00  0.00    +0.000 N 
ATOM     14  C   UNL     1       2.064   7.143  20.195  0.00  0.00    +0.000 A 
ATOM     15  N   UNL     1       1.591   6.130  20.879  0.00  0.00    +0.000 NA
ATOM     16  N   UNL     1       1.652   5.021  20.073  0.00  0.00    +0.000 NA
ATOM     17  C   UNL     1       2.160   5.376  18.905  0.00  0.00    +0.000 A 
ENDBRANCH  11  17
ENDBRANCH   7  11
ENDBRANCH   1   7
BRANCH   5  18
ATOM     18  N   UNL     1       6.899   7.428  16.835  0.00  0.00    +0.000 N 
ATOM     19  C   UNL     1       7.789   7.781  17.831  0.00  0.00    +0.000 C 
ATOM     20  O   UNL     1       8.287   7.035  18.669  0.00  0.00    +0.000 OA
ATOM     21  H   UNL     1       6.649   8.140  16.159  0.00  0.00    +0.000 HD
BRANCH  19  22
ATOM     22  C   UNL     1       8.151   9.252  17.822  0.00  0.00    +0.000 C 
BRANCH  22  23
ATOM     23  C   UNL     1       9.024   9.599  19.029  0.00  0.00    +0.000 C 
BRANCH  23  24
ATOM     24  C   UNL     1       9.692  10.957  18.894  0.00  0.00    +0.000 C 
ATOM     25  F   UNL     1      10.959  10.957  19.366  0.00  0.00    +0.000 F 
ATOM     26  F   UNL     1       9.759  11.310  17.588  0.00  0.00    +0.000 F 
ATOM     27  F   UNL     1       9.005  11.923  19.534  0.00  0.00    +0.000 F 
ENDBRANCH  23  24
ENDBRANCH  22  23
ENDBRANCH  19  22
ENDBRANCH   5  18
TORSDOF 7
ENDMDL
MODEL 5
REMARK VINA RESULT:      -8.0      1.559      2.335
REMARK  Name = 
REMARK  8 active torsions:
REMARK  status: ('A' for Active; 'I' for Inactive)
REMARK    1  A    between atoms: C_1  and  N_2
REMARK    2  A    between atoms: C_6  and  C_7
REMARK    3  A    between atoms: C_7  and  C_8
REMARK    4  A    between atoms: C_8  and  C_9
REMARK    5  A    between atoms: C_13  and  N_14
REMARK    6  A    between atoms: C_15  and  C_17
REMARK    7  A    between atoms: C_17  and  C_18
REMARK    8  A    between atoms: C_18  and  C_19
REMARK                            x       y       z     vdW  Elec       q    Type
REMARK                         _______ _______ _______ _____ _____    ______ ____
ROOT
ATOM      1  C   UNL     1       4.463   4.831  17.298  0.00  0.00    +0.000 A 
ATOM      2  C   UNL     1       4.934   3.963  16.293  0.00  0.00    +0.000 A 
ATOM      3  C   UNL     1       6.066   4.259  15.534  0.00  0.00    +0.000 A 
ATOM      4  C   UNL     1       6.749   5.452  15.746  0.00  0.00    +0.000 A 
ATOM      5  C   UNL     1       6.316   6.352  16.716  0.00  0.00    +0.000 A 
ATOM      6  C   UNL     1       5.205   6.018  17.502  0.00  0.00    +0.000 A 
ENDROOT
BRANCH   1   7
ATOM      7  C   UNL     1       3.129   4.502  18.132  0.00  0.00    +0.000 C 
ATOM      8  C   UNL     1       1.764   4.979  17.557  0.00  0.00    +0.000 C 
ATOM      9  O   UNL     1       1.249   3.629  17.497  0.00  0.00    +0.000 OA
ATOM     10  C   UNL     1       2.522   3.088  17.896  0.00  0.00    +0.000 C 
BRANCH   7  11
ATOM     11  C   UNL     1       3.346   4.786  19.632  0.00  0.00    +0.000 C 
BRANCH  11  17
ATOM     12  C   UNL     1       4.474   2.024  20.685  0.00  0.00    +0.000 C 
ATOM     13  N   UNL     1       3.178   2.595  20.946  0.00  0.00    +0.000 N 
ATOM     14  C   UNL     1       2.194   1.999  21.673  0.00  0.00    +0.000 A 
ATOM     15  N   UNL     1       1.154   2.794  21.740  0.00  0.00    +0.000 NA
ATOM     16  N   UNL     1       1.453   3.927  21.023  0.00  0.00    +0.000 NA
ATOM     17  C   UNL     1       2.674   3.804  20.532  0.00  0.00    +0.000 A 
ENDBRANCH  11  17
ENDBRANCH   7  11
ENDBRANCH   1   7
BRANCH   5  18
ATOM     18  N   UNL     1       6.907   7.617  16.923  0.00  0.00    +0.000 N 
ATOM     19  C   UNL     1       7.870   7.913  17.868  0.00  0.00    +0.000 C 
ATOM     20  O   UNL     1       8.296   7.164  18.742  0.00  0.00    +0.000 OA
ATOM     21  H   UNL     1       6.727   8.310  16.207  0.00  0.00    +0.000 HD
BRANCH  19  22
ATOM     22  C   UNL     1       8.418   9.320  17.750  0.00  0.00    +0.000 C 
BRANCH  22  23
ATOM     23  C   UNL     1       9.092   9.748  19.053  0.00  0.00    +0.000 C 
BRANCH  23  24
ATOM     24  C   UNL     1       9.817  11.078  18.926  0.00  0.00    +0.000 C 
ATOM     25  F   UNL     1      11.077  11.027  19.412  0.00  0.00    +0.000 F 
ATOM     26  F   UNL     1       9.912  11.429  17.622  0.00  0.00    +0.000 F 
ATOM     27  F   UNL     1       9.162  12.070  19.561  0.00  0.00    +0.000 F 
ENDBRANCH  23  24
ENDBRANCH  22  23
ENDBRANCH  19  22
ENDBRANCH   5  18
TORSDOF 7
ENDMDL
MODEL 6
REMARK VINA RESULT:      -7.9      4.797      6.172
REMARK  Name = 
REMARK  8 active torsions:
REMARK  status: ('A' for Active; 'I' for Inactive)
REMARK    1  A    between atoms: C_1  and  N_2
REMARK    2  A    between atoms: C_6  and  C_7
REMARK    3  A    between atoms: C_7  and  C_8
REMARK    4  A    between atoms: C_8  and  C_9
REMARK    5  A    between atoms: C_13  and  N_14
REMARK    6  A    between atoms: C_15  and  C_17
REMARK    7  A    between atoms: C_17  and  C_18
REMARK    8  A    between atoms: C_18  and  C_19
REMARK                            x       y       z     vdW  Elec       q    Type
REMARK                         _______ _______ _______ _____ _____    ______ ____
ROOT
ATOM      1  C   UNL     1       4.435   6.007  18.167  0.00  0.00    +0.000 A 
ATOM      2  C   UNL     1       5.381   5.737  19.175  0.00  0.00    +0.000 A 
ATOM      3  C   UNL     1       6.715   5.460  18.879  0.00  0.00    +0.000 A 
ATOM      4  C   UNL     1       7.136   5.422  17.554  0.00  0.00    +0.000 A 
ATOM      5  C   UNL     1       6.238   5.665  16.519  0.00  0.00    +0.000 A 
ATOM      6  C   UNL     1       4.912   5.990  16.836  0.00  0.00    +0.000 A 
ENDROOT
BRANCH   1   7
ATOM      7  C   UNL     1       2.889   6.277  18.519  0.00  0.00    +0.000 C 
ATOM      8  C   UNL     1       2.511   6.572  19.999  0.00  0.00    +0.000 C 
ATOM      9  O   UNL     1       1.961   7.866  19.664  0.00  0.00    +0.000 OA
ATOM     10  C   UNL     1       2.396   7.737  18.298  0.00  0.00    +0.000 C 
BRANCH   7  11
ATOM     11  C   UNL     1       1.985   5.255  17.799  0.00  0.00    +0.000 C 
BRANCH  11  17
ATOM     12  C   UNL     1       0.845   3.563  20.218  0.00  0.00    +0.000 C 
ATOM     13  N   UNL     1       1.800   3.139  19.227  0.00  0.00    +0.000 N 
ATOM     14  C   UNL     1       2.409   1.921  19.202  0.00  0.00    +0.000 A 
ATOM     15  N   UNL     1       3.199   1.848  18.159  0.00  0.00    +0.000 NA
ATOM     16  N   UNL     1       3.125   3.050  17.499  0.00  0.00    +0.000 NA
ATOM     17  C   UNL     1       2.287   3.837  18.150  0.00  0.00    +0.000 A 
ENDBRANCH  11  17
ENDBRANCH   7  11
ENDBRANCH   1   7
BRANCH   5  18
ATOM     18  N   UNL     1       6.576   5.556  15.153  0.00  0.00    +0.000 N 
ATOM     19  C   UNL     1       6.555   4.394  14.407  0.00  0.00    +0.000 C 
ATOM     20  O   UNL     1       6.339   3.259  14.820  0.00  0.00    +0.000 OA
ATOM     21  H   UNL     1       6.676   6.431  14.652  0.00  0.00    +0.000 HD
BRANCH  19  22
ATOM     22  C   UNL     1       6.824   4.619  12.933  0.00  0.00    +0.000 C 
BRANCH  22  23
ATOM     23  C   UNL     1       6.513   3.356  12.129  0.00  0.00    +0.000 C 
BRANCH  23  24
ATOM     24  C   UNL     1       5.051   3.266  11.727  0.00  0.00    +0.000 C 
ATOM     25  F   UNL     1       4.216   3.540  12.754  0.00  0.00    +0.000 F 
ATOM     26  F   UNL     1       4.784   4.166  10.751  0.00  0.00    +0.000 F 
ATOM     27  F   UNL     1       4.736   2.047  11.243  0.00  0.00    +0.000 F 
ENDBRANCH  23  24
ENDBRANCH  22  23
ENDBRANCH  19  22
ENDBRANCH   5  18
TORSDOF 7
ENDMDL
MODEL 7
REMARK VINA RESULT:      -7.9      0.770      1.046
REMARK  Name = 
REMARK  8 active torsions:
REMARK  status: ('A' for Active; 'I' for Inactive)
REMARK    1  A    between atoms: C_1  and  N_2
REMARK    2  A    between atoms: C_6  and  C_7
REMARK    3  A    between atoms: C_7  and  C_8
REMARK    4  A    between atoms: C_8  and  C_9
REMARK    5  A    between atoms: C_13  and  N_14
REMARK    6  A    between atoms: C_15  and  C_17
REMARK    7  A    between atoms: C_17  and  C_18
REMARK    8  A    between atoms: C_18  and  C_19
REMARK                            x       y       z     vdW  Elec       q    Type
REMARK                         _______ _______ _______ _____ _____    ______ ____
ROOT
ATOM      1  C   UNL     1       5.039   3.884  17.039  0.00  0.00    +0.000 A 
ATOM      2  C   UNL     1       5.168   3.548  15.678  0.00  0.00    +0.000 A 
ATOM      3  C   UNL     1       6.170   4.092  14.875  0.00  0.00    +0.000 A 
ATOM      4  C   UNL     1       7.063   5.013  15.413  0.00  0.00    +0.000 A 
ATOM      5  C   UNL     1       6.969   5.392  16.749  0.00  0.00    +0.000 A 
ATOM      6  C   UNL     1       5.986   4.800  17.554  0.00  0.00    +0.000 A 
ENDROOT
BRANCH   1   7
ATOM      7  C   UNL     1       3.849   3.287  17.941  0.00  0.00    +0.000 C 
ATOM      8  C   UNL     1       3.648   1.745  17.967  0.00  0.00    +0.000 C 
ATOM      9  O   UNL     1       3.854   1.681  19.397  0.00  0.00    +0.000 OA
ATOM     10  C   UNL     1       4.187   3.081  19.446  0.00  0.00    +0.000 C 
BRANCH   7  11
ATOM     11  C   UNL     1       2.562   4.116  17.754  0.00  0.00    +0.000 C 
BRANCH  11  17
ATOM     12  C   UNL     1       0.948   3.898  20.467  0.00  0.00    +0.000 C 
ATOM     13  N   UNL     1       1.635   5.053  19.949  0.00  0.00    +0.000 N 
ATOM     14  C   UNL     1       1.662   6.277  20.543  0.00  0.00    +0.000 A 
ATOM     15  N   UNL     1       2.394   7.096  19.828  0.00  0.00    +0.000 NA
ATOM     16  N   UNL     1       2.837   6.402  18.729  0.00  0.00    +0.000 NA
ATOM     17  C   UNL     1       2.370   5.167  18.794  0.00  0.00    +0.000 A 
ENDBRANCH  11  17
ENDBRANCH   7  11
ENDBRANCH   1   7
BRANCH   5  18
ATOM     18  N   UNL     1       7.783   6.385  17.336  0.00  0.00    +0.000 N 
ATOM     19  C   UNL     1       7.467   7.724  17.452  0.00  0.00    +0.000 C 
ATOM     20  O   UNL     1       6.483   8.290  16.983  0.00  0.00    +0.000 OA
ATOM     21  H   UNL     1       8.583   6.047  17.858  0.00  0.00    +0.000 HD
BRANCH  19  22
ATOM     22  C   UNL     1       8.474   8.514  18.261  0.00  0.00    +0.000 C 
BRANCH  22  23
ATOM     23  C   UNL     1       8.241  10.016  18.095  0.00  0.00    +0.000 C 
BRANCH  23  24
ATOM     24  C   UNL     1       9.444  10.843  18.514  0.00  0.00    +0.000 C 
ATOM     25  F   UNL     1      10.084  10.318  19.583  0.00  0.00    +0.000 F 
ATOM     26  F   UNL     1      10.344  10.894  17.504  0.00  0.00    +0.000 F 
ATOM     27  F   UNL     1       9.103  12.113  18.811  0.00  0.00    +0.000 F 
ENDBRANCH  23  24
ENDBRANCH  22  23
ENDBRANCH  19  22
ENDBRANCH   5  18
TORSDOF 7
ENDMDL
MODEL 8
REMARK VINA RESULT:      -7.8      4.576      7.430
REMARK  Name = 
REMARK  8 active torsions:
REMARK  status: ('A' for Active; 'I' for Inactive)
REMARK    1  A    between atoms: C_1  and  N_2
REMARK    2  A    between atoms: C_6  and  C_7
REMARK    3  A    between atoms: C_7  and  C_8
REMARK    4  A    between atoms: C_8  and  C_9
REMARK    5  A    between atoms: C_13  and  N_14
REMARK    6  A    between atoms: C_15  and  C_17
REMARK    7  A    between atoms: C_17  and  C_18
REMARK    8  A    between atoms: C_18  and  C_19
REMARK                            x       y       z     vdW  Elec       q    Type
REMARK                         _______ _______ _______ _____ _____    ______ ____
ROOT
ATOM      1  C   UNL     1       4.831   5.682  16.550  0.00  0.00    +0.000 A 
ATOM      2  C   UNL     1       4.598   7.071  16.593  0.00  0.00    +0.000 A 
ATOM      3  C   UNL     1       3.566   7.622  17.352  0.00  0.00    +0.000 A 
ATOM      4  C   UNL     1       2.718   6.789  18.076  0.00  0.00    +0.000 A 
ATOM      5  C   UNL     1       2.896   5.409  18.055  0.00  0.00    +0.000 A 
ATOM      6  C   UNL     1       3.967   4.875  17.325  0.00  0.00    +0.000 A 
ENDROOT
BRANCH   1   7
ATOM      7  C   UNL     1       5.993   5.056  15.632  0.00  0.00    +0.000 C 
ATOM      8  C   UNL     1       5.993   3.520  15.388  0.00  0.00    +0.000 C 
ATOM      9  O   UNL     1       5.882   3.686  13.957  0.00  0.00    +0.000 OA
ATOM     10  C   UNL     1       5.740   5.112  14.098  0.00  0.00    +0.000 C 
BRANCH   7  11
ATOM     11  C   UNL     1       7.362   5.663  16.006  0.00  0.00    +0.000 C 
BRANCH  11  17
ATOM     12  C   UNL     1       7.874   8.226  17.789  0.00  0.00    +0.000 C 
ATOM     13  N   UNL     1       7.861   6.852  18.217  0.00  0.00    +0.000 N 
ATOM     14  C   UNL     1       8.116   6.427  19.486  0.00  0.00    +0.000 A 
ATOM     15  N   UNL     1       7.998   5.123  19.543  0.00  0.00    +0.000 NA
ATOM     16  N   UNL     1       7.682   4.680  18.283  0.00  0.00    +0.000 NA
ATOM     17  C   UNL     1       7.610   5.723  17.475  0.00  0.00    +0.000 A 
ENDBRANCH  11  17
ENDBRANCH   7  11
ENDBRANCH   1   7
BRANCH   5  18
ATOM     18  N   UNL     1       2.022   4.502  18.692  0.00  0.00    +0.000 N 
ATOM     19  C   UNL     1       1.683   3.246  18.228  0.00  0.00    +0.000 C 
ATOM     20  O   UNL     1       1.999   2.751  17.150  0.00  0.00    +0.000 OA
ATOM     21  H   UNL     1       1.764   4.733  19.644  0.00  0.00    +0.000 HD
BRANCH  19  22
ATOM     22  C   UNL     1       0.843   2.449  19.204  0.00  0.00    +0.000 C 
BRANCH  22  23
ATOM     23  C   UNL     1       0.641   3.227  20.503  0.00  0.00    +0.000 C 
BRANCH  23  24
ATOM     24  C   UNL     1       1.671   2.872  21.563  0.00  0.00    +0.000 C 
ATOM     25  F   UNL     1       2.664   2.095  21.076  0.00  0.00    +0.000 F 
ATOM     26  F   UNL     1       2.251   3.999  22.039  0.00  0.00    +0.000 F 
ATOM     27  F   UNL     1       1.114   2.235  22.612  0.00  0.00    +0.000 F 
ENDBRANCH  23  24
ENDBRANCH  22  23
ENDBRANCH  19  22
ENDBRANCH   5  18
TORSDOF 7
ENDMDL
MODEL 9
REMARK VINA RESULT:      -7.8      4.489      7.552
REMARK  Name = 
REMARK  8 active torsions:
REMARK  status: ('A' for Active; 'I' for Inactive)
REMARK    1  A    between atoms: C_1  and  N_2
REMARK    2  A    between atoms: C_6  and  C_7
REMARK    3  A    between atoms: C_7  and  C_8
REMARK    4  A    between atoms: C_8  and  C_9
REMARK    5  A    between atoms: C_13  and  N_14
REMARK    6  A    between atoms: C_15  and  C_17
REMARK    7  A    between atoms: C_17  and  C_18
REMARK    8  A    between atoms: C_18  and  C_19
REMARK                            x       y       z     vdW  Elec       q    Type
REMARK                         _______ _______ _______ _____ _____    ______ ____
ROOT
ATOM      1  C   UNL     1       5.394   6.276  18.022  0.00  0.00    +0.000 A 
ATOM      2  C   UNL     1       4.884   7.400  17.344  0.00  0.00    +0.000 A 
ATOM      3  C   UNL     1       3.515   7.646  17.249  0.00  0.00    +0.000 A 
ATOM      4  C   UNL     1       2.610   6.753  17.815  0.00  0.00    +0.000 A 
ATOM      5  C   UNL     1       3.061   5.618  18.483  0.00  0.00    +0.000 A 
ATOM      6  C   UNL     1       4.442   5.411  18.611  0.00  0.00    +0.000 A 
ENDROOT
BRANCH   1   7
ATOM      7  C   UNL     1       6.972   5.979  18.082  0.00  0.00    +0.000 C 
ATOM      8  C   UNL     1       7.955   7.159  17.833  0.00  0.00    +0.000 C 
ATOM      9  O   UNL     1       8.562   7.008  19.137  0.00  0.00    +0.000 OA
ATOM     10  C   UNL     1       7.605   5.997  19.504  0.00  0.00    +0.000 C 
BRANCH   7  11
ATOM     11  C   UNL     1       7.305   4.675  17.327  0.00  0.00    +0.000 C 
BRANCH  11  17
ATOM     12  C   UNL     1       4.924   3.249  15.808  0.00  0.00    +0.000 C 
ATOM     13  N   UNL     1       5.960   4.070  15.235  0.00  0.00    +0.000 N 
ATOM     14  C   UNL     1       6.103   4.332  13.907  0.00  0.00    +0.000 A 
ATOM     15  N   UNL     1       7.127   5.129  13.725  0.00  0.00    +0.000 NA
ATOM     16  N   UNL     1       7.682   5.376  14.956  0.00  0.00    +0.000 NA
ATOM     17  C   UNL     1       6.984   4.727  15.871  0.00  0.00    +0.000 A 
ENDBRANCH  11  17
ENDBRANCH   7  11
ENDBRANCH   1   7
BRANCH   5  18
ATOM     18  N   UNL     1       2.201   4.627  19.003  0.00  0.00    +0.000 N 
ATOM     19  C   UNL     1       1.714   3.537  18.310  0.00  0.00    +0.000 C 
ATOM     20  O   UNL     1       1.862   3.300  17.114  0.00  0.00    +0.000 OA
ATOM     21  H   UNL     1       2.075   4.636  20.008  0.00  0.00    +0.000 HD
BRANCH  19  22
ATOM     22  C   UNL     1       0.934   2.570  19.177  0.00  0.00    +0.000 C 
BRANCH  22  23
ATOM     23  C   UNL     1       0.742   3.140  20.582  0.00  0.00    +0.000 C 
BRANCH  23  24
ATOM     24  C   UNL     1       1.851   2.729  21.535  0.00  0.00    +0.000 C 
ATOM     25  F   UNL     1       1.445   1.800  22.429  0.00  0.00    +0.000 F 
ATOM     26  F   UNL     1       2.878   2.184  20.841  0.00  0.00    +0.000 F 
ATOM     27  F   UNL     1       2.344   3.781  22.218  0.00  0.00    +0.000 F 
ENDBRANCH  23  24
ENDBRANCH  22  23
ENDBRANCH  19  22
ENDBRANCH   5  18
TORSDOF 7
ENDMDL
