MODEL 1
REMARK VINA RESULT:      -9.0      0.000      0.000
REMARK  Name = 
REMARK  5 active torsions:
REMARK  status: ('A' for Active; 'I' for Inactive)
REMARK    1  A    between atoms: C_2  and  C_3
REMARK    2  A    between atoms: C_7  and  C_8
REMARK    3  A    between atoms: N_14  and  C_15
REMARK    4  A    between atoms: C_19  and  C_20
REMARK    5  A    between atoms: N_24  and  C_25
REMARK                            x       y       z     vdW  Elec       q    Type
REMARK                         _______ _______ _______ _____ _____    ______ ____
ROOT
ATOM      1  C   UNL     1       0.291  11.627  19.464  0.00  0.00    +0.000 A 
ATOM      2  C   UNL     1       0.977  10.642  18.751  0.00  0.00    +0.000 A 
ATOM      3  C   UNL     1       1.195   9.426  19.370  0.00  0.00    +0.000 A 
ATOM      4  C   UNL     1       0.792   9.147  20.671  0.00  0.00    +0.000 A 
ATOM      5  C   UNL     1       0.148  10.123  21.425  0.00  0.00    +0.000 A 
ATOM      6  C   UNL     1      -0.094  11.368  20.799  0.00  0.00    +0.000 A 
ATOM      7  C   UNL     1       1.176   7.741  21.012  0.00  0.00    +0.000 C 
ATOM      8  N   UNL     1       1.875   7.280  19.816  0.00  0.00    +0.000 N 
ATOM      9  C   UNL     1       1.883   8.258  18.821  0.00  0.00    +0.000 C 
ATOM     10  O   UNL     1       2.345   8.259  17.693  0.00  0.00    +0.000 OA
ENDROOT
BRANCH   8  11
ATOM     11  C   UNL     1       2.510   6.013  19.747  0.00  0.00    +0.000 A 
ATOM     12  C   UNL     1       1.833   4.838  20.098  0.00  0.00    +0.000 A 
ATOM     13  C   UNL     1       2.449   3.590  20.002  0.00  0.00    +0.000 A 
ATOM     14  C   UNL     1       3.754   3.494  19.533  0.00  0.00    +0.000 A 
ATOM     15  C   UNL     1       4.444   4.640  19.131  0.00  0.00    +0.000 A 
ATOM     16  C   UNL     1       3.829   5.895  19.282  0.00  0.00    +0.000 A 
BRANCH  15  17
ATOM     17  C   UNL     1       5.771   4.571  18.521  0.00  0.00    +0.000 A 
ATOM     18  N   UNL     1       6.921   4.764  19.145  0.00  0.00    +0.000 NA
ATOM     19  N   UNL     1       7.940   4.706  18.224  0.00  0.00    +0.000 NA
ATOM     20  C   UNL     1       7.395   4.503  17.048  0.00  0.00    +0.000 A 
ATOM     21  N   UNL     1       6.043   4.415  17.181  0.00  0.00    +0.000 N 
ATOM     22  C   UNL     1       5.109   4.299  16.092  0.00  0.00    +0.000 C 
ENDBRANCH  15  17
ENDBRANCH   8  11
BRANCH   5  23
ATOM     23  C   UNL     1      -0.278   9.903  22.851  0.00  0.00    +0.000 C 
ATOM     24  F   UNL     1       0.760   9.660  23.699  0.00  0.00    +0.000 F 
ATOM     25  F   UNL     1      -0.933  10.979  23.366  0.00  0.00    +0.000 F 
ATOM     26  F   UNL     1      -1.124   8.847  22.986  0.00  0.00    +0.000 F 
ENDBRANCH   5  23
BRANCH   1  28
ATOM     27  C   UNL     1       0.066  14.098  19.540  0.00  0.00    +0.000 C 
ATOM     28  C   UNL     1       0.000  12.939  18.870  0.00  0.00    +0.000 C 
ENDBRANCH   1  28
TORSDOF 4
ENDMDL
MODEL 2
REMARK VINA RESULT:      -8.7      0.847      1.388
REMARK  Name = 
REMARK  5 active torsions:
REMARK  status: ('A' for Active; 'I' for Inactive)
REMARK    1  A    between atoms: C_2  and  C_3
REMARK    2  A    between atoms: C_7  and  C_8
REMARK    3  A    between atoms: N_14  and  C_15
REMARK    4  A    between atoms: C_19  and  C_20
REMARK    5  A    between atoms: N_24  and  C_25
REMARK                            x       y       z     vdW  Elec       q    Type
REMARK                         _______ _______ _______ _____ _____    ______ ____
ROOT
ATOM      1  C   UNL     1       0.234  11.656  19.338  0.00  0.00    +0.000 A 
ATOM      2  C   UNL     1       0.966  10.759  18.558  0.00  0.00    +0.000 A 
ATOM      3  C   UNL     1       1.284   9.532  19.108  0.00  0.00    +0.000 A 
ATOM      4  C   UNL     1       0.938   9.161  20.402  0.00  0.00    +0.000 A 
ATOM      5  C   UNL     1       0.250  10.050  21.221  0.00  0.00    +0.000 A 
ATOM      6  C   UNL     1      -0.094  11.305  20.667  0.00  0.00    +0.000 A 
ATOM      7  C   UNL     1       1.428   7.770  20.661  0.00  0.00    +0.000 C 
ATOM      8  N   UNL     1       2.123   7.419  19.427  0.00  0.00    +0.000 N 
ATOM      9  C   UNL     1       2.035   8.444  18.483  0.00  0.00    +0.000 C 
ATOM     10  O   UNL     1       2.464   8.533  17.345  0.00  0.00    +0.000 OA
ENDROOT
BRANCH   8  11
ATOM     11  C   UNL     1       2.842   6.205  19.277  0.00  0.00    +0.000 A 
ATOM     12  C   UNL     1       2.608   5.111  20.119  0.00  0.00    +0.000 A 
ATOM     13  C   UNL     1       3.293   3.908  19.952  0.00  0.00    +0.000 A 
ATOM     14  C   UNL     1       4.218   3.772  18.923  0.00  0.00    +0.000 A 
ATOM     15  C   UNL     1       4.444   4.827  18.036  0.00  0.00    +0.000 A 
ATOM     16  C   UNL     1       3.783   6.050  18.248  0.00  0.00    +0.000 A 
BRANCH  15  17
ATOM     17  C   UNL     1       5.316   4.687  16.871  0.00  0.00    +0.000 A 
ATOM     18  N   UNL     1       4.931   4.350  15.651  0.00  0.00    +0.000 NA
ATOM     19  N   UNL     1       6.044   4.233  14.852  0.00  0.00    +0.000 NA
ATOM     20  C   UNL     1       7.092   4.476  15.601  0.00  0.00    +0.000 A 
ATOM     21  N   UNL     1       6.691   4.761  16.870  0.00  0.00    +0.000 N 
ATOM     22  C   UNL     1       7.569   4.975  17.989  0.00  0.00    +0.000 C 
ENDBRANCH  15  17
ENDBRANCH   8  11
BRANCH   5  23
ATOM     23  C   UNL     1      -0.118   9.730  22.645  0.00  0.00    +0.000 C 
ATOM     24  F   UNL     1       0.953   9.446  23.435  0.00  0.00    +0.000 F 
ATOM     25  F   UNL     1      -0.766  10.762  23.254  0.00  0.00    +0.000 F 
ATOM     26  F   UNL     1      -0.948   8.657  22.740  0.00  0.00    +0.000 F 
ENDBRANCH   5  23
BRANCH   1  28
ATOM     27  C   UNL     1       0.236  14.139  19.346  0.00  0.00    +0.000 C 
ATOM     28  C   UNL     1      -0.164  12.972  18.819  0.00  0.00    +0.000 C 
ENDBRANCH   1  28
TORSDOF 4
ENDMDL
MODEL 3
REMARK VINA RESULT:      -8.6      3.753      8.158
REMARK  Name = 
REMARK  5 active torsions:
REMARK  status: ('A' for Active; 'I' for Inactive)
REMARK    1  A    between atoms: C_2  and  C_3
REMARK    2  A    between atoms: C_7  and  C_8
REMARK    3  A    between atoms: N_14  and  C_15
REMARK    4  A    between atoms: C_19  and  C_20
REMARK    5  A    between atoms: N_24  and  C_25
REMARK                            x       y       z     vdW  Elec       q    Type
REMARK                         _______ _______ _______ _____ _____    ______ ____
ROOT
ATOM      1  C   UNL     1       5.299   4.619  15.964  0.00  0.00    +0.000 A 
ATOM      2  C   UNL     1       4.949   5.921  16.327  0.00  0.00    +0.000 A 
ATOM      3  C   UNL     1       4.029   6.086  17.344  0.00  0.00    +0.000 A 
ATOM      4  C   UNL     1       3.417   5.024  18.001  0.00  0.00    +0.000 A 
ATOM      5  C   UNL     1       3.708   3.715  17.631  0.00  0.00    +0.000 A 
ATOM      6  C   UNL     1       4.659   3.532  16.599  0.00  0.00    +0.000 A 
ATOM      7  C   UNL     1       2.493   5.563  19.048  0.00  0.00    +0.000 C 
ATOM      8  N   UNL     1       2.597   7.010  18.883  0.00  0.00    +0.000 N 
ATOM      9  C   UNL     1       3.518   7.343  17.888  0.00  0.00    +0.000 C 
ATOM     10  O   UNL     1       3.894   8.423  17.465  0.00  0.00    +0.000 OA
ENDROOT
BRANCH   8  11
ATOM     11  C   UNL     1       1.794   7.919  19.616  0.00  0.00    +0.000 A 
ATOM     12  C   UNL     1       1.442   7.671  20.949  0.00  0.00    +0.000 A 
ATOM     13  C   UNL     1       0.677   8.580  21.678  0.00  0.00    +0.000 A 
ATOM     14  C   UNL     1       0.262   9.769  21.089  0.00  0.00    +0.000 A 
ATOM     15  C   UNL     1       0.632  10.071  19.777  0.00  0.00    +0.000 A 
ATOM     16  C   UNL     1       1.360   9.123  19.038  0.00  0.00    +0.000 A 
BRANCH  15  17
ATOM     17  C   UNL     1       0.320  11.360  19.161  0.00  0.00    +0.000 A 
ATOM     18  N   UNL     1       1.032  12.469  19.282  0.00  0.00    +0.000 NA
ATOM     19  N   UNL     1       0.374  13.489  18.637  0.00  0.00    +0.000 NA
ATOM     20  C   UNL     1      -0.739  12.995  18.152  0.00  0.00    +0.000 A 
ATOM     21  N   UNL     1      -0.820  11.670  18.456  0.00  0.00    +0.000 N 
ATOM     22  C   UNL     1      -1.950  10.824  18.179  0.00  0.00    +0.000 C 
ENDBRANCH  15  17
ENDBRANCH   8  11
BRANCH   5  23
ATOM     23  C   UNL     1       3.052   2.521  18.270  0.00  0.00    +0.000 C 
ATOM     24  F   UNL     1       1.701   2.490  18.107  0.00  0.00    +0.000 F 
ATOM     25  F   UNL     1       3.514   1.345  17.763  0.00  0.00    +0.000 F 
ATOM     26  F   UNL     1       3.267   2.463  19.611  0.00  0.00    +0.000 F 
ENDBRANCH   5  23
BRANCH   1  28
ATOM     27  C   UNL     1       5.986   3.820  13.716  0.00  0.00    +0.000 C 
ATOM     28  C   UNL     1       6.286   4.359  14.907  0.00  0.00    +0.000 C 
ENDBRANCH   1  28
TORSDOF 4
ENDMDL
MODEL 4
REMARK VINA RESULT:      -8.4      3.524      8.021
REMARK  Name = 
REMARK  5 active torsions:
REMARK  status: ('A' for Active; 'I' for Inactive)
REMARK    1  A    between atoms: C_2  and  C_3
REMARK    2  A    between atoms: C_7  and  C_8
REMARK    3  A    between atoms: N_14  and  C_15
REMARK    4  A    between atoms: C_19  and  C_20
REMARK    5  A    between atoms: N_24  and  C_25
REMARK                            x       y       z     vdW  Elec       q    Type
REMARK                         _______ _______ _______ _____ _____    ______ ____
ROOT
ATOM      1  C   UNL     1       4.763   4.469  16.541  0.00  0.00    +0.000 A 
ATOM      2  C   UNL     1       4.409   5.800  16.769  0.00  0.00    +0.000 A 
ATOM      3  C   UNL     1       3.594   6.078  17.849  0.00  0.00    +0.000 A 
ATOM      4  C   UNL     1       3.090   5.100  18.699  0.00  0.00    +0.000 A 
ATOM      5  C   UNL     1       3.386   3.760  18.471  0.00  0.00    +0.000 A 
ATOM      6  C   UNL     1       4.230   3.462  17.376  0.00  0.00    +0.000 A 
ATOM      7  C   UNL     1       2.262   5.753  19.761  0.00  0.00    +0.000 C 
ATOM      8  N   UNL     1       2.299   7.167  19.401  0.00  0.00    +0.000 N 
ATOM      9  C   UNL     1       3.100   7.386  18.279  0.00  0.00    +0.000 C 
ATOM     10  O   UNL     1       3.392   8.408  17.683  0.00  0.00    +0.000 OA
ENDROOT
BRANCH   8  11
ATOM     11  C   UNL     1       1.545   8.149  20.094  0.00  0.00    +0.000 A 
ATOM     12  C   UNL     1       1.271   8.026  21.461  0.00  0.00    +0.000 A 
ATOM     13  C   UNL     1       0.555   9.007  22.148  0.00  0.00    +0.000 A 
ATOM     14  C   UNL     1       0.113  10.142  21.478  0.00  0.00    +0.000 A 
ATOM     15  C   UNL     1       0.408  10.319  20.124  0.00  0.00    +0.000 A 
ATOM     16  C   UNL     1       1.086   9.299  19.434  0.00  0.00    +0.000 A 
BRANCH  15  17
ATOM     17  C   UNL     1       0.068  11.550  19.412  0.00  0.00    +0.000 A 
ATOM     18  N   UNL     1      -0.902  11.688  18.524  0.00  0.00    +0.000 NA
ATOM     19  N   UNL     1      -0.853  12.962  18.009  0.00  0.00    +0.000 NA
ATOM     20  C   UNL     1       0.160  13.575  18.572  0.00  0.00    +0.000 A 
ATOM     21  N   UNL     1       0.769  12.734  19.453  0.00  0.00    +0.000 N 
ATOM     22  C   UNL     1       1.978  13.026  20.177  0.00  0.00    +0.000 C 
ENDBRANCH  15  17
ENDBRANCH   8  11
BRANCH   5  23
ATOM     23  C   UNL     1       2.840   2.647  19.325  0.00  0.00    +0.000 C 
ATOM     24  F   UNL     1       1.484   2.662  19.438  0.00  0.00    +0.000 F 
ATOM     25  F   UNL     1       3.159   1.417  18.835  0.00  0.00    +0.000 F 
ATOM     26  F   UNL     1       3.321   2.682  20.597  0.00  0.00    +0.000 F 
ENDBRANCH   5  23
BRANCH   1  28
ATOM     27  C   UNL     1       6.827   4.671  15.175  0.00  0.00    +0.000 C 
ATOM     28  C   UNL     1       5.643   4.092  15.426  0.00  0.00    +0.000 C 
ENDBRANCH   1  28
TORSDOF 4
ENDMDL
MODEL 5
REMARK VINA RESULT:      -8.4      0.960      1.259
REMARK  Name = 
REMARK  5 active torsions:
REMARK  status: ('A' for Active; 'I' for Inactive)
REMARK    1  A    between atoms: C_2  and  C_3
REMARK    2  A    between atoms: C_7  and  C_8
REMARK    3  A    between atoms: N_14  and  C_15
REMARK    4  A    between atoms: C_19  and  C_20
REMARK    5  A    between atoms: N_24  and  C_25
REMARK                            x       y       z     vdW  Elec       q    Type
REMARK                         _______ _______ _______ _____ _____    ______ ____
ROOT
ATOM      1  C   UNL     1      -0.225  11.652  19.403  0.00  0.00    +0.000 A 
ATOM      2  C   UNL     1       0.570  10.820  18.614  0.00  0.00    +0.000 A 
ATOM      3  C   UNL     1       1.022   9.638  19.169  0.00  0.00    +0.000 A 
ATOM      4  C   UNL     1       0.748   9.253  20.477  0.00  0.00    +0.000 A 
ATOM      5  C   UNL     1      -0.003  10.083  21.304  0.00  0.00    +0.000 A 
ATOM      6  C   UNL     1      -0.483  11.290  20.744  0.00  0.00    +0.000 A 
ATOM      7  C   UNL     1       1.378   7.921  20.738  0.00  0.00    +0.000 C 
ATOM      8  N   UNL     1       2.072   7.621  19.489  0.00  0.00    +0.000 N 
ATOM      9  C   UNL     1       1.859   8.619  18.536  0.00  0.00    +0.000 C 
ATOM     10  O   UNL     1       2.248   8.734  17.387  0.00  0.00    +0.000 OA
ENDROOT
BRANCH   8  11
ATOM     11  C   UNL     1       2.902   6.482  19.334  0.00  0.00    +0.000 A 
ATOM     12  C   UNL     1       2.621   5.280  19.996  0.00  0.00    +0.000 A 
ATOM     13  C   UNL     1       3.421   4.151  19.820  0.00  0.00    +0.000 A 
ATOM     14  C   UNL     1       4.512   4.200  18.959  0.00  0.00    +0.000 A 
ATOM     15  C   UNL     1       4.795   5.367  18.247  0.00  0.00    +0.000 A 
ATOM     16  C   UNL     1       4.011   6.512  18.474  0.00  0.00    +0.000 A 
BRANCH  15  17
ATOM     17  C   UNL     1       5.857   5.425  17.244  0.00  0.00    +0.000 A 
ATOM     18  N   UNL     1       6.853   6.295  17.220  0.00  0.00    +0.000 NA
ATOM     19  N   UNL     1       7.592   6.090  16.079  0.00  0.00    +0.000 NA
ATOM     20  C   UNL     1       7.024   5.114  15.413  0.00  0.00    +0.000 A 
ATOM     21  N   UNL     1       5.935   4.668  16.097  0.00  0.00    +0.000 N 
ATOM     22  C   UNL     1       5.006   3.677  15.623  0.00  0.00    +0.000 C 
ENDBRANCH  15  17
ENDBRANCH   8  11
BRANCH   5  23
ATOM     23  C   UNL     1      -0.301   9.749  22.741  0.00  0.00    +0.000 C 
ATOM     24  F   UNL     1      -0.996  10.720  23.393  0.00  0.00    +0.000 F 
ATOM     25  F   UNL     1      -1.044   8.614  22.863  0.00  0.00    +0.000 F 
ATOM     26  F   UNL     1       0.826   9.541  23.472  0.00  0.00    +0.000 F 
ENDBRANCH   5  23
BRANCH   1  28
ATOM     27  C   UNL     1      -0.047  14.043  18.756  0.00  0.00    +0.000 C 
ATOM     28  C   UNL     1      -0.763  12.916  18.880  0.00  0.00    +0.000 C 
ENDBRANCH   1  28
TORSDOF 4
ENDMDL
MODEL 6
REMARK VINA RESULT:      -8.3      3.305      7.835
REMARK  Name = 
REMARK  5 active torsions:
REMARK  status: ('A' for Active; 'I' for Inactive)
REMARK    1  A    between atoms: C_2  and  C_3
REMARK    2  A    between atoms: C_7  and  C_8
REMARK    3  A    between atoms: N_14  and  C_15
REMARK    4  A    between atoms: C_19  and  C_20
REMARK    5  A    between atoms: N_24  and  C_25
REMARK                            x       y       z     vdW  Elec       q    Type
REMARK                         _______ _______ _______ _____ _____    ______ ____
ROOT
ATOM      1  C   UNL     1       3.978   4.391  17.415  0.00  0.00    +0.000 A 
ATOM      2  C   UNL     1       3.710   5.758  17.501  0.00  0.00    +0.000 A 
ATOM      3  C   UNL     1       2.961   6.206  18.571  0.00  0.00    +0.000 A 
ATOM      4  C   UNL     1       2.440   5.363  19.547  0.00  0.00    +0.000 A 
ATOM      5  C   UNL     1       2.650   3.991  19.465  0.00  0.00    +0.000 A 
ATOM      6  C   UNL     1       3.427   3.519  18.381  0.00  0.00    +0.000 A 
ATOM      7  C   UNL     1       1.699   6.182  20.557  0.00  0.00    +0.000 C 
ATOM      8  N   UNL     1       1.800   7.541  20.034  0.00  0.00    +0.000 N 
ATOM      9  C   UNL     1       2.561   7.582  18.865  0.00  0.00    +0.000 C 
ATOM     10  O   UNL     1       2.884   8.510  18.143  0.00  0.00    +0.000 OA
ENDROOT
BRANCH   8  11
ATOM     11  C   UNL     1       1.134   8.640  20.636  0.00  0.00    +0.000 A 
ATOM     12  C   UNL     1       0.730   8.602  21.976  0.00  0.00    +0.000 A 
ATOM     13  C   UNL     1       0.102   9.693  22.576  0.00  0.00    +0.000 A 
ATOM     14  C   UNL     1      -0.119  10.855  21.845  0.00  0.00    +0.000 A 
ATOM     15  C   UNL     1       0.312  10.945  20.519  0.00  0.00    +0.000 A 
ATOM     16  C   UNL     1       0.897   9.820  19.914  0.00  0.00    +0.000 A 
BRANCH  15  17
ATOM     17  C   UNL     1       0.208  12.187  19.754  0.00  0.00    +0.000 A 
ATOM     18  N   UNL     1      -0.689  12.446  18.817  0.00  0.00    +0.000 NA
ATOM     19  N   UNL     1      -0.410  13.674  18.265  0.00  0.00    +0.000 NA
ATOM     20  C   UNL     1       0.666  14.135  18.855  0.00  0.00    +0.000 A 
ATOM     21  N   UNL     1       1.092  13.241  19.790  0.00  0.00    +0.000 N 
ATOM     22  C   UNL     1       2.302  13.360  20.560  0.00  0.00    +0.000 C 
ENDBRANCH  15  17
ENDBRANCH   8  11
BRANCH   5  23
ATOM     23  C   UNL     1       2.081   3.017  20.462  0.00  0.00    +0.000 C 
ATOM     24  F   UNL     1       2.829   2.894  21.593  0.00  0.00    +0.000 F 
ATOM     25  F   UNL     1       0.835   3.376  20.879  0.00  0.00    +0.000 F 
ATOM     26  F   UNL     1       1.961   1.761  19.955  0.00  0.00    +0.000 F 
ENDBRANCH   5  23
BRANCH   1  28
ATOM     27  C   UNL     1       5.386   4.580  15.379  0.00  0.00    +0.000 C 
ATOM     28  C   UNL     1       4.785   3.837  16.320  0.00  0.00    +0.000 C 
ENDBRANCH   1  28
TORSDOF 4
ENDMDL
MODEL 7
REMARK VINA RESULT:      -8.3      3.308      7.827
REMARK  Name = 
REMARK  5 active torsions:
REMARK  status: ('A' for Active; 'I' for Inactive)
REMARK    1  A    between atoms: C_2  and  C_3
REMARK    2  A    between atoms: C_7  and  C_8
REMARK    3  A    between atoms: N_14  and  C_15
REMARK    4  A    between atoms: C_19  and  C_20
REMARK    5  A    between atoms: N_24  and  C_25
REMARK                            x       y       z     vdW  Elec       q    Type
REMARK                         _______ _______ _______ _____ _____    ______ ____
ROOT
ATOM      1  C   UNL     1       3.718   4.604  17.692  0.00  0.00    +0.000 A 
ATOM      2  C   UNL     1       3.410   5.965  17.714  0.00  0.00    +0.000 A 
ATOM      3  C   UNL     1       2.704   6.453  18.796  0.00  0.00    +0.000 A 
ATOM      4  C   UNL     1       2.262   5.653  19.845  0.00  0.00    +0.000 A 
ATOM      5  C   UNL     1       2.512   4.285  19.830  0.00  0.00    +0.000 A 
ATOM      6  C   UNL     1       3.246   3.774  18.734  0.00  0.00    +0.000 A 
ATOM      7  C   UNL     1       1.547   6.507  20.844  0.00  0.00    +0.000 C 
ATOM      8  N   UNL     1       1.576   7.836  20.241  0.00  0.00    +0.000 N 
ATOM      9  C   UNL     1       2.274   7.831  19.032  0.00  0.00    +0.000 C 
ATOM     10  O   UNL     1       2.529   8.724  18.243  0.00  0.00    +0.000 OA
ENDROOT
BRANCH   8  11
ATOM     11  C   UNL     1       0.907   8.947  20.814  0.00  0.00    +0.000 A 
ATOM     12  C   UNL     1       0.356   8.882  22.100  0.00  0.00    +0.000 A 
ATOM     13  C   UNL     1      -0.276   9.985  22.675  0.00  0.00    +0.000 A 
ATOM     14  C   UNL     1      -0.353  11.184  21.975  0.00  0.00    +0.000 A 
ATOM     15  C   UNL     1       0.226  11.299  20.710  0.00  0.00    +0.000 A 
ATOM     16  C   UNL     1       0.814  10.165  20.123  0.00  0.00    +0.000 A 
BRANCH  15  17
ATOM     17  C   UNL     1       0.273  12.572  19.992  0.00  0.00    +0.000 A 
ATOM     18  N   UNL     1       1.006  13.622  20.326  0.00  0.00    +0.000 NA
ATOM     19  N   UNL     1       0.714  14.655  19.467  0.00  0.00    +0.000 NA
ATOM     20  C   UNL     1      -0.209  14.230  18.638  0.00  0.00    +0.000 A 
ATOM     21  N   UNL     1      -0.520  12.936  18.928  0.00  0.00    +0.000 N 
ATOM     22  C   UNL     1      -1.564  12.173  18.296  0.00  0.00    +0.000 C 
ENDBRANCH  15  17
ENDBRANCH   8  11
BRANCH   5  23
ATOM     23  C   UNL     1       2.027   3.355  20.909  0.00  0.00    +0.000 C 
ATOM     24  F   UNL     1       2.450   2.071  20.754  0.00  0.00    +0.000 F 
ATOM     25  F   UNL     1       2.448   3.737  22.146  0.00  0.00    +0.000 F 
ATOM     26  F   UNL     1       0.670   3.296  20.975  0.00  0.00    +0.000 F 
ENDBRANCH   5  23
BRANCH   1  28
ATOM     27  C   UNL     1       5.592   4.558  16.063  0.00  0.00    +0.000 C 
ATOM     28  C   UNL     1       4.485   4.011  16.588  0.00  0.00    +0.000 C 
ENDBRANCH   1  28
TORSDOF 4
ENDMDL
MODEL 8
REMARK VINA RESULT:      -8.3      3.690      8.117
REMARK  Name = 
REMARK  5 active torsions:
REMARK  status: ('A' for Active; 'I' for Inactive)
REMARK    1  A    between atoms: C_2  and  C_3
REMARK    2  A    between atoms: C_7  and  C_8
REMARK    3  A    between atoms: N_14  and  C_15
REMARK    4  A    between atoms: C_19  and  C_20
REMARK    5  A    between atoms: N_24  and  C_25
REMARK                            x       y       z     vdW  Elec       q    Type
REMARK                         _______ _______ _______ _____ _____    ______ ____
ROOT
ATOM      1  C   UNL     1       5.330   5.039  15.985  0.00  0.00    +0.000 A 
ATOM      2  C   UNL     1       4.788   6.296  16.263  0.00  0.00    +0.000 A 
ATOM      3  C   UNL     1       3.967   6.418  17.367  0.00  0.00    +0.000 A 
ATOM      4  C   UNL     1       3.633   5.351  18.194  0.00  0.00    +0.000 A 
ATOM      5  C   UNL     1       4.118   4.077  17.917  0.00  0.00    +0.000 A 
ATOM      6  C   UNL     1       4.971   3.940  16.797  0.00  0.00    +0.000 A 
ATOM      7  C   UNL     1       2.743   5.843  19.292  0.00  0.00    +0.000 C 
ATOM      8  N   UNL     1       2.563   7.257  18.978  0.00  0.00    +0.000 N 
ATOM      9  C   UNL     1       3.296   7.625  17.848  0.00  0.00    +0.000 C 
ATOM     10  O   UNL     1       3.420   8.696  17.280  0.00  0.00    +0.000 OA
ENDROOT
BRANCH   8  11
ATOM     11  C   UNL     1       1.689   8.095  19.716  0.00  0.00    +0.000 A 
ATOM     12  C   UNL     1       1.322   7.787  21.032  0.00  0.00    +0.000 A 
ATOM     13  C   UNL     1       0.486   8.628  21.767  0.00  0.00    +0.000 A 
ATOM     14  C   UNL     1       0.014   9.806  21.201  0.00  0.00    +0.000 A 
ATOM     15  C   UNL     1       0.397  10.169  19.908  0.00  0.00    +0.000 A 
ATOM     16  C   UNL     1       1.198   9.287  19.161  0.00  0.00    +0.000 A 
BRANCH  15  17
ATOM     17  C   UNL     1       0.022  11.454  19.321  0.00  0.00    +0.000 A 
ATOM     18  N   UNL     1      -0.926  11.646  18.418  0.00  0.00    +0.000 NA
ATOM     19  N   UNL     1      -0.920  12.969  18.045  0.00  0.00    +0.000 NA
ATOM     20  C   UNL     1       0.046  13.560  18.706  0.00  0.00    +0.000 A 
ATOM     21  N   UNL     1       0.665  12.655  19.513  0.00  0.00    +0.000 N 
ATOM     22  C   UNL     1       1.837  12.918  20.307  0.00  0.00    +0.000 C 
ENDBRANCH  15  17
ENDBRANCH   8  11
BRANCH   5  23
ATOM     23  C   UNL     1       3.763   2.871  18.745  0.00  0.00    +0.000 C 
ATOM     24  F   UNL     1       4.565   2.700  19.831  0.00  0.00    +0.000 F 
ATOM     25  F   UNL     1       2.492   2.934  19.228  0.00  0.00    +0.000 F 
ATOM     26  F   UNL     1       3.840   1.713  18.037  0.00  0.00    +0.000 F 
ENDBRANCH   5  23
BRANCH   1  28
ATOM     27  C   UNL     1       6.089   3.841  13.947  0.00  0.00    +0.000 C 
ATOM     28  C   UNL     1       6.229   4.830  14.842  0.00  0.00    +0.000 C 
ENDBRANCH   1  28
TORSDOF 4
ENDMDL
MODEL 9
REMARK VINA RESULT:      -8.2      2.066      3.140
REMARK  Name = 
REMARK  5 active torsions:
REMARK  status: ('A' for Active; 'I' for Inactive)
REMARK    1  A    between atoms: C_2  and  C_3
REMARK    2  A    between atoms: C_7  and  C_8
REMARK    3  A    between atoms: N_14  and  C_15
REMARK    4  A    between atoms: C_19  and  C_20
REMARK    5  A    between atoms: N_24  and  C_25
REMARK                            x       y       z     vdW  Elec       q    Type
REMARK                         _______ _______ _______ _____ _____    ______ ____
ROOT
ATOM      1  C   UNL     1      -0.016  12.661  20.232  0.00  0.00    +0.000 A 
ATOM      2  C   UNL     1       0.687  12.068  19.182  0.00  0.00    +0.000 A 
ATOM      3  C   UNL     1       1.015  10.731  19.294  0.00  0.00    +0.000 A 
ATOM      4  C   UNL     1       0.704   9.958  20.408  0.00  0.00    +0.000 A 
ATOM      5  C   UNL     1       0.045  10.530  21.491  0.00  0.00    +0.000 A 
ATOM      6  C   UNL     1      -0.307  11.896  21.384  0.00  0.00    +0.000 A 
ATOM      7  C   UNL     1       1.193   8.561  20.186  0.00  0.00    +0.000 C 
ATOM      8  N   UNL     1       1.850   8.632  18.885  0.00  0.00    +0.000 N 
ATOM      9  C   UNL     1       1.741   9.907  18.328  0.00  0.00    +0.000 C 
ATOM     10  O   UNL     1       2.136  10.363  17.269  0.00  0.00    +0.000 OA
ENDROOT
BRANCH   8  11
ATOM     11  C   UNL     1       2.557   7.535  18.328  0.00  0.00    +0.000 A 
ATOM     12  C   UNL     1       3.780   7.715  17.671  0.00  0.00    +0.000 A 
ATOM     13  C   UNL     1       4.490   6.633  17.150  0.00  0.00    +0.000 A 
ATOM     14  C   UNL     1       3.992   5.343  17.293  0.00  0.00    +0.000 A 
ATOM     15  C   UNL     1       2.798   5.121  17.982  0.00  0.00    +0.000 A 
ATOM     16  C   UNL     1       2.070   6.226  18.457  0.00  0.00    +0.000 A 
BRANCH  15  17
ATOM     17  C   UNL     1       2.302   3.774  18.259  0.00  0.00    +0.000 A 
ATOM     18  N   UNL     1       1.115   3.300  17.916  0.00  0.00    +0.000 NA
ATOM     19  N   UNL     1       0.981   2.031  18.428  0.00  0.00    +0.000 NA
ATOM     20  C   UNL     1       2.076   1.759  19.096  0.00  0.00    +0.000 A 
ATOM     21  N   UNL     1       2.930   2.817  19.022  0.00  0.00    +0.000 N 
ATOM     22  C   UNL     1       4.184   2.920  19.720  0.00  0.00    +0.000 C 
ENDBRANCH  15  17
ENDBRANCH   8  11
BRANCH   5  23
ATOM     23  C   UNL     1      -0.283   9.764  22.744  0.00  0.00    +0.000 C 
ATOM     24  F   UNL     1      -1.100  10.439  23.598  0.00  0.00    +0.000 F 
ATOM     25  F   UNL     1      -0.915   8.587  22.478  0.00  0.00    +0.000 F 
ATOM     26  F   UNL     1       0.825   9.442  23.464  0.00  0.00    +0.000 F 
ENDBRANCH   5  23
BRANCH   1  28
ATOM     27  C   UNL     1       0.328  15.050  19.650  0.00  0.00    +0.000 C 
ATOM     28  C   UNL     1      -0.421  14.072  20.181  0.00  0.00    +0.000 C 
ENDBRANCH   1  28
TORSDOF 4
ENDMDL
