MODEL 1
REMARK VINA RESULT:      -9.2      0.000      0.000
REMARK  Name = 
REMARK  5 active torsions:
REMARK  status: ('A' for Active; 'I' for Inactive)
REMARK    1  A    between atoms: C_2  and  C_3
REMARK    2  A    between atoms: C_7  and  C_8
REMARK    3  A    between atoms: C_8  and  S_9
REMARK    4  A    between atoms: S_9  and  C_12
REMARK    5  A    between atoms: C_23  and  C_24
REMARK                            x       y       z     vdW  Elec       q    Type
REMARK                         _______ _______ _______ _____ _____    ______ ____
ROOT
ATOM      1  C   UNL     1       2.404   6.984  19.566  0.00  0.00    +0.000 A 
ATOM      2  C   UNL     1       1.692   6.814  20.755  0.00  0.00    +0.000 A 
ATOM      3  C   UNL     1       0.926   7.860  21.270  0.00  0.00    +0.000 A 
ATOM      4  C   UNL     1       0.777   9.045  20.552  0.00  0.00    +0.000 A 
ATOM      5  C   UNL     1       1.350   9.187  19.280  0.00  0.00    +0.000 A 
ATOM      6  C   UNL     1       2.182   8.152  18.807  0.00  0.00    +0.000 A 
ENDROOT
BRANCH   1   8
ATOM      7  O   UNL     1       4.582   6.135  19.492  0.00  0.00    +0.000 OA
ATOM      8  C   UNL     1       3.429   6.003  19.077  0.00  0.00    +0.000 C 
ATOM      9  N   UNL     1       3.061   4.926  18.266  0.00  0.00    +0.000 N 
ATOM     10  C   UNL     1       1.717   4.514  17.898  0.00  0.00    +0.000 C 
ATOM     11  C   UNL     1       1.725   3.005  18.014  0.00  0.00    +0.000 C 
ATOM     12  C   UNL     1       3.138   2.619  17.616  0.00  0.00    +0.000 C 
ATOM     13  C   UNL     1       4.009   3.828  18.021  0.00  0.00    +0.000 C 
BRANCH  13  14
ATOM     14  C   UNL     1       5.046   4.134  16.952  0.00  0.00    +0.000 A 
ATOM     15  C   UNL     1       6.389   4.398  17.282  0.00  0.00    +0.000 A 
ATOM     16  C   UNL     1       7.320   4.712  16.290  0.00  0.00    +0.000 A 
ATOM     17  C   UNL     1       6.918   4.757  14.962  0.00  0.00    +0.000 A 
ATOM     18  F   UNL     1       7.814   5.046  14.010  0.00  0.00    +0.000 F 
ATOM     19  C   UNL     1       5.598   4.507  14.609  0.00  0.00    +0.000 A 
ATOM     20  C   UNL     1       4.663   4.199  15.601  0.00  0.00    +0.000 A 
ENDBRANCH  13  14
ENDBRANCH   1   8
BRANCH   5  21
ATOM     21  C   UNL     1       1.135  10.443  18.459  0.00  0.00    +0.000 C 
BRANCH  21  22
ATOM     22  S   UNL     1      -0.126  11.479  19.211  0.00  0.00    +0.000 S 
ATOM     23  O   UNL     1      -0.332  11.072  20.589  0.00  0.00    +0.000 OA
ATOM     24  O   UNL     1       0.143  12.868  18.882  0.00  0.00    +0.000 OA
BRANCH  22  25
ATOM     25  C   UNL     1      -1.620  11.039  18.332  0.00  0.00    +0.000 A 
ATOM     26  C   UNL     1      -2.801  11.740  18.594  0.00  0.00    +0.000 A 
ATOM     27  C   UNL     1      -3.943  11.471  17.836  0.00  0.00    +0.000 A 
ATOM     28  C   UNL     1      -3.899  10.517  16.820  0.00  0.00    +0.000 A 
ATOM     29  C   UNL     1      -2.717   9.829  16.551  0.00  0.00    +0.000 A 
ATOM     30  C   UNL     1      -1.570  10.089  17.307  0.00  0.00    +0.000 A 
ENDBRANCH  22  25
ENDBRANCH  21  22
ENDBRANCH   5  21
TORSDOF 5
ENDMDL
MODEL 2
REMARK VINA RESULT:      -9.0      2.023      2.824
REMARK  Name = 
REMARK  5 active torsions:
REMARK  status: ('A' for Active; 'I' for Inactive)
REMARK    1  A    between atoms: C_2  and  C_3
REMARK    2  A    between atoms: C_7  and  C_8
REMARK    3  A    between atoms: C_8  and  S_9
REMARK    4  A    between atoms: S_9  and  C_12
REMARK    5  A    between atoms: C_23  and  C_24
REMARK                            x       y       z     vdW  Elec       q    Type
REMARK                         _______ _______ _______ _____ _____    ______ ____
ROOT
ATOM      1  C   UNL     1       2.404   7.789  18.653  0.00  0.00    +0.000 A 
ATOM      2  C   UNL     1       2.065   8.754  17.703  0.00  0.00    +0.000 A 
ATOM      3  C   UNL     1       0.955   9.575  17.901  0.00  0.00    +0.000 A 
ATOM      4  C   UNL     1       0.238   9.513  19.094  0.00  0.00    +0.000 A 
ATOM      5  C   UNL     1       0.648   8.667  20.133  0.00  0.00    +0.000 A 
ATOM      6  C   UNL     1       1.725   7.790  19.889  0.00  0.00    +0.000 A 
ENDROOT
BRANCH   1   8
ATOM      7  O   UNL     1       4.585   6.951  18.754  0.00  0.00    +0.000 OA
ATOM      8  C   UNL     1       3.427   6.718  18.405  0.00  0.00    +0.000 C 
ATOM      9  N   UNL     1       3.051   5.472  17.894  0.00  0.00    +0.000 N 
ATOM     10  C   UNL     1       1.703   4.980  17.663  0.00  0.00    +0.000 C 
ATOM     11  C   UNL     1       1.722   3.548  18.150  0.00  0.00    +0.000 C 
ATOM     12  C   UNL     1       3.131   3.076  17.837  0.00  0.00    +0.000 C 
ATOM     13  C   UNL     1       4.002   4.349  17.913  0.00  0.00    +0.000 C 
BRANCH  13  14
ATOM     14  C   UNL     1       5.019   4.381  16.784  0.00  0.00    +0.000 A 
ATOM     15  C   UNL     1       6.396   4.526  17.036  0.00  0.00    +0.000 A 
ATOM     16  C   UNL     1       7.313   4.589  15.985  0.00  0.00    +0.000 A 
ATOM     17  C   UNL     1       6.861   4.500  14.676  0.00  0.00    +0.000 A 
ATOM     18  F   UNL     1       7.742   4.548  13.668  0.00  0.00    +0.000 F 
ATOM     19  C   UNL     1       5.507   4.364  14.397  0.00  0.00    +0.000 A 
ATOM     20  C   UNL     1       4.587   4.307  15.448  0.00  0.00    +0.000 A 
ENDBRANCH  13  14
ENDBRANCH   1   8
BRANCH   5  21
ATOM     21  C   UNL     1      -0.082   8.644  21.461  0.00  0.00    +0.000 C 
BRANCH  21  22
ATOM     22  S   UNL     1       0.319  10.106  22.425  0.00  0.00    +0.000 S 
ATOM     23  O   UNL     1       0.377   9.760  23.834  0.00  0.00    +0.000 OA
ATOM     24  O   UNL     1       1.422  10.806  21.790  0.00  0.00    +0.000 OA
BRANCH  22  25
ATOM     25  C   UNL     1      -1.116  11.155  22.229  0.00  0.00    +0.000 A 
ATOM     26  C   UNL     1      -1.953  11.385  23.325  0.00  0.00    +0.000 A 
ATOM     27  C   UNL     1      -3.014  12.285  23.204  0.00  0.00    +0.000 A 
ATOM     28  C   UNL     1      -3.228  12.955  22.000  0.00  0.00    +0.000 A 
ATOM     29  C   UNL     1      -2.384  12.736  20.912  0.00  0.00    +0.000 A 
ATOM     30  C   UNL     1      -1.322  11.834  21.024  0.00  0.00    +0.000 A 
ENDBRANCH  22  25
ENDBRANCH  21  22
ENDBRANCH   5  21
TORSDOF 5
ENDMDL
MODEL 3
REMARK VINA RESULT:      -9.0      1.998      2.869
REMARK  Name = 
REMARK  5 active torsions:
REMARK  status: ('A' for Active; 'I' for Inactive)
REMARK    1  A    between atoms: C_2  and  C_3
REMARK    2  A    between atoms: C_7  and  C_8
REMARK    3  A    between atoms: C_8  and  S_9
REMARK    4  A    between atoms: S_9  and  C_12
REMARK    5  A    between atoms: C_23  and  C_24
REMARK                            x       y       z     vdW  Elec       q    Type
REMARK                         _______ _______ _______ _____ _____    ______ ____
ROOT
ATOM      1  C   UNL     1       2.385   6.882  19.605  0.00  0.00    +0.000 A 
ATOM      2  C   UNL     1       1.613   6.637  20.742  0.00  0.00    +0.000 A 
ATOM      3  C   UNL     1       0.831   7.653  21.292  0.00  0.00    +0.000 A 
ATOM      4  C   UNL     1       0.730   8.888  20.654  0.00  0.00    +0.000 A 
ATOM      5  C   UNL     1       1.368   9.113  19.426  0.00  0.00    +0.000 A 
ATOM      6  C   UNL     1       2.213   8.104  18.922  0.00  0.00    +0.000 A 
ENDROOT
BRANCH   1   8
ATOM      7  O   UNL     1       4.576   6.069  19.512  0.00  0.00    +0.000 OA
ATOM      8  C   UNL     1       3.425   5.925  19.098  0.00  0.00    +0.000 C 
ATOM      9  N   UNL     1       3.071   4.854  18.272  0.00  0.00    +0.000 N 
ATOM     10  C   UNL     1       1.732   4.426  17.901  0.00  0.00    +0.000 C 
ATOM     11  C   UNL     1       1.765   2.917  17.994  0.00  0.00    +0.000 C 
ATOM     12  C   UNL     1       3.183   2.559  17.587  0.00  0.00    +0.000 C 
ATOM     13  C   UNL     1       4.036   3.775  18.008  0.00  0.00    +0.000 C 
BRANCH  13  14
ATOM     14  C   UNL     1       5.064   4.114  16.940  0.00  0.00    +0.000 A 
ATOM     15  C   UNL     1       6.404   4.395  17.270  0.00  0.00    +0.000 A 
ATOM     16  C   UNL     1       7.327   4.739  16.280  0.00  0.00    +0.000 A 
ATOM     17  C   UNL     1       6.919   4.797  14.955  0.00  0.00    +0.000 A 
ATOM     18  F   UNL     1       7.808   5.115  14.004  0.00  0.00    +0.000 F 
ATOM     19  C   UNL     1       5.603   4.532  14.601  0.00  0.00    +0.000 A 
ATOM     20  C   UNL     1       4.676   4.194  15.592  0.00  0.00    +0.000 A 
ENDBRANCH  13  14
ENDBRANCH   1   8
BRANCH   5  21
ATOM     21  C   UNL     1       1.207  10.427  18.688  0.00  0.00    +0.000 C 
BRANCH  21  22
ATOM     22  S   UNL     1       0.672  11.721  19.815  0.00  0.00    +0.000 S 
ATOM     23  O   UNL     1      -0.769  11.873  19.731  0.00  0.00    +0.000 OA
ATOM     24  O   UNL     1       1.322  11.530  21.100  0.00  0.00    +0.000 OA
BRANCH  22  25
ATOM     25  C   UNL     1       1.373  13.211  19.118  0.00  0.00    +0.000 A 
ATOM     26  C   UNL     1       0.705  14.428  19.289  0.00  0.00    +0.000 A 
ATOM     27  C   UNL     1       1.300  15.608  18.839  0.00  0.00    +0.000 A 
ATOM     28  C   UNL     1       2.555  15.571  18.232  0.00  0.00    +0.000 A 
ATOM     29  C   UNL     1       3.225  14.359  18.075  0.00  0.00    +0.000 A 
ATOM     30  C   UNL     1       2.636  13.172  18.520  0.00  0.00    +0.000 A 
ENDBRANCH  22  25
ENDBRANCH  21  22
ENDBRANCH   5  21
TORSDOF 5
ENDMDL
MODEL 4
REMARK VINA RESULT:      -9.0      0.324      1.286
REMARK  Name = 
REMARK  5 active torsions:
REMARK  status: ('A' for Active; 'I' for Inactive)
REMARK    1  A    between atoms: C_2  and  C_3
REMARK    2  A    between atoms: C_7  and  C_8
REMARK    3  A    between atoms: C_8  and  S_9
REMARK    4  A    between atoms: S_9  and  C_12
REMARK    5  A    between atoms: C_23  and  C_24
REMARK                            x       y       z     vdW  Elec       q    Type
REMARK                         _______ _______ _______ _____ _____    ______ ____
ROOT
ATOM      1  C   UNL     1       2.505   7.068  19.359  0.00  0.00    +0.000 A 
ATOM      2  C   UNL     1       1.826   6.915  20.569  0.00  0.00    +0.000 A 
ATOM      3  C   UNL     1       1.058   7.962  21.080  0.00  0.00    +0.000 A 
ATOM      4  C   UNL     1       0.875   9.128  20.339  0.00  0.00    +0.000 A 
ATOM      5  C   UNL     1       1.413   9.249  19.051  0.00  0.00    +0.000 A 
ATOM      6  C   UNL     1       2.247   8.215  18.580  0.00  0.00    +0.000 A 
ENDROOT
BRANCH   1   8
ATOM      7  O   UNL     1       4.692   6.246  19.249  0.00  0.00    +0.000 OA
ATOM      8  C   UNL     1       3.531   6.090  18.866  0.00  0.00    +0.000 C 
ATOM      9  N   UNL     1       3.158   4.989  18.089  0.00  0.00    +0.000 N 
ATOM     10  C   UNL     1       1.810   4.551  17.764  0.00  0.00    +0.000 C 
ATOM     11  C   UNL     1       1.843   3.046  17.914  0.00  0.00    +0.000 C 
ATOM     12  C   UNL     1       3.251   2.669  17.489  0.00  0.00    +0.000 C 
ATOM     13  C   UNL     1       4.115   3.899  17.845  0.00  0.00    +0.000 C 
BRANCH  13  14
ATOM     14  C   UNL     1       5.120   4.194  16.743  0.00  0.00    +0.000 A 
ATOM     15  C   UNL     1       4.778   4.077  15.383  0.00  0.00    +0.000 A 
ATOM     16  C   UNL     1       5.723   4.318  14.384  0.00  0.00    +0.000 A 
ATOM     17  C   UNL     1       7.015   4.685  14.738  0.00  0.00    +0.000 A 
ATOM     18  F   UNL     1       7.918   4.929  13.779  0.00  0.00    +0.000 F 
ATOM     19  C   UNL     1       7.382   4.802  16.073  0.00  0.00    +0.000 A 
ATOM     20  C   UNL     1       6.438   4.554  17.073  0.00  0.00    +0.000 A 
ENDBRANCH  13  14
ENDBRANCH   1   8
BRANCH   5  21
ATOM     21  C   UNL     1       1.160  10.483  18.207  0.00  0.00    +0.000 C 
BRANCH  21  22
ATOM     22  S   UNL     1       0.080  11.628  19.074  0.00  0.00    +0.000 S 
ATOM     23  O   UNL     1       0.020  11.270  20.480  0.00  0.00    +0.000 OA
ATOM     24  O   UNL     1       0.405  12.985  18.671  0.00  0.00    +0.000 OA
BRANCH  22  25
ATOM     25  C   UNL     1      -1.539  11.282  18.400  0.00  0.00    +0.000 A 
ATOM     26  C   UNL     1      -1.693  10.233  17.489  0.00  0.00    +0.000 A 
ATOM     27  C   UNL     1      -2.971   9.892  17.041  0.00  0.00    +0.000 A 
ATOM     28  C   UNL     1      -4.085  10.589  17.509  0.00  0.00    +0.000 A 
ATOM     29  C   UNL     1      -3.931  11.626  18.429  0.00  0.00    +0.000 A 
ATOM     30  C   UNL     1      -2.655  11.976  18.880  0.00  0.00    +0.000 A 
ENDBRANCH  22  25
ENDBRANCH  21  22
ENDBRANCH   5  21
TORSDOF 5
ENDMDL
MODEL 5
REMARK VINA RESULT:      -9.0      3.861      8.528
REMARK  Name = 
REMARK  5 active torsions:
REMARK  status: ('A' for Active; 'I' for Inactive)
REMARK    1  A    between atoms: C_2  and  C_3
REMARK    2  A    between atoms: C_7  and  C_8
REMARK    3  A    between atoms: C_8  and  S_9
REMARK    4  A    between atoms: S_9  and  C_12
REMARK    5  A    between atoms: C_23  and  C_24
REMARK                            x       y       z     vdW  Elec       q    Type
REMARK                         _______ _______ _______ _____ _____    ______ ____
ROOT
ATOM      1  C   UNL     1       2.831   6.925  18.633  0.00  0.00    +0.000 A 
ATOM      2  C   UNL     1       2.938   6.203  19.822  0.00  0.00    +0.000 A 
ATOM      3  C   UNL     1       3.375   4.878  19.802  0.00  0.00    +0.000 A 
ATOM      4  C   UNL     1       3.810   4.298  18.611  0.00  0.00    +0.000 A 
ATOM      5  C   UNL     1       3.864   5.047  17.428  0.00  0.00    +0.000 A 
ATOM      6  C   UNL     1       3.349   6.360  17.449  0.00  0.00    +0.000 A 
ENDROOT
BRANCH   1   8
ATOM      7  O   UNL     1       2.105   8.800  17.437  0.00  0.00    +0.000 OA
ATOM      8  C   UNL     1       2.149   8.260  18.543  0.00  0.00    +0.000 C 
ATOM      9  N   UNL     1       1.503   8.810  19.654  0.00  0.00    +0.000 N 
ATOM     10  C   UNL     1       1.271   8.184  20.944  0.00  0.00    +0.000 C 
ATOM     11  C   UNL     1      -0.149   8.555  21.310  0.00  0.00    +0.000 C 
ATOM     12  C   UNL     1      -0.326   9.942  20.716  0.00  0.00    +0.000 C 
ATOM     13  C   UNL     1       0.613   9.971  19.490  0.00  0.00    +0.000 C 
BRANCH  13  14
ATOM     14  C   UNL     1       1.343  11.301  19.395  0.00  0.00    +0.000 A 
ATOM     15  C   UNL     1       1.948  11.726  18.197  0.00  0.00    +0.000 A 
ATOM     16  C   UNL     1       2.645  12.934  18.137  0.00  0.00    +0.000 A 
ATOM     17  C   UNL     1       2.735  13.729  19.271  0.00  0.00    +0.000 A 
ATOM     18  F   UNL     1       3.392  14.895  19.210  0.00  0.00    +0.000 F 
ATOM     19  C   UNL     1       2.153  13.332  20.468  0.00  0.00    +0.000 A 
ATOM     20  C   UNL     1       1.461  12.119  20.532  0.00  0.00    +0.000 A 
ENDBRANCH  13  14
ENDBRANCH   1   8
BRANCH   5  21
ATOM     21  C   UNL     1       4.402   4.448  16.144  0.00  0.00    +0.000 C 
BRANCH  21  22
ATOM     22  S   UNL     1       5.701   5.486  15.461  0.00  0.00    +0.000 S 
ATOM     23  O   UNL     1       6.480   4.721  14.503  0.00  0.00    +0.000 OA
ATOM     24  O   UNL     1       5.137   6.773  15.095  0.00  0.00    +0.000 OA
BRANCH  22  25
ATOM     25  C   UNL     1       6.781   5.792  16.852  0.00  0.00    +0.000 A 
ATOM     26  C   UNL     1       7.087   7.109  17.206  0.00  0.00    +0.000 A 
ATOM     27  C   UNL     1       7.844   7.355  18.354  0.00  0.00    +0.000 A 
ATOM     28  C   UNL     1       8.281   6.293  19.144  0.00  0.00    +0.000 A 
ATOM     29  C   UNL     1       7.963   4.980  18.798  0.00  0.00    +0.000 A 
ATOM     30  C   UNL     1       7.209   4.725  17.648  0.00  0.00    +0.000 A 
ENDBRANCH  22  25
ENDBRANCH  21  22
ENDBRANCH   5  21
TORSDOF 5
ENDMDL
MODEL 6
REMARK VINA RESULT:      -8.9      4.302      9.831
REMARK  Name = 
REMARK  5 active torsions:
REMARK  status: ('A' for Active; 'I' for Inactive)
REMARK    1  A    between atoms: C_2  and  C_3
REMARK    2  A    between atoms: C_7  and  C_8
REMARK    3  A    between atoms: C_8  and  S_9
REMARK    4  A    between atoms: S_9  and  C_12
REMARK    5  A    between atoms: C_23  and  C_24
REMARK                            x       y       z     vdW  Elec       q    Type
REMARK                         _______ _______ _______ _____ _____    ______ ____
ROOT
ATOM      1  C   UNL     1       1.218   8.949  19.632  0.00  0.00    +0.000 A 
ATOM      2  C   UNL     1       1.471   9.269  18.297  0.00  0.00    +0.000 A 
ATOM      3  C   UNL     1       2.386   8.520  17.556  0.00  0.00    +0.000 A 
ATOM      4  C   UNL     1       2.975   7.383  18.107  0.00  0.00    +0.000 A 
ATOM      5  C   UNL     1       2.621   6.944  19.390  0.00  0.00    +0.000 A 
ATOM      6  C   UNL     1       1.753   7.753  20.153  0.00  0.00    +0.000 A 
ENDROOT
BRANCH   1   8
ATOM      7  O   UNL     1      -0.199   9.300  21.459  0.00  0.00    +0.000 OA
ATOM      8  C   UNL     1       0.440   9.841  20.555  0.00  0.00    +0.000 C 
ATOM      9  N   UNL     1       0.525  11.232  20.448  0.00  0.00    +0.000 N 
ATOM     10  C   UNL     1       1.413  12.002  19.593  0.00  0.00    +0.000 C 
ATOM     11  C   UNL     1       1.906  13.137  20.464  0.00  0.00    +0.000 C 
ATOM     12  C   UNL     1       0.727  13.436  21.373  0.00  0.00    +0.000 C 
ATOM     13  C   UNL     1      -0.015  12.089  21.516  0.00  0.00    +0.000 C 
BRANCH  13  14
ATOM     14  C   UNL     1      -1.521  12.287  21.447  0.00  0.00    +0.000 A 
ATOM     15  C   UNL     1      -2.189  12.437  20.217  0.00  0.00    +0.000 A 
ATOM     16  C   UNL     1      -3.568  12.654  20.174  0.00  0.00    +0.000 A 
ATOM     17  C   UNL     1      -4.288  12.714  21.358  0.00  0.00    +0.000 A 
ATOM     18  F   UNL     1      -5.613  12.909  21.316  0.00  0.00    +0.000 F 
ATOM     19  C   UNL     1      -3.654  12.576  22.587  0.00  0.00    +0.000 A 
ATOM     20  C   UNL     1      -2.273  12.366  22.632  0.00  0.00    +0.000 A 
ENDBRANCH  13  14
ENDBRANCH   1   8
BRANCH   5  21
ATOM     21  C   UNL     1       3.200   5.670  19.971  0.00  0.00    +0.000 C 
BRANCH  21  22
ATOM     22  S   UNL     1       3.017   4.309  18.813  0.00  0.00    +0.000 S 
ATOM     23  O   UNL     1       2.964   3.054  19.541  0.00  0.00    +0.000 OA
ATOM     24  O   UNL     1       1.989   4.645  17.843  0.00  0.00    +0.000 OA
BRANCH  22  25
ATOM     25  C   UNL     1       4.564   4.299  17.916  0.00  0.00    +0.000 A 
ATOM     26  C   UNL     1       4.557   4.059  16.538  0.00  0.00    +0.000 A 
ATOM     27  C   UNL     1       5.749   4.155  15.817  0.00  0.00    +0.000 A 
ATOM     28  C   UNL     1       6.934   4.497  16.467  0.00  0.00    +0.000 A 
ATOM     29  C   UNL     1       6.937   4.750  17.838  0.00  0.00    +0.000 A 
ATOM     30  C   UNL     1       5.749   4.653  18.569  0.00  0.00    +0.000 A 
ENDBRANCH  22  25
ENDBRANCH  21  22
ENDBRANCH   5  21
TORSDOF 5
ENDMDL
MODEL 7
REMARK VINA RESULT:      -8.9      0.725      1.297
REMARK  Name = 
REMARK  5 active torsions:
REMARK  status: ('A' for Active; 'I' for Inactive)
REMARK    1  A    between atoms: C_2  and  C_3
REMARK    2  A    between atoms: C_7  and  C_8
REMARK    3  A    between atoms: C_8  and  S_9
REMARK    4  A    between atoms: S_9  and  C_12
REMARK    5  A    between atoms: C_23  and  C_24
REMARK                            x       y       z     vdW  Elec       q    Type
REMARK                         _______ _______ _______ _____ _____    ______ ____
ROOT
ATOM      1  C   UNL     1       2.514   6.931  19.421  0.00  0.00    +0.000 A 
ATOM      2  C   UNL     1       1.858   6.785  20.644  0.00  0.00    +0.000 A 
ATOM      3  C   UNL     1       1.063   7.819  21.142  0.00  0.00    +0.000 A 
ATOM      4  C   UNL     1       0.832   8.960  20.376  0.00  0.00    +0.000 A 
ATOM      5  C   UNL     1       1.347   9.068  19.077  0.00  0.00    +0.000 A 
ATOM      6  C   UNL     1       2.208   8.050  18.619  0.00  0.00    +0.000 A 
ENDROOT
BRANCH   1   8
ATOM      7  O   UNL     1       4.719   6.157  19.325  0.00  0.00    +0.000 OA
ATOM      8  C   UNL     1       3.565   5.975  18.936  0.00  0.00    +0.000 C 
ATOM      9  N   UNL     1       3.220   4.865  18.158  0.00  0.00    +0.000 N 
ATOM     10  C   UNL     1       1.885   4.397  17.825  0.00  0.00    +0.000 C 
ATOM     11  C   UNL     1       1.950   2.893  17.977  0.00  0.00    +0.000 C 
ATOM     12  C   UNL     1       3.369   2.547  17.562  0.00  0.00    +0.000 C 
ATOM     13  C   UNL     1       4.203   3.796  17.921  0.00  0.00    +0.000 C 
BRANCH  13  14
ATOM     14  C   UNL     1       5.208   4.112  16.825  0.00  0.00    +0.000 A 
ATOM     15  C   UNL     1       6.546   4.433  17.122  0.00  0.00    +0.000 A 
ATOM     16  C   UNL     1       7.447   4.756  16.106  0.00  0.00    +0.000 A 
ATOM     17  C   UNL     1       7.019   4.752  14.785  0.00  0.00    +0.000 A 
ATOM     18  F   UNL     1       7.887   5.048  13.809  0.00  0.00    +0.000 F 
ATOM     19  C   UNL     1       5.703   4.445  14.463  0.00  0.00    +0.000 A 
ATOM     20  C   UNL     1       4.799   4.129  15.480  0.00  0.00    +0.000 A 
ENDBRANCH  13  14
ENDBRANCH   1   8
BRANCH   5  21
ATOM     21  C   UNL     1       1.043  10.272  18.209  0.00  0.00    +0.000 C 
BRANCH  21  22
ATOM     22  S   UNL     1       0.679  11.707  19.228  0.00  0.00    +0.000 S 
ATOM     23  O   UNL     1       0.982  11.407  20.615  0.00  0.00    +0.000 OA
ATOM     24  O   UNL     1       1.226  12.893  18.591  0.00  0.00    +0.000 OA
BRANCH  22  25
ATOM     25  C   UNL     1      -1.100  11.863  19.128  0.00  0.00    +0.000 A 
ATOM     26  C   UNL     1      -1.798  11.141  18.155  0.00  0.00    +0.000 A 
ATOM     27  C   UNL     1      -3.194  11.178  18.141  0.00  0.00    +0.000 A 
ATOM     28  C   UNL     1      -3.883  11.923  19.097  0.00  0.00    +0.000 A 
ATOM     29  C   UNL     1      -3.186  12.631  20.075  0.00  0.00    +0.000 A 
ATOM     30  C   UNL     1      -1.788  12.602  20.094  0.00  0.00    +0.000 A 
ENDBRANCH  22  25
ENDBRANCH  21  22
ENDBRANCH   5  21
TORSDOF 5
ENDMDL
MODEL 8
REMARK VINA RESULT:      -8.8      2.024      3.096
REMARK  Name = 
REMARK  5 active torsions:
REMARK  status: ('A' for Active; 'I' for Inactive)
REMARK    1  A    between atoms: C_2  and  C_3
REMARK    2  A    between atoms: C_7  and  C_8
REMARK    3  A    between atoms: C_8  and  S_9
REMARK    4  A    between atoms: S_9  and  C_12
REMARK    5  A    between atoms: C_23  and  C_24
REMARK                            x       y       z     vdW  Elec       q    Type
REMARK                         _______ _______ _______ _____ _____    ______ ____
ROOT
ATOM      1  C   UNL     1       2.378   6.831  19.627  0.00  0.00    +0.000 A 
ATOM      2  C   UNL     1       1.586   6.523  20.735  0.00  0.00    +0.000 A 
ATOM      3  C   UNL     1       0.788   7.505  21.322  0.00  0.00    +0.000 A 
ATOM      4  C   UNL     1       0.691   8.771  20.747  0.00  0.00    +0.000 A 
ATOM      5  C   UNL     1       1.349   9.063  19.545  0.00  0.00    +0.000 A 
ATOM      6  C   UNL     1       2.210   8.085  19.005  0.00  0.00    +0.000 A 
ENDROOT
BRANCH   1   8
ATOM      7  O   UNL     1       4.590   6.086  19.476  0.00  0.00    +0.000 OA
ATOM      8  C   UNL     1       3.433   5.907  19.092  0.00  0.00    +0.000 C 
ATOM      9  N   UNL     1       3.091   4.828  18.271  0.00  0.00    +0.000 N 
ATOM     10  C   UNL     1       1.757   4.360  17.934  0.00  0.00    +0.000 C 
ATOM     11  C   UNL     1       1.838   2.851  18.022  0.00  0.00    +0.000 C 
ATOM     12  C   UNL     1       3.256   2.538  17.578  0.00  0.00    +0.000 C 
ATOM     13  C   UNL     1       4.081   3.779  17.980  0.00  0.00    +0.000 C 
BRANCH  13  14
ATOM     14  C   UNL     1       5.071   4.152  16.887  0.00  0.00    +0.000 A 
ATOM     15  C   UNL     1       4.705   4.147  15.528  0.00  0.00    +0.000 A 
ATOM     16  C   UNL     1       5.636   4.457  14.535  0.00  0.00    +0.000 A 
ATOM     17  C   UNL     1       6.937   4.782  14.895  0.00  0.00    +0.000 A 
ATOM     18  F   UNL     1       7.827   5.092  13.943  0.00  0.00    +0.000 F 
ATOM     19  C   UNL     1       7.328   4.788  16.227  0.00  0.00    +0.000 A 
ATOM     20  C   UNL     1       6.399   4.470  17.222  0.00  0.00    +0.000 A 
ENDBRANCH  13  14
ENDBRANCH   1   8
BRANCH   5  21
ATOM     21  C   UNL     1       1.194  10.412  18.873  0.00  0.00    +0.000 C 
BRANCH  21  22
ATOM     22  S   UNL     1       0.665  11.651  20.062  0.00  0.00    +0.000 S 
ATOM     23  O   UNL     1      -0.775  11.816  19.985  0.00  0.00    +0.000 OA
ATOM     24  O   UNL     1       1.313  11.393  21.336  0.00  0.00    +0.000 OA
BRANCH  22  25
ATOM     25  C   UNL     1       1.375  13.171  19.441  0.00  0.00    +0.000 A 
ATOM     26  C   UNL     1       2.525  13.117  18.648  0.00  0.00    +0.000 A 
ATOM     27  C   UNL     1       3.021  14.290  18.075  0.00  0.00    +0.000 A 
ATOM     28  C   UNL     1       2.366  15.502  18.286  0.00  0.00    +0.000 A 
ATOM     29  C   UNL     1       1.211  15.552  19.065  0.00  0.00    +0.000 A 
ATOM     30  C   UNL     1       0.710  14.383  19.645  0.00  0.00    +0.000 A 
ENDBRANCH  22  25
ENDBRANCH  21  22
ENDBRANCH   5  21
TORSDOF 5
ENDMDL
MODEL 9
REMARK VINA RESULT:      -8.8      4.328      9.813
REMARK  Name = 
REMARK  5 active torsions:
REMARK  status: ('A' for Active; 'I' for Inactive)
REMARK    1  A    between atoms: C_2  and  C_3
REMARK    2  A    between atoms: C_7  and  C_8
REMARK    3  A    between atoms: C_8  and  S_9
REMARK    4  A    between atoms: S_9  and  C_12
REMARK    5  A    between atoms: C_23  and  C_24
REMARK                            x       y       z     vdW  Elec       q    Type
REMARK                         _______ _______ _______ _____ _____    ______ ____
ROOT
ATOM      1  C   UNL     1       1.145   9.040  19.698  0.00  0.00    +0.000 A 
ATOM      2  C   UNL     1       1.387   9.361  18.361  0.00  0.00    +0.000 A 
ATOM      3  C   UNL     1       2.291   8.608  17.610  0.00  0.00    +0.000 A 
ATOM      4  C   UNL     1       2.879   7.467  18.154  0.00  0.00    +0.000 A 
ATOM      5  C   UNL     1       2.534   7.028  19.440  0.00  0.00    +0.000 A 
ATOM      6  C   UNL     1       1.679   7.840  20.211  0.00  0.00    +0.000 A 
ENDROOT
BRANCH   1   8
ATOM      7  O   UNL     1      -0.256   9.395  21.536  0.00  0.00    +0.000 OA
ATOM      8  C   UNL     1       0.380   9.934  20.630  0.00  0.00    +0.000 C 
ATOM      9  N   UNL     1       0.475  11.325  20.527  0.00  0.00    +0.000 N 
ATOM     10  C   UNL     1       1.364  12.091  19.669  0.00  0.00    +0.000 C 
ATOM     11  C   UNL     1       1.872  13.219  20.541  0.00  0.00    +0.000 C 
ATOM     12  C   UNL     1       0.701  13.523  21.459  0.00  0.00    +0.000 C 
ATOM     13  C   UNL     1      -0.050  12.182  21.602  0.00  0.00    +0.000 C 
BRANCH  13  14
ATOM     14  C   UNL     1      -1.555  12.392  21.544  0.00  0.00    +0.000 A 
ATOM     15  C   UNL     1      -2.339  12.430  22.713  0.00  0.00    +0.000 A 
ATOM     16  C   UNL     1      -3.725  12.589  22.639  0.00  0.00    +0.000 A 
ATOM     17  C   UNL     1      -4.334  12.719  21.399  0.00  0.00    +0.000 A 
ATOM     18  F   UNL     1      -5.662  12.884  21.329  0.00  0.00    +0.000 F 
ATOM     19  C   UNL     1      -3.585  12.679  20.229  0.00  0.00    +0.000 A 
ATOM     20  C   UNL     1      -2.199  12.513  20.301  0.00  0.00    +0.000 A 
ENDBRANCH  13  14
ENDBRANCH   1   8
BRANCH   5  21
ATOM     21  C   UNL     1       3.113   5.749  20.013  0.00  0.00    +0.000 C 
BRANCH  21  22
ATOM     22  S   UNL     1       2.977   4.408  18.825  0.00  0.00    +0.000 S 
ATOM     23  O   UNL     1       3.001   3.136  19.523  0.00  0.00    +0.000 OA
ATOM     24  O   UNL     1       1.916   4.715  17.882  0.00  0.00    +0.000 OA
BRANCH  22  25
ATOM     25  C   UNL     1       4.506   4.499  17.902  0.00  0.00    +0.000 A 
ATOM     26  C   UNL     1       5.693   4.813  18.570  0.00  0.00    +0.000 A 
ATOM     27  C   UNL     1       6.903   4.781  17.873  0.00  0.00    +0.000 A 
ATOM     28  C   UNL     1       6.925   4.430  16.524  0.00  0.00    +0.000 A 
ATOM     29  C   UNL     1       5.741   4.104  15.863  0.00  0.00    +0.000 A 
ATOM     30  C   UNL     1       4.525   4.136  16.551  0.00  0.00    +0.000 A 
ENDBRANCH  22  25
ENDBRANCH  21  22
ENDBRANCH   5  21
TORSDOF 5
ENDMDL
