MODEL 1
REMARK VINA RESULT:      -8.4      0.000      0.000
REMARK  Name = 
REMARK  4 active torsions:
REMARK  status: ('A' for Active; 'I' for Inactive)
REMARK    1  A    between atoms: C_1  and  N_2
REMARK    2  A    between atoms: N_2  and  C_23
REMARK    3  A    between atoms: C_3  and  C_5
REMARK    4  A    between atoms: N_11  and  C_12
REMARK                            x       y       z     vdW  Elec       q    Type
REMARK                         _______ _______ _______ _____ _____    ______ ____
ROOT
ATOM      1  C   UNL     1       0.094  10.663  21.019  0.00  0.00    +0.000 A 
ATOM      2  C   UNL     1       0.584  11.103  19.784  0.00  0.00    +0.000 A 
ATOM      3  C   UNL     1       1.234  10.211  18.933  0.00  0.00    +0.000 A 
ATOM      4  C   UNL     1       1.509   8.912  19.360  0.00  0.00    +0.000 A 
ATOM      5  C   UNL     1       2.215   7.961  18.485  0.00  0.00    +0.000 A 
ATOM      6  O   UNL     1       2.533   8.367  17.361  0.00  0.00    +0.000 OA
ATOM      7  N   UNL     1       2.504   6.701  19.020  0.00  0.00    +0.000 N 
ATOM      8  C   UNL     1       2.199   6.325  20.327  0.00  0.00    +0.000 A 
ATOM      9  O   UNL     1       2.449   5.235  20.841  0.00  0.00    +0.000 OA
ATOM     10  N   UNL     1       1.518   7.244  21.085  0.00  0.00    +0.000 N 
ATOM     11  C   UNL     1       1.153   8.507  20.639  0.00  0.00    +0.000 A 
ATOM     12  C   UNL     1       0.438   9.371  21.461  0.00  0.00    +0.000 A 
ATOM     13  H   UNL     1       1.283   6.938  22.024  0.00  0.00    +0.000 HD
ENDROOT
BRANCH   7  14
ATOM     14  C   UNL     1       3.200   5.778  18.181  0.00  0.00    +0.000 A 
ATOM     15  C   UNL     1       2.542   4.657  17.656  0.00  0.00    +0.000 A 
ATOM     16  C   UNL     1       3.242   3.726  16.890  0.00  0.00    +0.000 A 
ATOM     17  C   UNL     1       4.594   3.926  16.611  0.00  0.00    +0.000 A 
ATOM     18  C   UNL     1       5.251   5.049  17.106  0.00  0.00    +0.000 A 
ATOM     19  C   UNL     1       4.562   5.964  17.901  0.00  0.00    +0.000 A 
ENDBRANCH   7  14
BRANCH   1  22
ATOM     20  C   UNL     1      -2.332  12.227  20.086  0.00  0.00    +0.000 C 
ATOM     21  N   UNL     1      -1.844  12.259  21.472  0.00  0.00    +0.000 N 
ATOM     22  C   UNL     1      -0.738  11.500  21.936  0.00  0.00    +0.000 C 
ATOM     23  O   UNL     1      -0.410  11.391  23.120  0.00  0.00    +0.000 OA
BRANCH  21  24
ATOM     24  C   UNL     1      -2.621  13.081  22.394  0.00  0.00    +0.000 A 
ATOM     25  C   UNL     1      -3.738  12.584  23.084  0.00  0.00    +0.000 A 
ATOM     26  C   UNL     1      -4.514  13.401  23.917  0.00  0.00    +0.000 A 
ATOM     27  C   UNL     1      -4.183  14.735  24.099  0.00  0.00    +0.000 A 
ATOM     28  C   UNL     1      -3.062  15.249  23.462  0.00  0.00    +0.000 A 
ATOM     29  C   UNL     1      -2.288  14.429  22.633  0.00  0.00    +0.000 A 
ENDBRANCH  21  24
ENDBRANCH   1  22
TORSDOF 3
ENDMDL
MODEL 2
REMARK VINA RESULT:      -8.3      0.100      1.285
REMARK  Name = 
REMARK  4 active torsions:
REMARK  status: ('A' for Active; 'I' for Inactive)
REMARK    1  A    between atoms: C_1  and  N_2
REMARK    2  A    between atoms: N_2  and  C_23
REMARK    3  A    between atoms: C_3  and  C_5
REMARK    4  A    between atoms: N_11  and  C_12
REMARK                            x       y       z     vdW  Elec       q    Type
REMARK                         _______ _______ _______ _____ _____    ______ ____
ROOT
ATOM      1  C   UNL     1       0.086  10.715  20.965  0.00  0.00    +0.000 A 
ATOM      2  C   UNL     1       0.577  11.132  19.723  0.00  0.00    +0.000 A 
ATOM      3  C   UNL     1       1.226  10.225  18.888  0.00  0.00    +0.000 A 
ATOM      4  C   UNL     1       1.501   8.933  19.339  0.00  0.00    +0.000 A 
ATOM      5  C   UNL     1       2.206   7.967  18.483  0.00  0.00    +0.000 A 
ATOM      6  O   UNL     1       2.525   8.351  17.351  0.00  0.00    +0.000 OA
ATOM      7  N   UNL     1       2.494   6.716  19.040  0.00  0.00    +0.000 N 
ATOM      8  C   UNL     1       2.188   6.364  20.354  0.00  0.00    +0.000 A 
ATOM      9  O   UNL     1       2.438   5.284  20.888  0.00  0.00    +0.000 OA
ATOM     10  N   UNL     1       1.508   7.297  21.095  0.00  0.00    +0.000 N 
ATOM     11  C   UNL     1       1.143   8.552  20.625  0.00  0.00    +0.000 A 
ATOM     12  C   UNL     1       0.429   9.432  21.431  0.00  0.00    +0.000 A 
ATOM     13  H   UNL     1       1.272   7.009  22.038  0.00  0.00    +0.000 HD
ENDROOT
BRANCH   7  14
ATOM     14  C   UNL     1       3.190   5.778  18.218  0.00  0.00    +0.000 A 
ATOM     15  C   UNL     1       4.534   5.986  17.882  0.00  0.00    +0.000 A 
ATOM     16  C   UNL     1       5.191   5.100  17.028  0.00  0.00    +0.000 A 
ATOM     17  C   UNL     1       4.522   3.981  16.534  0.00  0.00    +0.000 A 
ATOM     18  C   UNL     1       3.193   3.751  16.881  0.00  0.00    +0.000 A 
ATOM     19  C   UNL     1       2.524   4.654  17.707  0.00  0.00    +0.000 A 
ENDBRANCH   7  14
BRANCH   1  22
ATOM     20  C   UNL     1      -2.376  12.213  20.017  0.00  0.00    +0.000 C 
ATOM     21  N   UNL     1      -1.869  12.298  21.394  0.00  0.00    +0.000 N 
ATOM     22  C   UNL     1      -0.746  11.570  21.866  0.00  0.00    +0.000 C 
ATOM     23  O   UNL     1      -0.401  11.504  23.048  0.00  0.00    +0.000 OA
BRANCH  21  24
ATOM     24  C   UNL     1      -2.646  13.138  22.300  0.00  0.00    +0.000 A 
ATOM     25  C   UNL     1      -2.429  14.519  22.412  0.00  0.00    +0.000 A 
ATOM     26  C   UNL     1      -3.138  15.305  23.332  0.00  0.00    +0.000 A 
ATOM     27  C   UNL     1      -4.098  14.731  24.153  0.00  0.00    +0.000 A 
ATOM     28  C   UNL     1      -4.363  13.374  24.039  0.00  0.00    +0.000 A 
ATOM     29  C   UNL     1      -3.656  12.595  23.117  0.00  0.00    +0.000 A 
ENDBRANCH  21  24
ENDBRANCH   1  22
TORSDOF 3
ENDMDL
MODEL 3
REMARK VINA RESULT:      -8.3      0.673      1.135
REMARK  Name = 
REMARK  4 active torsions:
REMARK  status: ('A' for Active; 'I' for Inactive)
REMARK    1  A    between atoms: C_1  and  N_2
REMARK    2  A    between atoms: N_2  and  C_23
REMARK    3  A    between atoms: C_3  and  C_5
REMARK    4  A    between atoms: N_11  and  C_12
REMARK                            x       y       z     vdW  Elec       q    Type
REMARK                         _______ _______ _______ _____ _____    ______ ____
ROOT
ATOM      1  C   UNL     1       0.343  10.143  21.363  0.00  0.00    +0.000 A 
ATOM      2  C   UNL     1       0.785  10.644  20.133  0.00  0.00    +0.000 A 
ATOM      3  C   UNL     1       1.407   9.798  19.217  0.00  0.00    +0.000 A 
ATOM      4  C   UNL     1       1.703   8.481  19.571  0.00  0.00    +0.000 A 
ATOM      5  C   UNL     1       2.381   7.578  18.627  0.00  0.00    +0.000 A 
ATOM      6  O   UNL     1       2.656   8.038  17.512  0.00  0.00    +0.000 OA
ATOM      7  N   UNL     1       2.695   6.295  19.090  0.00  0.00    +0.000 N 
ATOM      8  C   UNL     1       2.440   5.855  20.388  0.00  0.00    +0.000 A 
ATOM      9  O   UNL     1       2.714   4.744  20.840  0.00  0.00    +0.000 OA
ATOM     10  N   UNL     1       1.784   6.733  21.214  0.00  0.00    +0.000 N 
ATOM     11  C   UNL     1       1.396   8.014  20.841  0.00  0.00    +0.000 A 
ATOM     12  C   UNL     1       0.708   8.834  21.730  0.00  0.00    +0.000 A 
ATOM     13  H   UNL     1       1.584   6.382  22.144  0.00  0.00    +0.000 HD
ENDROOT
BRANCH   7  14
ATOM     14  C   UNL     1       3.364   5.418  18.183  0.00  0.00    +0.000 A 
ATOM     15  C   UNL     1       4.711   5.623  17.858  0.00  0.00    +0.000 A 
ATOM     16  C   UNL     1       5.342   4.801  16.924  0.00  0.00    +0.000 A 
ATOM     17  C   UNL     1       4.643   3.748  16.335  0.00  0.00    +0.000 A 
ATOM     18  C   UNL     1       3.311   3.520  16.670  0.00  0.00    +0.000 A 
ATOM     19  C   UNL     1       2.668   4.361  17.578  0.00  0.00    +0.000 A 
ENDBRANCH   7  14
BRANCH   1  22
ATOM     20  C   UNL     1      -1.654  12.275  20.544  0.00  0.00    +0.000 C 
ATOM     21  N   UNL     1      -1.357  11.954  21.947  0.00  0.00    +0.000 N 
ATOM     22  C   UNL     1      -0.459  10.931  22.348  0.00  0.00    +0.000 C 
ATOM     23  O   UNL     1      -0.314  10.541  23.509  0.00  0.00    +0.000 OA
BRANCH  21  24
ATOM     24  C   UNL     1      -2.108  12.716  22.940  0.00  0.00    +0.000 A 
ATOM     25  C   UNL     1      -3.376  12.317  23.388  0.00  0.00    +0.000 A 
ATOM     26  C   UNL     1      -4.115  13.091  24.294  0.00  0.00    +0.000 A 
ATOM     27  C   UNL     1      -3.596  14.277  24.791  0.00  0.00    +0.000 A 
ATOM     28  C   UNL     1      -2.328  14.680  24.397  0.00  0.00    +0.000 A 
ATOM     29  C   UNL     1      -1.593  13.903  23.496  0.00  0.00    +0.000 A 
ENDBRANCH  21  24
ENDBRANCH   1  22
TORSDOF 3
ENDMDL
MODEL 4
REMARK VINA RESULT:      -8.1      1.335      9.772
REMARK  Name = 
REMARK  4 active torsions:
REMARK  status: ('A' for Active; 'I' for Inactive)
REMARK    1  A    between atoms: C_1  and  N_2
REMARK    2  A    between atoms: N_2  and  C_23
REMARK    3  A    between atoms: C_3  and  C_5
REMARK    4  A    between atoms: N_11  and  C_12
REMARK                            x       y       z     vdW  Elec       q    Type
REMARK                         _______ _______ _______ _____ _____    ______ ____
ROOT
ATOM      1  C   UNL     1       1.717   8.625  19.512  0.00  0.00    +0.000 A 
ATOM      2  C   UNL     1       1.649   8.230  20.854  0.00  0.00    +0.000 A 
ATOM      3  C   UNL     1       0.831   8.920  21.745  0.00  0.00    +0.000 A 
ATOM      4  C   UNL     1       0.174  10.081  21.336  0.00  0.00    +0.000 A 
ATOM      5  C   UNL     1      -0.677  10.837  22.268  0.00  0.00    +0.000 A 
ATOM      6  O   UNL     1      -0.789  10.386  23.415  0.00  0.00    +0.000 OA
ATOM      7  N   UNL     1      -1.245  12.023  21.790  0.00  0.00    +0.000 N 
ATOM      8  C   UNL     1      -1.015  12.532  20.513  0.00  0.00    +0.000 A 
ATOM      9  O   UNL     1      -1.480  13.577  20.058  0.00  0.00    +0.000 OA
ATOM     10  N   UNL     1      -0.235  11.770  19.681  0.00  0.00    +0.000 N 
ATOM     11  C   UNL     1       0.347  10.562  20.046  0.00  0.00    +0.000 A 
ATOM     12  C   UNL     1       1.103   9.834  19.133  0.00  0.00    +0.000 A 
ATOM     13  H   UNL     1      -0.104  12.147  18.748  0.00  0.00    +0.000 HD
ENDROOT
BRANCH   7  14
ATOM     14  C   UNL     1      -2.062  12.769  22.693  0.00  0.00    +0.000 A 
ATOM     15  C   UNL     1      -1.510  13.798  23.467  0.00  0.00    +0.000 A 
ATOM     16  C   UNL     1      -2.297  14.481  24.394  0.00  0.00    +0.000 A 
ATOM     17  C   UNL     1      -3.649  14.166  24.529  0.00  0.00    +0.000 A 
ATOM     18  C   UNL     1      -4.213  13.161  23.747  0.00  0.00    +0.000 A 
ATOM     19  C   UNL     1      -3.420  12.455  22.844  0.00  0.00    +0.000 A 
ENDBRANCH   7  14
BRANCH   1  22
ATOM     20  C   UNL     1       2.902   5.870  19.965  0.00  0.00    +0.000 C 
ATOM     21  N   UNL     1       3.034   6.599  18.696  0.00  0.00    +0.000 N 
ATOM     22  C   UNL     1       2.449   7.868  18.452  0.00  0.00    +0.000 C 
ATOM     23  O   UNL     1       2.413   8.424  17.351  0.00  0.00    +0.000 OA
BRANCH  21  24
ATOM     24  C   UNL     1       3.759   5.898  17.640  0.00  0.00    +0.000 A 
ATOM     25  C   UNL     1       3.609   4.521  17.415  0.00  0.00    +0.000 A 
ATOM     26  C   UNL     1       4.359   3.848  16.440  0.00  0.00    +0.000 A 
ATOM     27  C   UNL     1       5.265   4.539  15.650  0.00  0.00    +0.000 A 
ATOM     28  C   UNL     1       5.408   5.908  15.821  0.00  0.00    +0.000 A 
ATOM     29  C   UNL     1       4.656   6.577  16.793  0.00  0.00    +0.000 A 
ENDBRANCH  21  24
ENDBRANCH   1  22
TORSDOF 3
ENDMDL
MODEL 5
REMARK VINA RESULT:      -8.0      0.985      1.457
REMARK  Name = 
REMARK  4 active torsions:
REMARK  status: ('A' for Active; 'I' for Inactive)
REMARK    1  A    between atoms: C_1  and  N_2
REMARK    2  A    between atoms: N_2  and  C_23
REMARK    3  A    between atoms: C_3  and  C_5
REMARK    4  A    between atoms: N_11  and  C_12
REMARK                            x       y       z     vdW  Elec       q    Type
REMARK                         _______ _______ _______ _____ _____    ______ ____
ROOT
ATOM      1  C   UNL     1       0.280  10.964  20.395  0.00  0.00    +0.000 A 
ATOM      2  C   UNL     1       0.847  11.231  19.143  0.00  0.00    +0.000 A 
ATOM      3  C   UNL     1       1.470  10.211  18.426  0.00  0.00    +0.000 A 
ATOM      4  C   UNL     1       1.642   8.954  19.007  0.00  0.00    +0.000 A 
ATOM      5  C   UNL     1       2.318   7.870  18.276  0.00  0.00    +0.000 A 
ATOM      6  O   UNL     1       2.707   8.125  17.130  0.00  0.00    +0.000 OA
ATOM      7  N   UNL     1       2.502   6.662  18.960  0.00  0.00    +0.000 N 
ATOM      8  C   UNL     1       2.121   6.456  20.284  0.00  0.00    +0.000 A 
ATOM      9  O   UNL     1       2.279   5.418  20.927  0.00  0.00    +0.000 OA
ATOM     10  N   UNL     1       1.473   7.494  20.904  0.00  0.00    +0.000 N 
ATOM     11  C   UNL     1       1.209   8.719  20.304  0.00  0.00    +0.000 A 
ATOM     12  C   UNL     1       0.520   9.712  20.992  0.00  0.00    +0.000 A 
ATOM     13  H   UNL     1       1.181   7.311  21.858  0.00  0.00    +0.000 HD
ENDROOT
BRANCH   7  14
ATOM     14  C   UNL     1       3.169   5.610  18.261  0.00  0.00    +0.000 A 
ATOM     15  C   UNL     1       2.438   4.556  17.696  0.00  0.00    +0.000 A 
ATOM     16  C   UNL     1       3.099   3.499  17.070  0.00  0.00    +0.000 A 
ATOM     17  C   UNL     1       4.489   3.505  16.971  0.00  0.00    +0.000 A 
ATOM     18  C   UNL     1       5.224   4.560  17.507  0.00  0.00    +0.000 A 
ATOM     19  C   UNL     1       4.568   5.601  18.163  0.00  0.00    +0.000 A 
ENDBRANCH   7  14
BRANCH   1  22
ATOM     20  C   UNL     1      -0.787  10.397  23.177  0.00  0.00    +0.000 C 
ATOM     21  N   UNL     1      -1.058  11.649  22.456  0.00  0.00    +0.000 N 
ATOM     22  C   UNL     1      -0.531  11.949  21.173  0.00  0.00    +0.000 C 
ATOM     23  O   UNL     1      -0.615  13.048  20.621  0.00  0.00    +0.000 OA
BRANCH  21  24
ATOM     24  C   UNL     1      -1.863  12.629  23.178  0.00  0.00    +0.000 A 
ATOM     25  C   UNL     1      -1.337  13.853  23.619  0.00  0.00    +0.000 A 
ATOM     26  C   UNL     1      -2.102  14.758  24.367  0.00  0.00    +0.000 A 
ATOM     27  C   UNL     1      -3.423  14.472  24.678  0.00  0.00    +0.000 A 
ATOM     28  C   UNL     1      -3.985  13.288  24.224  0.00  0.00    +0.000 A 
ATOM     29  C   UNL     1      -3.219  12.388  23.475  0.00  0.00    +0.000 A 
ENDBRANCH  21  24
ENDBRANCH   1  22
TORSDOF 3
ENDMDL
MODEL 6
REMARK VINA RESULT:      -8.0      1.541      9.503
REMARK  Name = 
REMARK  4 active torsions:
REMARK  status: ('A' for Active; 'I' for Inactive)
REMARK    1  A    between atoms: C_1  and  N_2
REMARK    2  A    between atoms: N_2  and  C_23
REMARK    3  A    between atoms: C_3  and  C_5
REMARK    4  A    between atoms: N_11  and  C_12
REMARK                            x       y       z     vdW  Elec       q    Type
REMARK                         _______ _______ _______ _____ _____    ______ ____
ROOT
ATOM      1  C   UNL     1       1.831   8.647  18.574  0.00  0.00    +0.000 A 
ATOM      2  C   UNL     1       1.000   9.538  17.885  0.00  0.00    +0.000 A 
ATOM      3  C   UNL     1       0.221  10.453  18.589  0.00  0.00    +0.000 A 
ATOM      4  C   UNL     1       0.169  10.401  19.982  0.00  0.00    +0.000 A 
ATOM      5  C   UNL     1      -0.666  11.343  20.744  0.00  0.00    +0.000 A 
ATOM      6  O   UNL     1      -1.300  12.182  20.093  0.00  0.00    +0.000 OA
ATOM      7  N   UNL     1      -0.705  11.176  22.133  0.00  0.00    +0.000 N 
ATOM      8  C   UNL     1      -0.039  10.157  22.811  0.00  0.00    +0.000 A 
ATOM      9  O   UNL     1      -0.059   9.965  24.026  0.00  0.00    +0.000 OA
ATOM     10  N   UNL     1       0.744   9.326  22.050  0.00  0.00    +0.000 N 
ATOM     11  C   UNL     1       0.880   9.428  20.671  0.00  0.00    +0.000 A 
ATOM     12  C   UNL     1       1.717   8.562  19.975  0.00  0.00    +0.000 A 
ATOM     13  H   UNL     1       1.241   8.609  22.567  0.00  0.00    +0.000 HD
ENDROOT
BRANCH   7  14
ATOM     14  C   UNL     1      -1.524  12.079  22.878  0.00  0.00    +0.000 A 
ATOM     15  C   UNL     1      -2.819  11.710  23.267  0.00  0.00    +0.000 A 
ATOM     16  C   UNL     1      -3.637  12.618  23.939  0.00  0.00    +0.000 A 
ATOM     17  C   UNL     1      -3.156  13.888  24.258  0.00  0.00    +0.000 A 
ATOM     18  C   UNL     1      -1.863  14.257  23.897  0.00  0.00    +0.000 A 
ATOM     19  C   UNL     1      -1.055  13.362  23.196  0.00  0.00    +0.000 A 
ENDBRANCH   7  14
BRANCH   1  22
ATOM     20  C   UNL     1       2.568   5.925  19.693  0.00  0.00    +0.000 C 
ATOM     21  N   UNL     1       3.172   6.478  18.473  0.00  0.00    +0.000 N 
ATOM     22  C   UNL     1       2.808   7.730  17.911  0.00  0.00    +0.000 C 
ATOM     23  O   UNL     1       3.184   8.140  16.811  0.00  0.00    +0.000 OA
BRANCH  21  24
ATOM     24  C   UNL     1       4.145   5.618  17.806  0.00  0.00    +0.000 A 
ATOM     25  C   UNL     1       5.510   5.937  17.747  0.00  0.00    +0.000 A 
ATOM     26  C   UNL     1       6.425   5.136  17.048  0.00  0.00    +0.000 A 
ATOM     27  C   UNL     1       6.000   3.982  16.406  0.00  0.00    +0.000 A 
ATOM     28  C   UNL     1       4.663   3.619  16.478  0.00  0.00    +0.000 A 
ATOM     29  C   UNL     1       3.754   4.420  17.179  0.00  0.00    +0.000 A 
ENDBRANCH  21  24
ENDBRANCH   1  22
TORSDOF 3
ENDMDL
MODEL 7
REMARK VINA RESULT:      -8.0      1.019      1.446
REMARK  Name = 
REMARK  4 active torsions:
REMARK  status: ('A' for Active; 'I' for Inactive)
REMARK    1  A    between atoms: C_1  and  N_2
REMARK    2  A    between atoms: N_2  and  C_23
REMARK    3  A    between atoms: C_3  and  C_5
REMARK    4  A    between atoms: N_11  and  C_12
REMARK                            x       y       z     vdW  Elec       q    Type
REMARK                         _______ _______ _______ _____ _____    ______ ____
ROOT
ATOM      1  C   UNL     1       0.491  11.237  20.170  0.00  0.00    +0.000 A 
ATOM      2  C   UNL     1       1.105  11.391  18.922  0.00  0.00    +0.000 A 
ATOM      3  C   UNL     1       1.663  10.290  18.277  0.00  0.00    +0.000 A 
ATOM      4  C   UNL     1       1.724   9.057  18.927  0.00  0.00    +0.000 A 
ATOM      5  C   UNL     1       2.330   7.886  18.272  0.00  0.00    +0.000 A 
ATOM      6  O   UNL     1       2.764   8.048  17.125  0.00  0.00    +0.000 OA
ATOM      7  N   UNL     1       2.404   6.707  19.022  0.00  0.00    +0.000 N 
ATOM      8  C   UNL     1       1.978   6.602  20.345  0.00  0.00    +0.000 A 
ATOM      9  O   UNL     1       2.039   5.592  21.046  0.00  0.00    +0.000 OA
ATOM     10  N   UNL     1       1.398   7.719  20.892  0.00  0.00    +0.000 N 
ATOM     11  C   UNL     1       1.244   8.926  20.222  0.00  0.00    +0.000 A 
ATOM     12  C   UNL     1       0.619  10.005  20.839  0.00  0.00    +0.000 A 
ATOM     13  H   UNL     1       1.071   7.611  21.846  0.00  0.00    +0.000 HD
ENDROOT
BRANCH   7  14
ATOM     14  C   UNL     1       3.003   5.570  18.398  0.00  0.00    +0.000 A 
ATOM     15  C   UNL     1       4.397   5.436  18.352  0.00  0.00    +0.000 A 
ATOM     16  C   UNL     1       4.978   4.357  17.686  0.00  0.00    +0.000 A 
ATOM     17  C   UNL     1       4.171   3.385  17.094  0.00  0.00    +0.000 A 
ATOM     18  C   UNL     1       2.784   3.496  17.154  0.00  0.00    +0.000 A 
ATOM     19  C   UNL     1       2.202   4.592  17.790  0.00  0.00    +0.000 A 
ENDBRANCH   7  14
BRANCH   1  22
ATOM     20  C   UNL     1      -2.356  12.009  19.462  0.00  0.00    +0.000 C 
ATOM     21  N   UNL     1      -1.575  12.698  20.499  0.00  0.00    +0.000 N 
ATOM     22  C   UNL     1      -0.259  12.322  20.874  0.00  0.00    +0.000 C 
ATOM     23  O   UNL     1       0.352  12.780  21.842  0.00  0.00    +0.000 OA
BRANCH  21  24
ATOM     24  C   UNL     1      -2.268  13.776  21.198  0.00  0.00    +0.000 A 
ATOM     25  C   UNL     1      -3.125  13.537  22.283  0.00  0.00    +0.000 A 
ATOM     26  C   UNL     1      -3.835  14.574  22.904  0.00  0.00    +0.000 A 
ATOM     27  C   UNL     1      -3.691  15.883  22.468  0.00  0.00    +0.000 A 
ATOM     28  C   UNL     1      -2.822  16.157  21.422  0.00  0.00    +0.000 A 
ATOM     29  C   UNL     1      -2.113  15.120  20.807  0.00  0.00    +0.000 A 
ENDBRANCH  21  24
ENDBRANCH   1  22
TORSDOF 3
ENDMDL
MODEL 8
REMARK VINA RESULT:      -8.0      1.161      9.781
REMARK  Name = 
REMARK  4 active torsions:
REMARK  status: ('A' for Active; 'I' for Inactive)
REMARK    1  A    between atoms: C_1  and  N_2
REMARK    2  A    between atoms: N_2  and  C_23
REMARK    3  A    between atoms: C_3  and  C_5
REMARK    4  A    between atoms: N_11  and  C_12
REMARK                            x       y       z     vdW  Elec       q    Type
REMARK                         _______ _______ _______ _____ _____    ______ ____
ROOT
ATOM      1  C   UNL     1       1.494   8.489  20.154  0.00  0.00    +0.000 A 
ATOM      2  C   UNL     1       1.505   8.450  21.553  0.00  0.00    +0.000 A 
ATOM      3  C   UNL     1       0.650   9.274  22.282  0.00  0.00    +0.000 A 
ATOM      4  C   UNL     1      -0.127  10.228  21.625  0.00  0.00    +0.000 A 
ATOM      5  C   UNL     1      -1.019  11.125  22.378  0.00  0.00    +0.000 A 
ATOM      6  O   UNL     1      -1.053  10.979  23.607  0.00  0.00    +0.000 OA
ATOM      7  N   UNL     1      -1.714  12.093  21.644  0.00  0.00    +0.000 N 
ATOM      8  C   UNL     1      -1.572  12.272  20.269  0.00  0.00    +0.000 A 
ATOM      9  O   UNL     1      -2.149  13.119  19.589  0.00  0.00    +0.000 OA
ATOM     10  N   UNL     1      -0.747  11.390  19.619  0.00  0.00    +0.000 N 
ATOM     11  C   UNL     1      -0.041  10.372  20.248  0.00  0.00    +0.000 A 
ATOM     12  C   UNL     1       0.755   9.500  19.512  0.00  0.00    +0.000 A 
ATOM     13  H   UNL     1      -0.680  11.522  18.615  0.00  0.00    +0.000 HD
ENDROOT
BRANCH   7  14
ATOM     14  C   UNL     1      -2.571  12.975  22.371  0.00  0.00    +0.000 A 
ATOM     15  C   UNL     1      -2.066  14.153  22.936  0.00  0.00    +0.000 A 
ATOM     16  C   UNL     1      -2.893  14.978  23.698  0.00  0.00    +0.000 A 
ATOM     17  C   UNL     1      -4.238  14.653  23.869  0.00  0.00    +0.000 A 
ATOM     18  C   UNL     1      -4.756  13.497  23.291  0.00  0.00    +0.000 A 
ATOM     19  C   UNL     1      -3.923  12.652  22.557  0.00  0.00    +0.000 A 
ENDBRANCH   7  14
BRANCH   1  22
ATOM     20  C   UNL     1       1.683   5.510  20.697  0.00  0.00    +0.000 C 
ATOM     21  N   UNL     1       2.376   6.165  19.579  0.00  0.00    +0.000 N 
ATOM     22  C   UNL     1       2.264   7.548  19.284  0.00  0.00    +0.000 C 
ATOM     23  O   UNL     1       2.706   8.086  18.266  0.00  0.00    +0.000 OA
BRANCH  21  24
ATOM     24  C   UNL     1       3.154   5.281  18.716  0.00  0.00    +0.000 A 
ATOM     25  C   UNL     1       4.556   5.251  18.742  0.00  0.00    +0.000 A 
ATOM     26  C   UNL     1       5.293   4.445  17.863  0.00  0.00    +0.000 A 
ATOM     27  C   UNL     1       4.645   3.630  16.947  0.00  0.00    +0.000 A 
ATOM     28  C   UNL     1       3.258   3.607  16.922  0.00  0.00    +0.000 A 
ATOM     29  C   UNL     1       2.526   4.411  17.803  0.00  0.00    +0.000 A 
ENDBRANCH  21  24
ENDBRANCH   1  22
TORSDOF 3
ENDMDL
MODEL 9
REMARK VINA RESULT:      -7.9      1.272      9.771
REMARK  Name = 
REMARK  4 active torsions:
REMARK  status: ('A' for Active; 'I' for Inactive)
REMARK    1  A    between atoms: C_1  and  N_2
REMARK    2  A    between atoms: N_2  and  C_23
REMARK    3  A    between atoms: C_3  and  C_5
REMARK    4  A    between atoms: N_11  and  C_12
REMARK                            x       y       z     vdW  Elec       q    Type
REMARK                         _______ _______ _______ _____ _____    ______ ____
ROOT
ATOM      1  C   UNL     1       1.666   8.546  19.648  0.00  0.00    +0.000 A 
ATOM      2  C   UNL     1       1.570   8.177  20.995  0.00  0.00    +0.000 A 
ATOM      3  C   UNL     1       0.734   8.885  21.856  0.00  0.00    +0.000 A 
ATOM      4  C   UNL     1       0.089  10.039  21.411  0.00  0.00    +0.000 A 
ATOM      5  C   UNL     1      -0.779  10.815  22.311  0.00  0.00    +0.000 A 
ATOM      6  O   UNL     1      -0.916  10.386  23.464  0.00  0.00    +0.000 OA
ATOM      7  N   UNL     1      -1.335  11.992  21.798  0.00  0.00    +0.000 N 
ATOM      8  C   UNL     1      -1.077  12.477  20.517  0.00  0.00    +0.000 A 
ATOM      9  O   UNL     1      -1.531  13.513  20.033  0.00  0.00    +0.000 OA
ATOM     10  N   UNL     1      -0.281  11.697  19.716  0.00  0.00    +0.000 N 
ATOM     11  C   UNL     1       0.289  10.495  20.116  0.00  0.00    +0.000 A 
ATOM     12  C   UNL     1       1.062   9.749  19.233  0.00  0.00    +0.000 A 
ATOM     13  H   UNL     1      -0.130  12.056  18.779  0.00  0.00    +0.000 HD
ENDROOT
BRANCH   7  14
ATOM     14  C   UNL     1      -2.168  12.757  22.671  0.00  0.00    +0.000 A 
ATOM     15  C   UNL     1      -3.555  12.560  22.683  0.00  0.00    +0.000 A 
ATOM     16  C   UNL     1      -4.371  13.353  23.491  0.00  0.00    +0.000 A 
ATOM     17  C   UNL     1      -3.805  14.322  24.318  0.00  0.00    +0.000 A 
ATOM     18  C   UNL     1      -2.424  14.509  24.332  0.00  0.00    +0.000 A 
ATOM     19  C   UNL     1      -1.610  13.741  23.500  0.00  0.00    +0.000 A 
ENDBRANCH   7  14
BRANCH   1  22
ATOM     20  C   UNL     1       2.670   5.722  20.114  0.00  0.00    +0.000 C 
ATOM     21  N   UNL     1       2.917   6.463  18.870  0.00  0.00    +0.000 N 
ATOM     22  C   UNL     1       2.418   7.768  18.618  0.00  0.00    +0.000 C 
ATOM     23  O   UNL     1       2.479   8.343  17.528  0.00  0.00    +0.000 OA
BRANCH  21  24
ATOM     24  C   UNL     1       3.665   5.742  17.845  0.00  0.00    +0.000 A 
ATOM     25  C   UNL     1       4.627   6.368  17.038  0.00  0.00    +0.000 A 
ATOM     26  C   UNL     1       5.292   5.679  16.014  0.00  0.00    +0.000 A 
ATOM     27  C   UNL     1       5.026   4.338  15.782  0.00  0.00    +0.000 A 
ATOM     28  C   UNL     1       4.108   3.679  16.588  0.00  0.00    +0.000 A 
ATOM     29  C   UNL     1       3.449   4.370  17.611  0.00  0.00    +0.000 A 
ENDBRANCH  21  24
ENDBRANCH   1  22
TORSDOF 3
ENDMDL
