MODEL 1
REMARK VINA RESULT:      -8.3      0.000      0.000
REMARK  Name = 
REMARK  5 active torsions:
REMARK  status: ('A' for Active; 'I' for Inactive)
REMARK    1  A    between atoms: C_4  and  C_5
REMARK    2  A    between atoms: C_5  and  S_6
REMARK    3  A    between atoms: S_6  and  C_7
REMARK    4  A    between atoms: N_11  and  C_12
REMARK    5  A    between atoms: C_21  and  C_22
REMARK                            x       y       z     vdW  Elec       q    Type
REMARK                         _______ _______ _______ _____ _____    ______ ____
ROOT
ATOM      1  O   UNL     1      -0.140  10.269  23.363  0.00  0.00    +0.000 OA
ATOM      2  C   UNL     1       0.070  10.193  22.159  0.00  0.00    +0.000 A 
ATOM      3  N   UNL     1       0.890   9.214  21.654  0.00  0.00    +0.000 N 
ATOM      4  C   UNL     1       1.108   9.008  20.310  0.00  0.00    +0.000 A 
ATOM      5  N   UNL     1       0.580   9.743  19.379  0.00  0.00    +0.000 NA
ATOM      6  C   UNL     1      -0.202  10.761  19.832  0.00  0.00    +0.000 A 
ATOM      7  S   UNL     1      -0.952  11.827  18.738  0.00  0.00    +0.000 S 
ATOM      8  C   UNL     1      -1.640  12.738  20.008  0.00  0.00    +0.000 A 
ATOM      9  C   UNL     1      -1.329  12.250  21.267  0.00  0.00    +0.000 A 
ATOM     10  C   UNL     1      -0.497  11.073  21.147  0.00  0.00    +0.000 A 
ATOM     11  H   UNL     1       1.382   8.666  22.350  0.00  0.00    +0.000 HD
ENDROOT
BRANCH   9  12
ATOM     12  C   UNL     1      -1.817  12.939  22.472  0.00  0.00    +0.000 A 
ATOM     13  C   UNL     1      -3.058  12.606  23.044  0.00  0.00    +0.000 A 
ATOM     14  C   UNL     1      -3.525  13.273  24.182  0.00  0.00    +0.000 A 
ATOM     15  C   UNL     1      -2.745  14.260  24.770  0.00  0.00    +0.000 A 
ATOM     16  F   UNL     1      -3.183  14.885  25.868  0.00  0.00    +0.000 F 
ATOM     17  C   UNL     1      -1.518  14.608  24.225  0.00  0.00    +0.000 A 
ATOM     18  C   UNL     1      -1.069  13.966  23.067  0.00  0.00    +0.000 A 
ENDBRANCH   9  12
BRANCH   4  19
ATOM     19  C   UNL     1       2.012   7.843  19.964  0.00  0.00    +0.000 C 
BRANCH  19  20
ATOM     20  S   UNL     1       2.337   7.801  18.178  0.00  0.00    +0.000 S 
BRANCH  20  21
ATOM     21  C   UNL     1       3.499   6.530  18.064  0.00  0.00    +0.000 A 
ATOM     22  N   UNL     1       4.753   6.653  17.691  0.00  0.00    +0.000 NA
ATOM     23  N   UNL     1       5.273   5.382  17.707  0.00  0.00    +0.000 NA
ATOM     24  N   UNL     1       4.360   4.500  18.084  0.00  0.00    +0.000 NA
ATOM     25  N   UNL     1       3.239   5.214  18.325  0.00  0.00    +0.000 N 
BRANCH  25  26
ATOM     26  C   UNL     1       2.028   4.562  18.753  0.00  0.00    +0.000 C 
ATOM     27  C   UNL     1       2.010   4.195  20.238  0.00  0.00    +0.000 C 
ATOM     28  C   UNL     1       1.000   3.057  20.362  0.00  0.00    +0.000 C 
ATOM     29  C   UNL     1       0.745   2.537  18.949  0.00  0.00    +0.000 C 
ATOM     30  C   UNL     1       1.762   3.229  18.052  0.00  0.00    +0.000 C 
ENDBRANCH  25  26
ENDBRANCH  20  21
ENDBRANCH  19  20
ENDBRANCH   4  19
TORSDOF 5
ENDMDL
MODEL 2
REMARK VINA RESULT:      -8.2      4.801     10.055
REMARK  Name = 
REMARK  5 active torsions:
REMARK  status: ('A' for Active; 'I' for Inactive)
REMARK    1  A    between atoms: C_4  and  C_5
REMARK    2  A    between atoms: C_5  and  S_6
REMARK    3  A    between atoms: S_6  and  C_7
REMARK    4  A    between atoms: N_11  and  C_12
REMARK    5  A    between atoms: C_21  and  C_22
REMARK                            x       y       z     vdW  Elec       q    Type
REMARK                         _______ _______ _______ _____ _____    ______ ____
ROOT
ATOM      1  O   UNL     1       3.607   7.426  17.480  0.00  0.00    +0.000 OA
ATOM      2  C   UNL     1       3.159   6.835  18.454  0.00  0.00    +0.000 A 
ATOM      3  N   UNL     1       2.358   7.489  19.359  0.00  0.00    +0.000 N 
ATOM      4  C   UNL     1       1.747   6.876  20.430  0.00  0.00    +0.000 A 
ATOM      5  N   UNL     1       1.888   5.617  20.711  0.00  0.00    +0.000 NA
ATOM      6  C   UNL     1       2.715   4.936  19.871  0.00  0.00    +0.000 A 
ATOM      7  S   UNL     1       3.021   3.280  20.115  0.00  0.00    +0.000 S 
ATOM      8  C   UNL     1       4.085   3.220  18.780  0.00  0.00    +0.000 A 
ATOM      9  C   UNL     1       4.215   4.435  18.126  0.00  0.00    +0.000 A 
ATOM     10  C   UNL     1       3.387   5.432  18.768  0.00  0.00    +0.000 A 
ATOM     11  H   UNL     1       2.282   8.489  19.219  0.00  0.00    +0.000 HD
ENDROOT
BRANCH   9  12
ATOM     12  C   UNL     1       5.120   4.564  16.972  0.00  0.00    +0.000 A 
ATOM     13  C   UNL     1       4.671   4.294  15.666  0.00  0.00    +0.000 A 
ATOM     14  C   UNL     1       5.537   4.404  14.573  0.00  0.00    +0.000 A 
ATOM     15  C   UNL     1       6.851   4.807  14.774  0.00  0.00    +0.000 A 
ATOM     16  F   UNL     1       7.674   4.930  13.727  0.00  0.00    +0.000 F 
ATOM     17  C   UNL     1       7.319   5.078  16.052  0.00  0.00    +0.000 A 
ATOM     18  C   UNL     1       6.462   4.933  17.147  0.00  0.00    +0.000 A 
ENDBRANCH   9  12
BRANCH   4  19
ATOM     19  C   UNL     1       0.866   7.770  21.279  0.00  0.00    +0.000 C 
BRANCH  19  20
ATOM     20  S   UNL     1       1.446   9.489  21.203  0.00  0.00    +0.000 S 
BRANCH  20  21
ATOM     21  C   UNL     1       0.133  10.333  21.940  0.00  0.00    +0.000 A 
ATOM     22  N   UNL     1      -0.143  10.374  23.224  0.00  0.00    +0.000 NA
ATOM     23  N   UNL     1      -1.293  11.117  23.335  0.00  0.00    +0.000 NA
ATOM     24  N   UNL     1      -1.710  11.526  22.146  0.00  0.00    +0.000 NA
ATOM     25  N   UNL     1      -0.811  11.048  21.259  0.00  0.00    +0.000 N 
BRANCH  25  26
ATOM     26  C   UNL     1      -0.963  11.300  19.848  0.00  0.00    +0.000 C 
ATOM     27  C   UNL     1      -2.197  12.132  19.494  0.00  0.00    +0.000 C 
ATOM     28  C   UNL     1      -2.506  11.799  18.036  0.00  0.00    +0.000 C 
ATOM     29  C   UNL     1      -1.717  10.537  17.695  0.00  0.00    +0.000 C 
ATOM     30  C   UNL     1      -1.133  10.034  19.008  0.00  0.00    +0.000 C 
ENDBRANCH  25  26
ENDBRANCH  20  21
ENDBRANCH  19  20
ENDBRANCH   4  19
TORSDOF 5
ENDMDL
MODEL 3
REMARK VINA RESULT:      -8.2      1.471      2.896
REMARK  Name = 
REMARK  5 active torsions:
REMARK  status: ('A' for Active; 'I' for Inactive)
REMARK    1  A    between atoms: C_4  and  C_5
REMARK    2  A    between atoms: C_5  and  S_6
REMARK    3  A    between atoms: S_6  and  C_7
REMARK    4  A    between atoms: N_11  and  C_12
REMARK    5  A    between atoms: C_21  and  C_22
REMARK                            x       y       z     vdW  Elec       q    Type
REMARK                         _______ _______ _______ _____ _____    ______ ____
ROOT
ATOM      1  O   UNL     1      -0.111  10.199  23.381  0.00  0.00    +0.000 OA
ATOM      2  C   UNL     1       0.092  10.082  22.179  0.00  0.00    +0.000 A 
ATOM      3  N   UNL     1       0.907   9.085  21.703  0.00  0.00    +0.000 N 
ATOM      4  C   UNL     1       1.117   8.833  20.366  0.00  0.00    +0.000 A 
ATOM      5  N   UNL     1       0.585   9.536  19.414  0.00  0.00    +0.000 NA
ATOM      6  C   UNL     1      -0.193  10.570  19.836  0.00  0.00    +0.000 A 
ATOM      7  S   UNL     1      -0.948  11.599  18.710  0.00  0.00    +0.000 S 
ATOM      8  C   UNL     1      -1.627  12.555  19.952  0.00  0.00    +0.000 A 
ATOM      9  C   UNL     1      -1.309  12.110  21.225  0.00  0.00    +0.000 A 
ATOM     10  C   UNL     1      -0.480  10.927  21.141  0.00  0.00    +0.000 A 
ATOM     11  H   UNL     1       1.402   8.560  22.415  0.00  0.00    +0.000 HD
ENDROOT
BRANCH   9  12
ATOM     12  C   UNL     1      -1.789  12.841  22.409  0.00  0.00    +0.000 A 
ATOM     13  C   UNL     1      -1.015  13.862  22.991  0.00  0.00    +0.000 A 
ATOM     14  C   UNL     1      -1.468  14.546  24.124  0.00  0.00    +0.000 A 
ATOM     15  C   UNL     1      -2.707  14.233  24.668  0.00  0.00    +0.000 A 
ATOM     16  F   UNL     1      -3.148  14.900  25.741  0.00  0.00    +0.000 F 
ATOM     17  C   UNL     1      -3.489  13.230  24.114  0.00  0.00    +0.000 A 
ATOM     18  C   UNL     1      -3.019  12.522  23.003  0.00  0.00    +0.000 A 
ENDBRANCH   9  12
BRANCH   4  19
ATOM     19  C   UNL     1       2.017   7.655  20.055  0.00  0.00    +0.000 C 
BRANCH  19  20
ATOM     20  S   UNL     1       2.338   7.556  18.270  0.00  0.00    +0.000 S 
BRANCH  20  21
ATOM     21  C   UNL     1       2.813   5.906  18.092  0.00  0.00    +0.000 A 
ATOM     22  N   UNL     1       2.014   4.885  17.877  0.00  0.00    +0.000 NA
ATOM     23  N   UNL     1       2.824   3.777  17.853  0.00  0.00    +0.000 NA
ATOM     24  N   UNL     1       4.092   4.110  18.046  0.00  0.00    +0.000 NA
ATOM     25  N   UNL     1       4.099   5.454  18.185  0.00  0.00    +0.000 N 
BRANCH  25  26
ATOM     26  C   UNL     1       5.330   6.163  18.420  0.00  0.00    +0.000 C 
ATOM     27  C   UNL     1       5.963   6.748  17.156  0.00  0.00    +0.000 C 
ATOM     28  C   UNL     1       7.445   6.912  17.483  0.00  0.00    +0.000 C 
ATOM     29  C   UNL     1       7.713   6.091  18.742  0.00  0.00    +0.000 C 
ATOM     30  C   UNL     1       6.443   5.294  19.006  0.00  0.00    +0.000 C 
ENDBRANCH  25  26
ENDBRANCH  20  21
ENDBRANCH  19  20
ENDBRANCH   4  19
TORSDOF 5
ENDMDL
MODEL 4
REMARK VINA RESULT:      -8.2      4.821     10.196
REMARK  Name = 
REMARK  5 active torsions:
REMARK  status: ('A' for Active; 'I' for Inactive)
REMARK    1  A    between atoms: C_4  and  C_5
REMARK    2  A    between atoms: C_5  and  S_6
REMARK    3  A    between atoms: S_6  and  C_7
REMARK    4  A    between atoms: N_11  and  C_12
REMARK    5  A    between atoms: C_21  and  C_22
REMARK                            x       y       z     vdW  Elec       q    Type
REMARK                         _______ _______ _______ _____ _____    ______ ____
ROOT
ATOM      1  O   UNL     1       3.630   7.350  17.569  0.00  0.00    +0.000 OA
ATOM      2  C   UNL     1       3.157   6.739  18.519  0.00  0.00    +0.000 A 
ATOM      3  N   UNL     1       2.360   7.381  19.435  0.00  0.00    +0.000 N 
ATOM      4  C   UNL     1       1.724   6.749  20.479  0.00  0.00    +0.000 A 
ATOM      5  N   UNL     1       1.836   5.478  20.722  0.00  0.00    +0.000 NA
ATOM      6  C   UNL     1       2.658   4.806  19.871  0.00  0.00    +0.000 A 
ATOM      7  S   UNL     1       2.927   3.137  20.066  0.00  0.00    +0.000 S 
ATOM      8  C   UNL     1       4.005   3.097  18.742  0.00  0.00    +0.000 A 
ATOM      9  C   UNL     1       4.168   4.329  18.127  0.00  0.00    +0.000 A 
ATOM     10  C   UNL     1       3.353   5.322  18.792  0.00  0.00    +0.000 A 
ATOM     11  H   UNL     1       2.307   8.387  19.325  0.00  0.00    +0.000 HD
ENDROOT
BRANCH   9  12
ATOM     12  C   UNL     1       5.089   4.474  16.989  0.00  0.00    +0.000 A 
ATOM     13  C   UNL     1       6.446   4.788  17.191  0.00  0.00    +0.000 A 
ATOM     14  C   UNL     1       7.315   4.938  16.105  0.00  0.00    +0.000 A 
ATOM     15  C   UNL     1       6.843   4.752  14.813  0.00  0.00    +0.000 A 
ATOM     16  F   UNL     1       7.678   4.878  13.777  0.00  0.00    +0.000 F 
ATOM     17  C   UNL     1       5.509   4.443  14.587  0.00  0.00    +0.000 A 
ATOM     18  C   UNL     1       4.633   4.329  15.670  0.00  0.00    +0.000 A 
ENDBRANCH   9  12
BRANCH   4  19
ATOM     19  C   UNL     1       0.852   7.633  21.346  0.00  0.00    +0.000 C 
BRANCH  19  20
ATOM     20  S   UNL     1       1.598   9.280  21.525  0.00  0.00    +0.000 S 
BRANCH  20  21
ATOM     21  C   UNL     1       0.268  10.202  22.124  0.00  0.00    +0.000 A 
ATOM     22  N   UNL     1      -0.221  10.162  23.344  0.00  0.00    +0.000 NA
ATOM     23  N   UNL     1      -1.292  11.021  23.344  0.00  0.00    +0.000 NA
ATOM     24  N   UNL     1      -1.454  11.579  22.153  0.00  0.00    +0.000 NA
ATOM     25  N   UNL     1      -0.467  11.080  21.379  0.00  0.00    +0.000 N 
BRANCH  25  26
ATOM     26  C   UNL     1      -0.346  11.471  19.997  0.00  0.00    +0.000 C 
ATOM     27  C   UNL     1      -0.177  12.977  19.790  0.00  0.00    +0.000 C 
ATOM     28  C   UNL     1      -0.649  13.247  18.364  0.00  0.00    +0.000 C 
ATOM     29  C   UNL     1      -1.421  12.008  17.913  0.00  0.00    +0.000 C 
ATOM     30  C   UNL     1      -1.571  11.130  19.148  0.00  0.00    +0.000 C 
ENDBRANCH  25  26
ENDBRANCH  20  21
ENDBRANCH  19  20
ENDBRANCH   4  19
TORSDOF 5
ENDMDL
MODEL 5
REMARK VINA RESULT:      -8.0      1.717      2.673
REMARK  Name = 
REMARK  5 active torsions:
REMARK  status: ('A' for Active; 'I' for Inactive)
REMARK    1  A    between atoms: C_4  and  C_5
REMARK    2  A    between atoms: C_5  and  S_6
REMARK    3  A    between atoms: S_6  and  C_7
REMARK    4  A    between atoms: N_11  and  C_12
REMARK    5  A    between atoms: C_21  and  C_22
REMARK                            x       y       z     vdW  Elec       q    Type
REMARK                         _______ _______ _______ _____ _____    ______ ____
ROOT
ATOM      1  O   UNL     1      -0.263   9.804  23.438  0.00  0.00    +0.000 OA
ATOM      2  C   UNL     1       0.085   9.693  22.269  0.00  0.00    +0.000 A 
ATOM      3  N   UNL     1       0.873   8.640  21.874  0.00  0.00    +0.000 N 
ATOM      4  C   UNL     1       1.235   8.396  20.568  0.00  0.00    +0.000 A 
ATOM      5  N   UNL     1       0.889   9.158  19.575  0.00  0.00    +0.000 NA
ATOM      6  C   UNL     1       0.148  10.245  19.924  0.00  0.00    +0.000 A 
ATOM      7  S   UNL     1      -0.370  11.353  18.740  0.00  0.00    +0.000 S 
ATOM      8  C   UNL     1      -1.127  12.339  19.911  0.00  0.00    +0.000 A 
ATOM      9  C   UNL     1      -1.014  11.846  21.202  0.00  0.00    +0.000 A 
ATOM     10  C   UNL     1      -0.277  10.601  21.191  0.00  0.00    +0.000 A 
ATOM     11  H   UNL     1       1.228   8.063  22.628  0.00  0.00    +0.000 HD
ENDROOT
BRANCH   9  12
ATOM     12  C   UNL     1      -1.584  12.593  22.334  0.00  0.00    +0.000 A 
ATOM     13  C   UNL     1      -2.829  12.236  22.884  0.00  0.00    +0.000 A 
ATOM     14  C   UNL     1      -3.374  12.957  23.952  0.00  0.00    +0.000 A 
ATOM     15  C   UNL     1      -2.669  14.023  24.494  0.00  0.00    +0.000 A 
ATOM     16  F   UNL     1      -3.182  14.701  25.527  0.00  0.00    +0.000 F 
ATOM     17  C   UNL     1      -1.440  14.397  23.970  0.00  0.00    +0.000 A 
ATOM     18  C   UNL     1      -0.913  13.698  22.879  0.00  0.00    +0.000 A 
ENDBRANCH   9  12
BRANCH   4  19
ATOM     19  C   UNL     1       2.071   7.153  20.341  0.00  0.00    +0.000 C 
BRANCH  19  20
ATOM     20  S   UNL     1       2.824   7.188  18.689  0.00  0.00    +0.000 S 
BRANCH  20  21
ATOM     21  C   UNL     1       2.544   5.574  18.144  0.00  0.00    +0.000 A 
ATOM     22  N   UNL     1       1.447   4.873  18.319  0.00  0.00    +0.000 NA
ATOM     23  N   UNL     1       1.699   3.643  17.763  0.00  0.00    +0.000 NA
ATOM     24  N   UNL     1       2.922   3.592  17.255  0.00  0.00    +0.000 NA
ATOM     25  N   UNL     1       3.460   4.810  17.478  0.00  0.00    +0.000 N 
BRANCH  25  26
ATOM     26  C   UNL     1       4.805   5.108  17.056  0.00  0.00    +0.000 C 
ATOM     27  C   UNL     1       5.234   4.379  15.782  0.00  0.00    +0.000 C 
ATOM     28  C   UNL     1       6.759   4.338  15.831  0.00  0.00    +0.000 C 
ATOM     29  C   UNL     1       7.164   4.684  17.262  0.00  0.00    +0.000 C 
ATOM     30  C   UNL     1       5.875   4.708  18.073  0.00  0.00    +0.000 C 
ENDBRANCH  25  26
ENDBRANCH  20  21
ENDBRANCH  19  20
ENDBRANCH   4  19
TORSDOF 5
ENDMDL
MODEL 6
REMARK VINA RESULT:      -8.0      4.800      9.769
REMARK  Name = 
REMARK  5 active torsions:
REMARK  status: ('A' for Active; 'I' for Inactive)
REMARK    1  A    between atoms: C_4  and  C_5
REMARK    2  A    between atoms: C_5  and  S_6
REMARK    3  A    between atoms: S_6  and  C_7
REMARK    4  A    between atoms: N_11  and  C_12
REMARK    5  A    between atoms: C_21  and  C_22
REMARK                            x       y       z     vdW  Elec       q    Type
REMARK                         _______ _______ _______ _____ _____    ______ ____
ROOT
ATOM      1  O   UNL     1       3.324   7.884  17.477  0.00  0.00    +0.000 OA
ATOM      2  C   UNL     1       2.775   7.555  18.521  0.00  0.00    +0.000 A 
ATOM      3  N   UNL     1       1.941   8.428  19.176  0.00  0.00    +0.000 N 
ATOM      4  C   UNL     1       1.221   8.107  20.304  0.00  0.00    +0.000 A 
ATOM      5  N   UNL     1       1.279   6.947  20.884  0.00  0.00    +0.000 NA
ATOM      6  C   UNL     1       2.133   6.062  20.301  0.00  0.00    +0.000 A 
ATOM      7  S   UNL     1       2.339   4.503  20.952  0.00  0.00    +0.000 S 
ATOM      8  C   UNL     1       3.496   4.096  19.764  0.00  0.00    +0.000 A 
ATOM      9  C   UNL     1       3.735   5.116  18.856  0.00  0.00    +0.000 A 
ATOM     10  C   UNL     1       2.910   6.261  19.174  0.00  0.00    +0.000 A 
ATOM     11  H   UNL     1       1.924   9.369  18.799  0.00  0.00    +0.000 HD
ENDROOT
BRANCH   9  12
ATOM     12  C   UNL     1       4.730   4.940  17.787  0.00  0.00    +0.000 A 
ATOM     13  C   UNL     1       6.077   5.297  17.985  0.00  0.00    +0.000 A 
ATOM     14  C   UNL     1       7.017   5.140  16.961  0.00  0.00    +0.000 A 
ATOM     15  C   UNL     1       6.625   4.604  15.741  0.00  0.00    +0.000 A 
ATOM     16  F   UNL     1       7.528   4.438  14.769  0.00  0.00    +0.000 F 
ATOM     17  C   UNL     1       5.303   4.246  15.520  0.00  0.00    +0.000 A 
ATOM     18  C   UNL     1       4.356   4.437  16.531  0.00  0.00    +0.000 A 
ENDBRANCH   9  12
BRANCH   4  19
ATOM     19  C   UNL     1       0.323   9.202  20.842  0.00  0.00    +0.000 C 
BRANCH  19  20
ATOM     20  S   UNL     1       0.630  10.762  19.965  0.00  0.00    +0.000 S 
BRANCH  20  21
ATOM     21  C   UNL     1      -0.911  11.533  20.074  0.00  0.00    +0.000 A 
ATOM     22  N   UNL     1      -1.350  12.256  21.080  0.00  0.00    +0.000 NA
ATOM     23  N   UNL     1      -2.632  12.619  20.745  0.00  0.00    +0.000 NA
ATOM     24  N   UNL     1      -2.970  12.132  19.560  0.00  0.00    +0.000 NA
ATOM     25  N   UNL     1      -1.887  11.456  19.121  0.00  0.00    +0.000 N 
BRANCH  25  26
ATOM     26  C   UNL     1      -1.906  10.781  17.848  0.00  0.00    +0.000 C 
ATOM     27  C   UNL     1      -2.204  11.700  16.662  0.00  0.00    +0.000 C 
ATOM     28  C   UNL     1      -2.753  10.787  15.568  0.00  0.00    +0.000 C 
ATOM     29  C   UNL     1      -3.117   9.464  16.240  0.00  0.00    +0.000 C 
ATOM     30  C   UNL     1      -2.980   9.698  17.738  0.00  0.00    +0.000 C 
ENDBRANCH  25  26
ENDBRANCH  20  21
ENDBRANCH  19  20
ENDBRANCH   4  19
TORSDOF 5
ENDMDL
MODEL 7
REMARK VINA RESULT:      -7.9      4.785     10.484
REMARK  Name = 
REMARK  5 active torsions:
REMARK  status: ('A' for Active; 'I' for Inactive)
REMARK    1  A    between atoms: C_4  and  C_5
REMARK    2  A    between atoms: C_5  and  S_6
REMARK    3  A    between atoms: S_6  and  C_7
REMARK    4  A    between atoms: N_11  and  C_12
REMARK    5  A    between atoms: C_21  and  C_22
REMARK                            x       y       z     vdW  Elec       q    Type
REMARK                         _______ _______ _______ _____ _____    ______ ____
ROOT
ATOM      1  O   UNL     1       3.713   7.420  17.359  0.00  0.00    +0.000 OA
ATOM      2  C   UNL     1       3.264   6.837  18.338  0.00  0.00    +0.000 A 
ATOM      3  N   UNL     1       2.476   7.503  19.245  0.00  0.00    +0.000 N 
ATOM      4  C   UNL     1       1.863   6.902  20.321  0.00  0.00    +0.000 A 
ATOM      5  N   UNL     1       1.993   5.642  20.606  0.00  0.00    +0.000 NA
ATOM      6  C   UNL     1       2.807   4.949  19.765  0.00  0.00    +0.000 A 
ATOM      7  S   UNL     1       3.096   3.290  20.013  0.00  0.00    +0.000 S 
ATOM      8  C   UNL     1       4.152   3.214  18.673  0.00  0.00    +0.000 A 
ATOM      9  C   UNL     1       4.292   4.425  18.013  0.00  0.00    +0.000 A 
ATOM     10  C   UNL     1       3.478   5.433  18.656  0.00  0.00    +0.000 A 
ATOM     11  H   UNL     1       2.410   8.504  19.101  0.00  0.00    +0.000 HD
ENDROOT
BRANCH   9  12
ATOM     12  C   UNL     1       5.191   4.539  16.854  0.00  0.00    +0.000 A 
ATOM     13  C   UNL     1       6.528   4.950  17.013  0.00  0.00    +0.000 A 
ATOM     14  C   UNL     1       7.377   5.070  15.907  0.00  0.00    +0.000 A 
ATOM     15  C   UNL     1       6.905   4.757  14.640  0.00  0.00    +0.000 A 
ATOM     16  F   UNL     1       7.722   4.855  13.585  0.00  0.00    +0.000 F 
ATOM     17  C   UNL     1       5.591   4.351  14.456  0.00  0.00    +0.000 A 
ATOM     18  C   UNL     1       4.733   4.266  15.557  0.00  0.00    +0.000 A 
ENDBRANCH   9  12
BRANCH   4  19
ATOM     19  C   UNL     1       0.998   7.808  21.172  0.00  0.00    +0.000 C 
BRANCH  19  20
ATOM     20  S   UNL     1       0.747   9.405  20.346  0.00  0.00    +0.000 S 
BRANCH  20  21
ATOM     21  C   UNL     1       0.115  10.368  21.631  0.00  0.00    +0.000 A 
ATOM     22  N   UNL     1      -0.325   9.929  22.789  0.00  0.00    +0.000 NA
ATOM     23  N   UNL     1      -0.769  11.039  23.464  0.00  0.00    +0.000 NA
ATOM     24  N   UNL     1      -0.602  12.135  22.739  0.00  0.00    +0.000 NA
ATOM     25  N   UNL     1      -0.033  11.726  21.585  0.00  0.00    +0.000 N 
BRANCH  25  26
ATOM     26  C   UNL     1       0.285  12.671  20.545  0.00  0.00    +0.000 C 
ATOM     27  C   UNL     1       1.389  13.661  20.920  0.00  0.00    +0.000 C 
ATOM     28  C   UNL     1       1.177  14.870  20.013  0.00  0.00    +0.000 C 
ATOM     29  C   UNL     1      -0.224  14.735  19.420  0.00  0.00    +0.000 C 
ATOM     30  C   UNL     1      -0.884  13.574  20.151  0.00  0.00    +0.000 C 
ENDBRANCH  25  26
ENDBRANCH  20  21
ENDBRANCH  19  20
ENDBRANCH   4  19
TORSDOF 5
ENDMDL
MODEL 8
REMARK VINA RESULT:      -7.9      1.056      1.593
REMARK  Name = 
REMARK  5 active torsions:
REMARK  status: ('A' for Active; 'I' for Inactive)
REMARK    1  A    between atoms: C_4  and  C_5
REMARK    2  A    between atoms: C_5  and  S_6
REMARK    3  A    between atoms: S_6  and  C_7
REMARK    4  A    between atoms: N_11  and  C_12
REMARK    5  A    between atoms: C_21  and  C_22
REMARK                            x       y       z     vdW  Elec       q    Type
REMARK                         _______ _______ _______ _____ _____    ______ ____
ROOT
ATOM      1  O   UNL     1      -0.140   9.743  23.475  0.00  0.00    +0.000 OA
ATOM      2  C   UNL     1       0.269   9.563  22.335  0.00  0.00    +0.000 A 
ATOM      3  N   UNL     1       1.062   8.480  22.041  0.00  0.00    +0.000 N 
ATOM      4  C   UNL     1       1.490   8.161  20.773  0.00  0.00    +0.000 A 
ATOM      5  N   UNL     1       1.211   8.872  19.723  0.00  0.00    +0.000 NA
ATOM      6  C   UNL     1       0.470   9.986  19.971  0.00  0.00    +0.000 A 
ATOM      7  S   UNL     1       0.036  11.036  18.703  0.00  0.00    +0.000 S 
ATOM      8  C   UNL     1      -0.768  12.093  19.776  0.00  0.00    +0.000 A 
ATOM      9  C   UNL     1      -0.734  11.669  21.095  0.00  0.00    +0.000 A 
ATOM     10  C   UNL     1      -0.018  10.416  21.192  0.00  0.00    +0.000 A 
ATOM     11  H   UNL     1       1.365   7.941  22.844  0.00  0.00    +0.000 HD
ENDROOT
BRANCH   9  12
ATOM     12  C   UNL     1      -1.354  12.484  22.152  0.00  0.00    +0.000 A 
ATOM     13  C   UNL     1      -0.681  13.593  22.700  0.00  0.00    +0.000 A 
ATOM     14  C   UNL     1      -1.267  14.357  23.714  0.00  0.00    +0.000 A 
ATOM     15  C   UNL     1      -2.538  14.035  24.172  0.00  0.00    +0.000 A 
ATOM     16  F   UNL     1      -3.106  14.777  25.129  0.00  0.00    +0.000 F 
ATOM     17  C   UNL     1      -3.222  12.947  23.650  0.00  0.00    +0.000 A 
ATOM     18  C   UNL     1      -2.620  12.162  22.662  0.00  0.00    +0.000 A 
ENDBRANCH   9  12
BRANCH   4  19
ATOM     19  C   UNL     1       2.317   6.897  20.659  0.00  0.00    +0.000 C 
BRANCH  19  20
ATOM     20  S   UNL     1       2.682   6.532  18.918  0.00  0.00    +0.000 S 
BRANCH  20  21
ATOM     21  C   UNL     1       4.109   5.569  19.055  0.00  0.00    +0.000 A 
ATOM     22  N   UNL     1       5.342   5.973  18.847  0.00  0.00    +0.000 NA
ATOM     23  N   UNL     1       6.131   4.863  19.025  0.00  0.00    +0.000 NA
ATOM     24  N   UNL     1       5.399   3.804  19.338  0.00  0.00    +0.000 NA
ATOM     25  N   UNL     1       4.122   4.241  19.372  0.00  0.00    +0.000 N 
BRANCH  25  26
ATOM     26  C   UNL     1       3.042   3.337  19.677  0.00  0.00    +0.000 C 
ATOM     27  C   UNL     1       1.842   3.461  18.738  0.00  0.00    +0.000 C 
ATOM     28  C   UNL     1       0.653   2.913  19.522  0.00  0.00    +0.000 C 
ATOM     29  C   UNL     1       1.085   2.842  20.986  0.00  0.00    +0.000 C 
ATOM     30  C   UNL     1       2.433   3.546  21.064  0.00  0.00    +0.000 C 
ENDBRANCH  25  26
ENDBRANCH  20  21
ENDBRANCH  19  20
ENDBRANCH   4  19
TORSDOF 5
ENDMDL
MODEL 9
REMARK VINA RESULT:      -7.8      4.442      9.971
REMARK  Name = 
REMARK  5 active torsions:
REMARK  status: ('A' for Active; 'I' for Inactive)
REMARK    1  A    between atoms: C_4  and  C_5
REMARK    2  A    between atoms: C_5  and  S_6
REMARK    3  A    between atoms: S_6  and  C_7
REMARK    4  A    between atoms: N_11  and  C_12
REMARK    5  A    between atoms: C_21  and  C_22
REMARK                            x       y       z     vdW  Elec       q    Type
REMARK                         _______ _______ _______ _____ _____    ______ ____
ROOT
ATOM      1  O   UNL     1       3.244   8.033  17.562  0.00  0.00    +0.000 OA
ATOM      2  C   UNL     1       2.714   7.652  18.598  0.00  0.00    +0.000 A 
ATOM      3  N   UNL     1       1.882   8.486  19.304  0.00  0.00    +0.000 N 
ATOM      4  C   UNL     1       1.183   8.107  20.427  0.00  0.00    +0.000 A 
ATOM      5  N   UNL     1       1.261   6.922  20.953  0.00  0.00    +0.000 NA
ATOM      6  C   UNL     1       2.114   6.073  20.318  0.00  0.00    +0.000 A 
ATOM      7  S   UNL     1       2.344   4.488  20.894  0.00  0.00    +0.000 S 
ATOM      8  C   UNL     1       3.487   4.147  19.672  0.00  0.00    +0.000 A 
ATOM      9  C   UNL     1       3.702   5.210  18.808  0.00  0.00    +0.000 A 
ATOM     10  C   UNL     1       2.871   6.331  19.189  0.00  0.00    +0.000 A 
ATOM     11  H   UNL     1       1.851   9.442  18.970  0.00  0.00    +0.000 HD
ENDROOT
BRANCH   9  12
ATOM     12  C   UNL     1       4.682   5.092  17.716  0.00  0.00    +0.000 A 
ATOM     13  C   UNL     1       4.477   4.192  16.654  0.00  0.00    +0.000 A 
ATOM     14  C   UNL     1       5.417   4.073  15.625  0.00  0.00    +0.000 A 
ATOM     15  C   UNL     1       6.555   4.868  15.636  0.00  0.00    +0.000 A 
ATOM     16  F   UNL     1       7.445   4.767  14.643  0.00  0.00    +0.000 F 
ATOM     17  C   UNL     1       6.781   5.763  16.672  0.00  0.00    +0.000 A 
ATOM     18  C   UNL     1       5.859   5.855  17.719  0.00  0.00    +0.000 A 
ENDBRANCH   9  12
BRANCH   4  19
ATOM     19  C   UNL     1       0.283   9.167  21.028  0.00  0.00    +0.000 C 
BRANCH  19  20
ATOM     20  S   UNL     1       0.009  10.513  19.840  0.00  0.00    +0.000 S 
BRANCH  20  21
ATOM     21  C   UNL     1       0.416  11.900  20.783  0.00  0.00    +0.000 A 
ATOM     22  N   UNL     1       1.568  12.534  20.778  0.00  0.00    +0.000 NA
ATOM     23  N   UNL     1       1.447  13.533  21.712  0.00  0.00    +0.000 NA
ATOM     24  N   UNL     1       0.247  13.515  22.275  0.00  0.00    +0.000 NA
ATOM     25  N   UNL     1      -0.416  12.496  21.688  0.00  0.00    +0.000 N 
BRANCH  25  26
ATOM     26  C   UNL     1      -1.768  12.180  22.071  0.00  0.00    +0.000 C 
ATOM     27  C   UNL     1      -2.828  12.685  21.090  0.00  0.00    +0.000 C 
ATOM     28  C   UNL     1      -4.115  12.793  21.903  0.00  0.00    +0.000 C 
ATOM     29  C   UNL     1      -3.715  12.727  23.375  0.00  0.00    +0.000 C 
ATOM     30  C   UNL     1      -2.194  12.798  23.404  0.00  0.00    +0.000 C 
ENDBRANCH  25  26
ENDBRANCH  20  21
ENDBRANCH  19  20
ENDBRANCH   4  19
TORSDOF 5
ENDMDL
