MODEL 1
REMARK VINA RESULT:      -9.2      0.000      0.000
REMARK  Name = 
REMARK  7 active torsions:
REMARK  status: ('A' for Active; 'I' for Inactive)
REMARK    1  A    between atoms: C_1  and  N_2
REMARK    2  A    between atoms: C_6  and  C_7
REMARK    3  A    between atoms: C_7  and  C_8
REMARK    4  A    between atoms: C_8  and  C_9
REMARK    5  A    between atoms: C_13  and  N_14
REMARK    6  A    between atoms: C_19  and  C_20
REMARK    7  A    between atoms: C_23  and  C_24
REMARK                            x       y       z     vdW  Elec       q    Type
REMARK                         _______ _______ _______ _____ _____    ______ ____
ROOT
ATOM      1  N   UNL     1       4.228   4.492  19.136  0.00  0.00    +0.000 N 
ATOM      2  C   UNL     1       5.556   5.145  19.268  0.00  0.00    +0.000 C 
ATOM      3  C   UNL     1       6.103   5.024  17.876  0.00  0.00    +0.000 A 
ATOM      4  C   UNL     1       5.516   3.894  17.300  0.00  0.00    +0.000 A 
ATOM      5  C   UNL     1       5.664   3.557  15.965  0.00  0.00    +0.000 A 
ATOM      6  C   UNL     1       6.427   4.418  15.177  0.00  0.00    +0.000 A 
ATOM      7  C   UNL     1       7.017   5.572  15.740  0.00  0.00    +0.000 A 
ATOM      8  C   UNL     1       6.860   5.901  17.106  0.00  0.00    +0.000 A 
ATOM      9  C   UNL     1       4.407   3.455  18.185  0.00  0.00    +0.000 C 
ATOM     10  O   UNL     1       3.692   2.494  17.942  0.00  0.00    +0.000 OA
ENDROOT
BRANCH   1  15
ATOM     11  C   UNL     1       1.904   7.194  19.907  0.00  0.00    +0.000 A 
ATOM     12  C   UNL     1       2.363   8.121  18.962  0.00  0.00    +0.000 A 
ATOM     13  C   UNL     1       3.071   7.697  17.843  0.00  0.00    +0.000 A 
ATOM     14  C   UNL     1       3.442   6.363  17.726  0.00  0.00    +0.000 A 
ATOM     15  C   UNL     1       3.216   5.487  18.801  0.00  0.00    +0.000 A 
ATOM     16  C   UNL     1       2.315   5.860  19.805  0.00  0.00    +0.000 A 
BRANCH  11  17
ATOM     17  C   UNL     1       1.079   7.646  21.088  0.00  0.00    +0.000 C 
BRANCH  17  18
ATOM     18  C   UNL     1       1.608   8.961  21.665  0.00  0.00    +0.000 C 
BRANCH  18  24
ATOM     19  C   UNL     1       0.080  10.975  19.895  0.00  0.00    +0.000 C 
ATOM     20  N   UNL     1      -0.138  10.749  21.298  0.00  0.00    +0.000 N 
ATOM     21  C   UNL     1      -1.031  11.400  22.091  0.00  0.00    +0.000 A 
ATOM     22  N   UNL     1      -0.950  10.937  23.314  0.00  0.00    +0.000 NA
ATOM     23  N   UNL     1       0.021   9.966  23.326  0.00  0.00    +0.000 NA
ATOM     24  C   UNL     1       0.508   9.854  22.108  0.00  0.00    +0.000 A 
ENDBRANCH  18  24
ENDBRANCH  17  18
ENDBRANCH  11  17
ENDBRANCH   1  15
BRANCH   8  25
ATOM     25  C   UNL     1       7.397   7.218  17.613  0.00  0.00    +0.000 C 
ATOM     26  F   UNL     1       8.223   7.856  16.744  0.00  0.00    +0.000 F 
ATOM     27  F   UNL     1       6.398   8.100  17.892  0.00  0.00    +0.000 F 
ATOM     28  F   UNL     1       8.104   7.074  18.766  0.00  0.00    +0.000 F 
ENDBRANCH   8  25
BRANCH   6  29
ATOM     29  C   UNL     1       6.562   4.230  13.717  0.00  0.00    +0.000 C 
ATOM     30  N   UNL     1       5.981   3.319  13.007  0.00  0.00    +0.000 NA
ATOM     31  H   UNL     1       5.390   2.692  13.555  0.00  0.00    +0.000 HD
ENDBRANCH   6  29
TORSDOF 6
ENDMDL
MODEL 2
REMARK VINA RESULT:      -8.9      4.206      6.700
REMARK  Name = 
REMARK  7 active torsions:
REMARK  status: ('A' for Active; 'I' for Inactive)
REMARK    1  A    between atoms: C_1  and  N_2
REMARK    2  A    between atoms: C_6  and  C_7
REMARK    3  A    between atoms: C_7  and  C_8
REMARK    4  A    between atoms: C_8  and  C_9
REMARK    5  A    between atoms: C_13  and  N_14
REMARK    6  A    between atoms: C_19  and  C_20
REMARK    7  A    between atoms: C_23  and  C_24
REMARK                            x       y       z     vdW  Elec       q    Type
REMARK                         _______ _______ _______ _____ _____    ______ ____
ROOT
ATOM      1  N   UNL     1       6.105   5.451  15.557  0.00  0.00    +0.000 N 
ATOM      2  C   UNL     1       4.910   6.306  15.780  0.00  0.00    +0.000 C 
ATOM      3  C   UNL     1       4.116   5.484  16.751  0.00  0.00    +0.000 A 
ATOM      4  C   UNL     1       4.450   4.145  16.529  0.00  0.00    +0.000 A 
ATOM      5  C   UNL     1       4.028   3.110  17.346  0.00  0.00    +0.000 A 
ATOM      6  C   UNL     1       3.249   3.453  18.449  0.00  0.00    +0.000 A 
ATOM      7  C   UNL     1       2.911   4.803  18.697  0.00  0.00    +0.000 A 
ATOM      8  C   UNL     1       3.346   5.849  17.851  0.00  0.00    +0.000 A 
ATOM      9  C   UNL     1       5.636   4.114  15.636  0.00  0.00    +0.000 C 
ATOM     10  O   UNL     1       6.175   3.081  15.268  0.00  0.00    +0.000 OA
ENDROOT
BRANCH   1  15
ATOM     11  C   UNL     1       7.835   7.710  17.836  0.00  0.00    +0.000 A 
ATOM     12  C   UNL     1       7.832   6.885  18.968  0.00  0.00    +0.000 A 
ATOM     13  C   UNL     1       7.692   5.508  18.837  0.00  0.00    +0.000 A 
ATOM     14  C   UNL     1       7.419   4.958  17.591  0.00  0.00    +0.000 A 
ATOM     15  C   UNL     1       7.154   5.808  16.505  0.00  0.00    +0.000 A 
ATOM     16  C   UNL     1       7.519   7.156  16.591  0.00  0.00    +0.000 A 
BRANCH  11  17
ATOM     17  C   UNL     1       8.052   9.198  17.973  0.00  0.00    +0.000 C 
BRANCH  17  18
ATOM     18  C   UNL     1       9.060   9.515  19.080  0.00  0.00    +0.000 C 
BRANCH  18  24
ATOM     19  C   UNL     1       9.274  11.737  21.212  0.00  0.00    +0.000 C 
ATOM     20  N   UNL     1       9.751  11.817  19.858  0.00  0.00    +0.000 N 
ATOM     21  C   UNL     1      10.351  12.890  19.277  0.00  0.00    +0.000 A 
ATOM     22  N   UNL     1      10.648  12.605  18.032  0.00  0.00    +0.000 NA
ATOM     23  N   UNL     1      10.228  11.320  17.790  0.00  0.00    +0.000 NA
ATOM     24  C   UNL     1       9.688  10.847  18.893  0.00  0.00    +0.000 A 
ENDBRANCH  18  24
ENDBRANCH  17  18
ENDBRANCH  11  17
ENDBRANCH   1  15
BRANCH   8  25
ATOM     25  C   UNL     1       3.071   7.280  18.248  0.00  0.00    +0.000 C 
ATOM     26  F   UNL     1       4.094   8.136  17.996  0.00  0.00    +0.000 F 
ATOM     27  F   UNL     1       1.991   7.789  17.595  0.00  0.00    +0.000 F 
ATOM     28  F   UNL     1       2.798   7.401  19.575  0.00  0.00    +0.000 F 
ENDBRANCH   8  25
BRANCH   6  29
ATOM     29  C   UNL     1       2.836   2.454  19.458  0.00  0.00    +0.000 C 
ATOM     30  N   UNL     1       1.883   1.590  19.331  0.00  0.00    +0.000 NA
ATOM     31  H   UNL     1       1.397   1.649  18.436  0.00  0.00    +0.000 HD
ENDBRANCH   6  29
TORSDOF 6
ENDMDL
MODEL 3
REMARK VINA RESULT:      -8.8      0.828      1.192
REMARK  Name = 
REMARK  7 active torsions:
REMARK  status: ('A' for Active; 'I' for Inactive)
REMARK    1  A    between atoms: C_1  and  N_2
REMARK    2  A    between atoms: C_6  and  C_7
REMARK    3  A    between atoms: C_7  and  C_8
REMARK    4  A    between atoms: C_8  and  C_9
REMARK    5  A    between atoms: C_13  and  N_14
REMARK    6  A    between atoms: C_19  and  C_20
REMARK    7  A    between atoms: C_23  and  C_24
REMARK                            x       y       z     vdW  Elec       q    Type
REMARK                         _______ _______ _______ _____ _____    ______ ____
ROOT
ATOM      1  N   UNL     1       3.790   4.522  19.282  0.00  0.00    +0.000 N 
ATOM      2  C   UNL     1       5.172   5.064  19.336  0.00  0.00    +0.000 C 
ATOM      3  C   UNL     1       5.626   4.903  17.915  0.00  0.00    +0.000 A 
ATOM      4  C   UNL     1       4.916   3.827  17.375  0.00  0.00    +0.000 A 
ATOM      5  C   UNL     1       4.960   3.484  16.034  0.00  0.00    +0.000 A 
ATOM      6  C   UNL     1       5.744   4.282  15.202  0.00  0.00    +0.000 A 
ATOM      7  C   UNL     1       6.458   5.382  15.729  0.00  0.00    +0.000 A 
ATOM      8  C   UNL     1       6.407   5.718  17.102  0.00  0.00    +0.000 A 
ATOM      9  C   UNL     1       3.828   3.477  18.323  0.00  0.00    +0.000 C 
ATOM     10  O   UNL     1       3.024   2.579  18.122  0.00  0.00    +0.000 OA
ENDROOT
BRANCH   1  15
ATOM     11  C   UNL     1       1.904   7.529  20.119  0.00  0.00    +0.000 A 
ATOM     12  C   UNL     1       2.302   8.317  19.031  0.00  0.00    +0.000 A 
ATOM     13  C   UNL     1       2.778   7.725  17.867  0.00  0.00    +0.000 A 
ATOM     14  C   UNL     1       2.987   6.352  17.827  0.00  0.00    +0.000 A 
ATOM     15  C   UNL     1       2.845   5.598  19.003  0.00  0.00    +0.000 A 
ATOM     16  C   UNL     1       2.156   6.153  20.088  0.00  0.00    +0.000 A 
BRANCH  11  17
ATOM     17  C   UNL     1       1.327   8.168  21.358  0.00  0.00    +0.000 C 
BRANCH  17  18
ATOM     18  C   UNL     1      -0.041   8.792  21.077  0.00  0.00    +0.000 C 
BRANCH  18  24
ATOM     19  C   UNL     1      -0.677  10.685  18.723  0.00  0.00    +0.000 C 
ATOM     20  N   UNL     1      -0.264  11.086  20.041  0.00  0.00    +0.000 N 
ATOM     21  C   UNL     1      -0.056  12.360  20.468  0.00  0.00    +0.000 A 
ATOM     22  N   UNL     1       0.317  12.345  21.724  0.00  0.00    +0.000 NA
ATOM     23  N   UNL     1       0.361  11.033  22.128  0.00  0.00    +0.000 NA
ATOM     24  C   UNL     1       0.009  10.277  21.111  0.00  0.00    +0.000 A 
ENDBRANCH  18  24
ENDBRANCH  17  18
ENDBRANCH  11  17
ENDBRANCH   1  15
BRANCH   8  25
ATOM     25  C   UNL     1       7.078   6.985  17.575  0.00  0.00    +0.000 C 
ATOM     26  F   UNL     1       7.738   6.860  18.755  0.00  0.00    +0.000 F 
ATOM     27  F   UNL     1       7.999   7.437  16.680  0.00  0.00    +0.000 F 
ATOM     28  F   UNL     1       6.191   8.002  17.747  0.00  0.00    +0.000 F 
ENDBRANCH   8  25
BRANCH   6  29
ATOM     29  C   UNL     1       5.779   4.088  13.737  0.00  0.00    +0.000 C 
ATOM     30  N   UNL     1       6.423   3.164  13.104  0.00  0.00    +0.000 NA
ATOM     31  H   UNL     1       6.946   2.539  13.719  0.00  0.00    +0.000 HD
ENDBRANCH   6  29
TORSDOF 6
ENDMDL
MODEL 4
REMARK VINA RESULT:      -8.6      0.878      1.493
REMARK  Name = 
REMARK  7 active torsions:
REMARK  status: ('A' for Active; 'I' for Inactive)
REMARK    1  A    between atoms: C_1  and  N_2
REMARK    2  A    between atoms: C_6  and  C_7
REMARK    3  A    between atoms: C_7  and  C_8
REMARK    4  A    between atoms: C_8  and  C_9
REMARK    5  A    between atoms: C_13  and  N_14
REMARK    6  A    between atoms: C_19  and  C_20
REMARK    7  A    between atoms: C_23  and  C_24
REMARK                            x       y       z     vdW  Elec       q    Type
REMARK                         _______ _______ _______ _____ _____    ______ ____
ROOT
ATOM      1  N   UNL     1       3.693   4.510  19.259  0.00  0.00    +0.000 N 
ATOM      2  C   UNL     1       5.079   5.043  19.324  0.00  0.00    +0.000 C 
ATOM      3  C   UNL     1       5.541   4.884  17.906  0.00  0.00    +0.000 A 
ATOM      4  C   UNL     1       4.828   3.814  17.357  0.00  0.00    +0.000 A 
ATOM      5  C   UNL     1       4.879   3.475  16.016  0.00  0.00    +0.000 A 
ATOM      6  C   UNL     1       5.672   4.271  15.192  0.00  0.00    +0.000 A 
ATOM      7  C   UNL     1       6.390   5.366  15.727  0.00  0.00    +0.000 A 
ATOM      8  C   UNL     1       6.332   5.697  17.100  0.00  0.00    +0.000 A 
ATOM      9  C   UNL     1       3.732   3.467  18.297  0.00  0.00    +0.000 C 
ATOM     10  O   UNL     1       2.924   2.575  18.088  0.00  0.00    +0.000 OA
ENDROOT
BRANCH   1  15
ATOM     11  C   UNL     1       1.934   7.607  20.036  0.00  0.00    +0.000 A 
ATOM     12  C   UNL     1       2.278   8.322  18.880  0.00  0.00    +0.000 A 
ATOM     13  C   UNL     1       2.664   7.651  17.725  0.00  0.00    +0.000 A 
ATOM     14  C   UNL     1       2.839   6.274  17.753  0.00  0.00    +0.000 A 
ATOM     15  C   UNL     1       2.757   5.592  18.978  0.00  0.00    +0.000 A 
ATOM     16  C   UNL     1       2.152   6.226  20.070  0.00  0.00    +0.000 A 
BRANCH  11  17
ATOM     17  C   UNL     1       1.452   8.331  21.270  0.00  0.00    +0.000 C 
BRANCH  17  18
ATOM     18  C   UNL     1       0.104   9.012  21.025  0.00  0.00    +0.000 C 
BRANCH  18  24
ATOM     19  C   UNL     1      -1.233  10.814  23.146  0.00  0.00    +0.000 C 
ATOM     20  N   UNL     1      -0.414  11.262  22.052  0.00  0.00    +0.000 N 
ATOM     21  C   UNL     1      -0.111  12.553  21.747  0.00  0.00    +0.000 A 
ATOM     22  N   UNL     1       0.653  12.583  20.683  0.00  0.00    +0.000 NA
ATOM     23  N   UNL     1       0.851  11.286  20.277  0.00  0.00    +0.000 NA
ATOM     24  C   UNL     1       0.207  10.492  21.105  0.00  0.00    +0.000 A 
ENDBRANCH  18  24
ENDBRANCH  17  18
ENDBRANCH  11  17
ENDBRANCH   1  15
BRANCH   8  25
ATOM     25  C   UNL     1       7.007   6.958  17.582  0.00  0.00    +0.000 C 
ATOM     26  F   UNL     1       7.638   6.832  18.778  0.00  0.00    +0.000 F 
ATOM     27  F   UNL     1       7.955   7.393  16.707  0.00  0.00    +0.000 F 
ATOM     28  F   UNL     1       6.129   7.987  17.727  0.00  0.00    +0.000 F 
ENDBRANCH   8  25
BRANCH   6  29
ATOM     29  C   UNL     1       5.716   4.082  13.726  0.00  0.00    +0.000 C 
ATOM     30  N   UNL     1       6.508   3.290  13.082  0.00  0.00    +0.000 NA
ATOM     31  H   UNL     1       7.148   2.775  13.687  0.00  0.00    +0.000 HD
ENDBRANCH   6  29
TORSDOF 6
ENDMDL
MODEL 5
REMARK VINA RESULT:      -8.5      3.881      6.397
REMARK  Name = 
REMARK  7 active torsions:
REMARK  status: ('A' for Active; 'I' for Inactive)
REMARK    1  A    between atoms: C_1  and  N_2
REMARK    2  A    between atoms: C_6  and  C_7
REMARK    3  A    between atoms: C_7  and  C_8
REMARK    4  A    between atoms: C_8  and  C_9
REMARK    5  A    between atoms: C_13  and  N_14
REMARK    6  A    between atoms: C_19  and  C_20
REMARK    7  A    between atoms: C_23  and  C_24
REMARK                            x       y       z     vdW  Elec       q    Type
REMARK                         _______ _______ _______ _____ _____    ______ ____
ROOT
ATOM      1  N   UNL     1       6.080   5.392  15.597  0.00  0.00    +0.000 N 
ATOM      2  C   UNL     1       4.885   6.248  15.813  0.00  0.00    +0.000 C 
ATOM      3  C   UNL     1       4.117   5.458  16.832  0.00  0.00    +0.000 A 
ATOM      4  C   UNL     1       4.455   4.114  16.652  0.00  0.00    +0.000 A 
ATOM      5  C   UNL     1       4.058   3.108  17.516  0.00  0.00    +0.000 A 
ATOM      6  C   UNL     1       3.300   3.487  18.623  0.00  0.00    +0.000 A 
ATOM      7  C   UNL     1       2.959   4.844  18.827  0.00  0.00    +0.000 A 
ATOM      8  C   UNL     1       3.369   5.860  17.933  0.00  0.00    +0.000 A 
ATOM      9  C   UNL     1       5.622   4.056  15.736  0.00  0.00    +0.000 C 
ATOM     10  O   UNL     1       6.160   3.013  15.396  0.00  0.00    +0.000 OA
ENDROOT
BRANCH   1  15
ATOM     11  C   UNL     1       7.769   7.698  17.861  0.00  0.00    +0.000 A 
ATOM     12  C   UNL     1       7.868   6.846  18.969  0.00  0.00    +0.000 A 
ATOM     13  C   UNL     1       7.807   5.467  18.806  0.00  0.00    +0.000 A 
ATOM     14  C   UNL     1       7.513   4.932  17.558  0.00  0.00    +0.000 A 
ATOM     15  C   UNL     1       7.148   5.790  16.508  0.00  0.00    +0.000 A 
ATOM     16  C   UNL     1       7.433   7.156  16.616  0.00  0.00    +0.000 A 
BRANCH  11  17
ATOM     17  C   UNL     1       7.901   9.192  18.029  0.00  0.00    +0.000 C 
BRANCH  17  18
ATOM     18  C   UNL     1       9.287   9.574  18.553  0.00  0.00    +0.000 C 
BRANCH  18  24
ATOM     19  C   UNL     1       9.385  12.552  17.745  0.00  0.00    +0.000 C 
ATOM     20  N   UNL     1       9.292  12.044  19.087  0.00  0.00    +0.000 N 
ATOM     21  C   UNL     1       9.261  12.782  20.228  0.00  0.00    +0.000 A 
ATOM     22  N   UNL     1       9.178  11.984  21.264  0.00  0.00    +0.000 NA
ATOM     23  N   UNL     1       9.162  10.694  20.793  0.00  0.00    +0.000 NA
ATOM     24  C   UNL     1       9.230  10.733  19.479  0.00  0.00    +0.000 A 
ENDBRANCH  18  24
ENDBRANCH  17  18
ENDBRANCH  11  17
ENDBRANCH   1  15
BRANCH   8  25
ATOM     25  C   UNL     1       3.093   7.303  18.283  0.00  0.00    +0.000 C 
ATOM     26  F   UNL     1       2.072   7.861  17.582  0.00  0.00    +0.000 F 
ATOM     27  F   UNL     1       2.769   7.454  19.596  0.00  0.00    +0.000 F 
ATOM     28  F   UNL     1       4.175   8.099  18.068  0.00  0.00    +0.000 F 
ENDBRANCH   8  25
BRANCH   6  29
ATOM     29  C   UNL     1       2.915   2.524  19.676  0.00  0.00    +0.000 C 
ATOM     30  N   UNL     1       2.774   2.785  20.934  0.00  0.00    +0.000 NA
ATOM     31  H   UNL     1       2.965   3.760  21.171  0.00  0.00    +0.000 HD
ENDBRANCH   6  29
TORSDOF 6
ENDMDL
MODEL 6
REMARK VINA RESULT:      -8.5      1.049      1.271
REMARK  Name = 
REMARK  7 active torsions:
REMARK  status: ('A' for Active; 'I' for Inactive)
REMARK    1  A    between atoms: C_1  and  N_2
REMARK    2  A    between atoms: C_6  and  C_7
REMARK    3  A    between atoms: C_7  and  C_8
REMARK    4  A    between atoms: C_8  and  C_9
REMARK    5  A    between atoms: C_13  and  N_14
REMARK    6  A    between atoms: C_19  and  C_20
REMARK    7  A    between atoms: C_23  and  C_24
REMARK                            x       y       z     vdW  Elec       q    Type
REMARK                         _______ _______ _______ _____ _____    ______ ____
ROOT
ATOM      1  N   UNL     1       3.192   3.841  18.685  0.00  0.00    +0.000 N 
ATOM      2  C   UNL     1       4.547   3.986  19.279  0.00  0.00    +0.000 C 
ATOM      3  C   UNL     1       5.406   4.150  18.060  0.00  0.00    +0.000 A 
ATOM      4  C   UNL     1       4.760   3.493  17.009  0.00  0.00    +0.000 A 
ATOM      5  C   UNL     1       5.183   3.565  15.693  0.00  0.00    +0.000 A 
ATOM      6  C   UNL     1       6.300   4.358  15.430  0.00  0.00    +0.000 A 
ATOM      7  C   UNL     1       6.958   5.040  16.479  0.00  0.00    +0.000 A 
ATOM      8  C   UNL     1       6.516   4.952  17.820  0.00  0.00    +0.000 A 
ATOM      9  C   UNL     1       3.386   3.154  17.459  0.00  0.00    +0.000 C 
ATOM     10  O   UNL     1       2.569   2.583  16.753  0.00  0.00    +0.000 OA
ENDROOT
BRANCH   1  15
ATOM     11  C   UNL     1       1.832   6.943  20.035  0.00  0.00    +0.000 A 
ATOM     12  C   UNL     1       2.577   7.838  19.256  0.00  0.00    +0.000 A 
ATOM     13  C   UNL     1       3.132   7.429  18.048  0.00  0.00    +0.000 A 
ATOM     14  C   UNL     1       3.063   6.093  17.675  0.00  0.00    +0.000 A 
ATOM     15  C   UNL     1       2.554   5.149  18.581  0.00  0.00    +0.000 A 
ATOM     16  C   UNL     1       1.801   5.592  19.674  0.00  0.00    +0.000 A 
BRANCH  11  17
ATOM     17  C   UNL     1       1.174   7.404  21.313  0.00  0.00    +0.000 C 
BRANCH  17  18
ATOM     18  C   UNL     1       1.688   8.780  21.739  0.00  0.00    +0.000 C 
BRANCH  18  24
ATOM     19  C   UNL     1       0.062  10.642  19.890  0.00  0.00    +0.000 C 
ATOM     20  N   UNL     1      -0.107  10.506  21.311  0.00  0.00    +0.000 N 
ATOM     21  C   UNL     1      -0.990  11.191  22.087  0.00  0.00    +0.000 A 
ATOM     22  N   UNL     1      -0.861  10.812  23.335  0.00  0.00    +0.000 NA
ATOM     23  N   UNL     1       0.131   9.863  23.380  0.00  0.00    +0.000 NA
ATOM     24  C   UNL     1       0.583   9.680  22.158  0.00  0.00    +0.000 A 
ENDBRANCH  18  24
ENDBRANCH  17  18
ENDBRANCH  11  17
ENDBRANCH   1  15
BRANCH   8  25
ATOM     25  C   UNL     1       7.175   5.815  18.869  0.00  0.00    +0.000 C 
ATOM     26  F   UNL     1       8.342   5.315  19.351  0.00  0.00    +0.000 F 
ATOM     27  F   UNL     1       7.471   7.056  18.394  0.00  0.00    +0.000 F 
ATOM     28  F   UNL     1       6.374   6.008  19.951  0.00  0.00    +0.000 F 
ENDBRANCH   8  25
BRANCH   6  29
ATOM     29  C   UNL     1       6.777   4.608  14.054  0.00  0.00    +0.000 C 
ATOM     30  N   UNL     1       7.718   5.423  13.708  0.00  0.00    +0.000 NA
ATOM     31  H   UNL     1       8.134   5.921  14.496  0.00  0.00    +0.000 HD
ENDBRANCH   6  29
TORSDOF 6
ENDMDL
MODEL 7
REMARK VINA RESULT:      -8.3      1.189      1.592
REMARK  Name = 
REMARK  7 active torsions:
REMARK  status: ('A' for Active; 'I' for Inactive)
REMARK    1  A    between atoms: C_1  and  N_2
REMARK    2  A    between atoms: C_6  and  C_7
REMARK    3  A    between atoms: C_7  and  C_8
REMARK    4  A    between atoms: C_8  and  C_9
REMARK    5  A    between atoms: C_13  and  N_14
REMARK    6  A    between atoms: C_19  and  C_20
REMARK    7  A    between atoms: C_23  and  C_24
REMARK                            x       y       z     vdW  Elec       q    Type
REMARK                         _______ _______ _______ _____ _____    ______ ____
ROOT
ATOM      1  N   UNL     1       4.174   4.696  19.170  0.00  0.00    +0.000 N 
ATOM      2  C   UNL     1       5.514   5.320  19.316  0.00  0.00    +0.000 C 
ATOM      3  C   UNL     1       6.094   5.137  17.945  0.00  0.00    +0.000 A 
ATOM      4  C   UNL     1       5.494   4.002  17.391  0.00  0.00    +0.000 A 
ATOM      5  C   UNL     1       5.669   3.615  16.074  0.00  0.00    +0.000 A 
ATOM      6  C   UNL     1       6.474   4.429  15.277  0.00  0.00    +0.000 A 
ATOM      7  C   UNL     1       7.079   5.587  15.816  0.00  0.00    +0.000 A 
ATOM      8  C   UNL     1       6.894   5.967  17.166  0.00  0.00    +0.000 A 
ATOM      9  C   UNL     1       4.351   3.622  18.260  0.00  0.00    +0.000 C 
ATOM     10  O   UNL     1       3.618   2.671  18.030  0.00  0.00    +0.000 OA
ENDROOT
BRANCH   1  15
ATOM     11  C   UNL     1       2.004   7.568  19.751  0.00  0.00    +0.000 A 
ATOM     12  C   UNL     1       2.471   8.379  18.709  0.00  0.00    +0.000 A 
ATOM     13  C   UNL     1       3.119   7.818  17.614  0.00  0.00    +0.000 A 
ATOM     14  C   UNL     1       3.424   6.463  17.613  0.00  0.00    +0.000 A 
ATOM     15  C   UNL     1       3.197   5.704  18.773  0.00  0.00    +0.000 A 
ATOM     16  C   UNL     1       2.350   6.213  19.764  0.00  0.00    +0.000 A 
BRANCH  11  17
ATOM     17  C   UNL     1       1.243   8.169  20.908  0.00  0.00    +0.000 C 
BRANCH  17  18
ATOM     18  C   UNL     1       1.319   9.697  20.891  0.00  0.00    +0.000 C 
BRANCH  18  24
ATOM     19  C   UNL     1       1.681  12.203  19.124  0.00  0.00    +0.000 C 
ATOM     20  N   UNL     1       0.482  11.418  19.240  0.00  0.00    +0.000 N 
ATOM     21  C   UNL     1      -0.703  11.657  18.617  0.00  0.00    +0.000 A 
ATOM     22  N   UNL     1      -1.572  10.739  18.961  0.00  0.00    +0.000 NA
ATOM     23  N   UNL     1      -0.947   9.882  19.834  0.00  0.00    +0.000 NA
ATOM     24  C   UNL     1       0.292  10.294  19.999  0.00  0.00    +0.000 A 
ENDBRANCH  18  24
ENDBRANCH  17  18
ENDBRANCH  11  17
ENDBRANCH   1  15
BRANCH   8  25
ATOM     25  C   UNL     1       7.451   7.287  17.642  0.00  0.00    +0.000 C 
ATOM     26  F   UNL     1       8.163   7.210  18.795  0.00  0.00    +0.000 F 
ATOM     27  F   UNL     1       8.288   7.846  16.725  0.00  0.00    +0.000 F 
ATOM     28  F   UNL     1       6.473   8.206  17.865  0.00  0.00    +0.000 F 
ENDBRANCH   8  25
BRANCH   6  29
ATOM     29  C   UNL     1       6.643   4.186  13.829  0.00  0.00    +0.000 C 
ATOM     30  N   UNL     1       6.067   3.258  13.138  0.00  0.00    +0.000 NA
ATOM     31  H   UNL     1       5.454   2.660  13.692  0.00  0.00    +0.000 HD
ENDBRANCH   6  29
TORSDOF 6
ENDMDL
MODEL 8
REMARK VINA RESULT:      -8.2      4.472      6.553
REMARK  Name = 
REMARK  7 active torsions:
REMARK  status: ('A' for Active; 'I' for Inactive)
REMARK    1  A    between atoms: C_1  and  N_2
REMARK    2  A    between atoms: C_6  and  C_7
REMARK    3  A    between atoms: C_7  and  C_8
REMARK    4  A    between atoms: C_8  and  C_9
REMARK    5  A    between atoms: C_13  and  N_14
REMARK    6  A    between atoms: C_19  and  C_20
REMARK    7  A    between atoms: C_23  and  C_24
REMARK                            x       y       z     vdW  Elec       q    Type
REMARK                         _______ _______ _______ _____ _____    ______ ____
ROOT
ATOM      1  N   UNL     1       5.974   6.058  15.761  0.00  0.00    +0.000 N 
ATOM      2  C   UNL     1       4.797   6.639  16.457  0.00  0.00    +0.000 C 
ATOM      3  C   UNL     1       4.136   5.418  17.025  0.00  0.00    +0.000 A 
ATOM      4  C   UNL     1       4.468   4.345  16.194  0.00  0.00    +0.000 A 
ATOM      5  C   UNL     1       4.163   3.028  16.494  0.00  0.00    +0.000 A 
ATOM      6  C   UNL     1       3.511   2.789  17.702  0.00  0.00    +0.000 A 
ATOM      7  C   UNL     1       3.179   3.861  18.562  0.00  0.00    +0.000 A 
ATOM      8  C   UNL     1       3.493   5.202  18.240  0.00  0.00    +0.000 A 
ATOM      9  C   UNL     1       5.543   4.796  15.274  0.00  0.00    +0.000 C 
ATOM     10  O   UNL     1       6.055   4.074  14.432  0.00  0.00    +0.000 OA
ENDROOT
BRANCH   1  15
ATOM     11  C   UNL     1       8.117   7.402  18.387  0.00  0.00    +0.000 A 
ATOM     12  C   UNL     1       8.085   6.298  19.248  0.00  0.00    +0.000 A 
ATOM     13  C   UNL     1       7.767   5.034  18.764  0.00  0.00    +0.000 A 
ATOM     14  C   UNL     1       7.347   4.885  17.448  0.00  0.00    +0.000 A 
ATOM     15  C   UNL     1       7.119   6.027  16.663  0.00  0.00    +0.000 A 
ATOM     16  C   UNL     1       7.654   7.253  17.075  0.00  0.00    +0.000 A 
BRANCH  11  17
ATOM     17  C   UNL     1       8.526   8.762  18.898  0.00  0.00    +0.000 C 
BRANCH  17  18
ATOM     18  C   UNL     1       8.473   9.813  17.788  0.00  0.00    +0.000 C 
BRANCH  18  24
ATOM     19  C   UNL     1       7.613  12.707  17.143  0.00  0.00    +0.000 C 
ATOM     20  N   UNL     1       8.808  12.318  17.841  0.00  0.00    +0.000 N 
ATOM     21  C   UNL     1       9.776  13.150  18.310  0.00  0.00    +0.000 A 
ATOM     22  N   UNL     1      10.718  12.445  18.887  0.00  0.00    +0.000 NA
ATOM     23  N   UNL     1      10.365  11.121  18.788  0.00  0.00    +0.000 NA
ATOM     24  C   UNL     1       9.212  11.048  18.158  0.00  0.00    +0.000 A 
ENDBRANCH  18  24
ENDBRANCH  17  18
ENDBRANCH  11  17
ENDBRANCH   1  15
BRANCH   8  25
ATOM     25  C   UNL     1       3.239   6.284  19.262  0.00  0.00    +0.000 C 
ATOM     26  F   UNL     1       4.359   6.748  19.873  0.00  0.00    +0.000 F 
ATOM     27  F   UNL     1       2.637   7.373  18.710  0.00  0.00    +0.000 F 
ATOM     28  F   UNL     1       2.414   5.864  20.259  0.00  0.00    +0.000 F 
ENDBRANCH   8  25
BRANCH   6  29
ATOM     29  C   UNL     1       3.237   1.420  18.188  0.00  0.00    +0.000 C 
ATOM     30  N   UNL     1       4.114   0.569  18.608  0.00  0.00    +0.000 NA
ATOM     31  H   UNL     1       5.071   0.922  18.574  0.00  0.00    +0.000 HD
ENDBRANCH   6  29
TORSDOF 6
ENDMDL
MODEL 9
REMARK VINA RESULT:      -8.0      4.001      6.812
REMARK  Name = 
REMARK  7 active torsions:
REMARK  status: ('A' for Active; 'I' for Inactive)
REMARK    1  A    between atoms: C_1  and  N_2
REMARK    2  A    between atoms: C_6  and  C_7
REMARK    3  A    between atoms: C_7  and  C_8
REMARK    4  A    between atoms: C_8  and  C_9
REMARK    5  A    between atoms: C_13  and  N_14
REMARK    6  A    between atoms: C_19  and  C_20
REMARK    7  A    between atoms: C_23  and  C_24
REMARK                            x       y       z     vdW  Elec       q    Type
REMARK                         _______ _______ _______ _____ _____    ______ ____
ROOT
ATOM      1  N   UNL     1       6.032   5.268  15.742  0.00  0.00    +0.000 N 
ATOM      2  C   UNL     1       4.881   6.204  15.820  0.00  0.00    +0.000 C 
ATOM      3  C   UNL     1       4.074   5.615  16.938  0.00  0.00    +0.000 A 
ATOM      4  C   UNL     1       4.345   4.243  16.964  0.00  0.00    +0.000 A 
ATOM      5  C   UNL     1       3.897   3.399  17.965  0.00  0.00    +0.000 A 
ATOM      6  C   UNL     1       3.158   3.976  18.997  0.00  0.00    +0.000 A 
ATOM      7  C   UNL     1       2.886   5.363  18.994  0.00  0.00    +0.000 A 
ATOM      8  C   UNL     1       3.347   6.213  17.962  0.00  0.00    +0.000 A 
ATOM      9  C   UNL     1       5.508   3.992  16.075  0.00  0.00    +0.000 C 
ATOM     10  O   UNL     1       5.993   2.884  15.899  0.00  0.00    +0.000 OA
ENDROOT
BRANCH   1  15
ATOM     11  C   UNL     1       7.813   7.789  17.684  0.00  0.00    +0.000 A 
ATOM     12  C   UNL     1       7.888   7.086  18.893  0.00  0.00    +0.000 A 
ATOM     13  C   UNL     1       7.779   5.701  18.912  0.00  0.00    +0.000 A 
ATOM     14  C   UNL     1       7.459   5.018  17.745  0.00  0.00    +0.000 A 
ATOM     15  C   UNL     1       7.118   5.744  16.592  0.00  0.00    +0.000 A 
ATOM     16  C   UNL     1       7.451   7.101  16.520  0.00  0.00    +0.000 A 
BRANCH  11  17
ATOM     17  C   UNL     1       7.997   9.287  17.654  0.00  0.00    +0.000 C 
BRANCH  17  18
ATOM     18  C   UNL     1       8.800   9.773  18.862  0.00  0.00    +0.000 C 
BRANCH  18  24
ATOM     19  C   UNL     1       7.935  12.351  17.401  0.00  0.00    +0.000 C 
ATOM     20  N   UNL     1       9.264  12.044  17.854  0.00  0.00    +0.000 N 
ATOM     21  C   UNL     1      10.371  12.818  17.694  0.00  0.00    +0.000 A 
ATOM     22  N   UNL     1      11.406  12.218  18.229  0.00  0.00    +0.000 NA
ATOM     23  N   UNL     1      10.971  11.022  18.746  0.00  0.00    +0.000 NA
ATOM     24  C   UNL     1       9.679  10.920  18.519  0.00  0.00    +0.000 A 
ENDBRANCH  18  24
ENDBRANCH  17  18
ENDBRANCH  11  17
ENDBRANCH   1  15
BRANCH   8  25
ATOM     25  C   UNL     1       3.143   7.704  18.090  0.00  0.00    +0.000 C 
ATOM     26  F   UNL     1       2.581   8.091  19.263  0.00  0.00    +0.000 F 
ATOM     27  F   UNL     1       4.317   8.386  17.997  0.00  0.00    +0.000 F 
ATOM     28  F   UNL     1       2.343   8.199  17.108  0.00  0.00    +0.000 F 
ENDBRANCH   8  25
BRANCH   6  29
ATOM     29  C   UNL     1       2.726   3.202  20.179  0.00  0.00    +0.000 C 
ATOM     30  N   UNL     1       3.473   2.439  20.908  0.00  0.00    +0.000 NA
ATOM     31  H   UNL     1       4.442   2.397  20.590  0.00  0.00    +0.000 HD
ENDBRANCH   6  29
TORSDOF 6
ENDMDL
