MODEL 1
REMARK VINA RESULT:      -8.6      0.000      0.000
REMARK  Name = 
REMARK  6 active torsions:
REMARK  status: ('A' for Active; 'I' for Inactive)
REMARK    1  A    between atoms: C_1  and  N_2
REMARK    2  A    between atoms: C_3  and  C_5
REMARK    3  A    between atoms: C_9  and  C_10
REMARK    4  A    between atoms: C_10  and  N_11
REMARK    5  A    between atoms: C_15  and  C_16
REMARK    6  A    between atoms: C_15  and  C_22
REMARK                            x       y       z     vdW  Elec       q    Type
REMARK                         _______ _______ _______ _____ _____    ______ ____
ROOT
ATOM      1  N   UNL     1       1.710   8.620  19.297  0.00  0.00    +0.000 N 
ATOM      2  C   UNL     1       2.040   9.017  18.047  0.00  0.00    +0.000 C 
ATOM      3  O   UNL     1       2.717   8.413  17.230  0.00  0.00    +0.000 OA
ATOM      4  N   UNL     1       1.461  10.236  17.790  0.00  0.00    +0.000 N 
ATOM      5  C   UNL     1       0.547  10.666  18.835  0.00  0.00    +0.000 C 
ATOM      6  C   UNL     1       0.808   9.491  19.843  0.00  0.00    +0.000 C 
ATOM      7  O   UNL     1       0.274   9.343  20.933  0.00  0.00    +0.000 OA
ATOM      8  H   UNL     1       1.551  10.681  16.887  0.00  0.00    +0.000 HD
ENDROOT
BRANCH   5   9
ATOM      9  C   UNL     1       0.946  12.056  19.356  0.00  0.00    +0.000 A 
ATOM     10  C   UNL     1       1.191  13.105  18.447  0.00  0.00    +0.000 A 
ATOM     11  C   UNL     1       1.274  14.428  18.886  0.00  0.00    +0.000 A 
ATOM     12  C   UNL     1       1.149  14.726  20.240  0.00  0.00    +0.000 A 
ATOM     13  C   UNL     1       1.002  13.697  21.162  0.00  0.00    +0.000 A 
ATOM     14  C   UNL     1       0.915  12.374  20.726  0.00  0.00    +0.000 A 
ENDBRANCH   5   9
BRANCH   5  15
ATOM     15  C   UNL     1      -0.928  10.628  18.374  0.00  0.00    +0.000 A 
ATOM     16  C   UNL     1      -1.915  11.434  18.971  0.00  0.00    +0.000 A 
ATOM     17  C   UNL     1      -3.231  11.437  18.500  0.00  0.00    +0.000 A 
ATOM     18  C   UNL     1      -3.595  10.621  17.434  0.00  0.00    +0.000 A 
ATOM     19  C   UNL     1      -2.646   9.792  16.845  0.00  0.00    +0.000 A 
ATOM     20  C   UNL     1      -1.326   9.796  17.307  0.00  0.00    +0.000 A 
ENDBRANCH   5  15
BRANCH   1  21
ATOM     21  C   UNL     1       2.199   7.428  19.963  0.00  0.00    +0.000 C 
BRANCH  21  26
ATOM     22  C   UNL     1       4.097   4.912  17.829  0.00  0.00    +0.000 A 
ATOM     23  C   UNL     1       3.074   4.070  17.388  0.00  0.00    +0.000 A 
ATOM     24  C   UNL     1       1.748   4.372  17.696  0.00  0.00    +0.000 A 
ATOM     25  C   UNL     1       1.445   5.495  18.477  0.00  0.00    +0.000 A 
ATOM     26  C   UNL     1       2.467   6.317  18.969  0.00  0.00    +0.000 A 
ATOM     27  C   UNL     1       3.789   6.041  18.596  0.00  0.00    +0.000 A 
BRANCH  22  30
ATOM     28  C   UNL     1       7.187   4.414  15.721  0.00  0.00    +0.000 C 
ATOM     29  N   UNL     1       5.856   4.696  16.174  0.00  0.00    +0.000 N 
ATOM     30  C   UNL     1       5.511   4.583  17.506  0.00  0.00    +0.000 C 
ATOM     31  O   UNL     1       6.299   4.262  18.387  0.00  0.00    +0.000 OA
ATOM     32  H   UNL     1       5.204   5.095  15.504  0.00  0.00    +0.000 HD
ENDBRANCH  22  30
ENDBRANCH  21  26
ENDBRANCH   1  21
TORSDOF 5
ENDMDL
MODEL 2
REMARK VINA RESULT:      -8.5      2.308      8.246
REMARK  Name = 
REMARK  6 active torsions:
REMARK  status: ('A' for Active; 'I' for Inactive)
REMARK    1  A    between atoms: C_1  and  N_2
REMARK    2  A    between atoms: C_3  and  C_5
REMARK    3  A    between atoms: C_9  and  C_10
REMARK    4  A    between atoms: C_10  and  N_11
REMARK    5  A    between atoms: C_15  and  C_16
REMARK    6  A    between atoms: C_15  and  C_22
REMARK                            x       y       z     vdW  Elec       q    Type
REMARK                         _______ _______ _______ _____ _____    ______ ____
ROOT
ATOM      1  N   UNL     1       3.659   4.901  17.480  0.00  0.00    +0.000 N 
ATOM      2  C   UNL     1       4.354   3.797  17.835  0.00  0.00    +0.000 C 
ATOM      3  O   UNL     1       3.922   2.783  18.360  0.00  0.00    +0.000 OA
ATOM      4  N   UNL     1       5.672   3.958  17.482  0.00  0.00    +0.000 N 
ATOM      5  C   UNL     1       5.911   5.158  16.699  0.00  0.00    +0.000 C 
ATOM      6  C   UNL     1       4.460   5.754  16.773  0.00  0.00    +0.000 C 
ATOM      7  O   UNL     1       4.081   6.796  16.258  0.00  0.00    +0.000 OA
ATOM      8  H   UNL     1       6.347   3.219  17.621  0.00  0.00    +0.000 HD
ENDROOT
BRANCH   5   9
ATOM      9  C   UNL     1       6.992   6.025  17.365  0.00  0.00    +0.000 A 
ATOM     10  C   UNL     1       7.220   7.339  16.909  0.00  0.00    +0.000 A 
ATOM     11  C   UNL     1       7.982   8.236  17.663  0.00  0.00    +0.000 A 
ATOM     12  C   UNL     1       8.558   7.830  18.863  0.00  0.00    +0.000 A 
ATOM     13  C   UNL     1       8.424   6.511  19.281  0.00  0.00    +0.000 A 
ATOM     14  C   UNL     1       7.661   5.614  18.532  0.00  0.00    +0.000 A 
ENDBRANCH   5   9
BRANCH   5  15
ATOM     15  C   UNL     1       6.259   4.838  15.227  0.00  0.00    +0.000 A 
ATOM     16  C   UNL     1       7.430   5.324  14.616  0.00  0.00    +0.000 A 
ATOM     17  C   UNL     1       7.764   4.972  13.306  0.00  0.00    +0.000 A 
ATOM     18  C   UNL     1       6.927   4.141  12.569  0.00  0.00    +0.000 A 
ATOM     19  C   UNL     1       5.748   3.671  13.138  0.00  0.00    +0.000 A 
ATOM     20  C   UNL     1       5.417   4.012  14.453  0.00  0.00    +0.000 A 
ENDBRANCH   5  15
BRANCH   1  21
ATOM     21  C   UNL     1       2.257   5.146  17.763  0.00  0.00    +0.000 C 
BRANCH  21  26
ATOM     22  C   UNL     1       1.533   8.595  19.200  0.00  0.00    +0.000 A 
ATOM     23  C   UNL     1       1.447   8.330  20.569  0.00  0.00    +0.000 A 
ATOM     24  C   UNL     1       1.724   7.049  21.045  0.00  0.00    +0.000 A 
ATOM     25  C   UNL     1       2.051   6.021  20.151  0.00  0.00    +0.000 A 
ATOM     26  C   UNL     1       2.090   6.263  18.771  0.00  0.00    +0.000 A 
ATOM     27  C   UNL     1       1.876   7.568  18.312  0.00  0.00    +0.000 A 
BRANCH  22  30
ATOM     28  C   UNL     1      -0.451  11.745  18.586  0.00  0.00    +0.000 C 
ATOM     29  N   UNL     1      -0.026  10.441  19.007  0.00  0.00    +0.000 N 
ATOM     30  C   UNL     1       1.229   9.960  18.694  0.00  0.00    +0.000 C 
ATOM     31  O   UNL     1       2.065  10.598  18.067  0.00  0.00    +0.000 OA
ATOM     32  H   UNL     1      -0.632   9.929  19.642  0.00  0.00    +0.000 HD
ENDBRANCH  22  30
ENDBRANCH  21  26
ENDBRANCH   1  21
TORSDOF 5
ENDMDL
MODEL 3
REMARK VINA RESULT:      -8.5      0.328      1.284
REMARK  Name = 
REMARK  6 active torsions:
REMARK  status: ('A' for Active; 'I' for Inactive)
REMARK    1  A    between atoms: C_1  and  N_2
REMARK    2  A    between atoms: C_3  and  C_5
REMARK    3  A    between atoms: C_9  and  C_10
REMARK    4  A    between atoms: C_10  and  N_11
REMARK    5  A    between atoms: C_15  and  C_16
REMARK    6  A    between atoms: C_15  and  C_22
REMARK                            x       y       z     vdW  Elec       q    Type
REMARK                         _______ _______ _______ _____ _____    ______ ____
ROOT
ATOM      1  N   UNL     1       1.691   8.667  19.247  0.00  0.00    +0.000 N 
ATOM      2  C   UNL     1       2.011   9.021  17.982  0.00  0.00    +0.000 C 
ATOM      3  O   UNL     1       2.664   8.379  17.174  0.00  0.00    +0.000 OA
ATOM      4  N   UNL     1       1.454  10.243  17.697  0.00  0.00    +0.000 N 
ATOM      5  C   UNL     1       0.563  10.722  18.741  0.00  0.00    +0.000 C 
ATOM      6  C   UNL     1       0.814   9.572  19.779  0.00  0.00    +0.000 C 
ATOM      7  O   UNL     1       0.292   9.467  20.881  0.00  0.00    +0.000 OA
ATOM      8  H   UNL     1       1.540  10.659  16.780  0.00  0.00    +0.000 HD
ENDROOT
BRANCH   5   9
ATOM      9  C   UNL     1       0.997  12.118  19.216  0.00  0.00    +0.000 A 
ATOM     10  C   UNL     1       1.214  12.359  20.587  0.00  0.00    +0.000 A 
ATOM     11  C   UNL     1       1.873  13.514  21.016  0.00  0.00    +0.000 A 
ATOM     12  C   UNL     1       2.296  14.464  20.090  0.00  0.00    +0.000 A 
ATOM     13  C   UNL     1       2.006  14.290  18.742  0.00  0.00    +0.000 A 
ATOM     14  C   UNL     1       1.351  13.135  18.311  0.00  0.00    +0.000 A 
ENDBRANCH   5   9
BRANCH   5  15
ATOM     15  C   UNL     1      -0.919  10.701  18.301  0.00  0.00    +0.000 A 
ATOM     16  C   UNL     1      -1.394   9.803  17.327  0.00  0.00    +0.000 A 
ATOM     17  C   UNL     1      -2.748   9.752  16.988  0.00  0.00    +0.000 A 
ATOM     18  C   UNL     1      -3.657  10.611  17.598  0.00  0.00    +0.000 A 
ATOM     19  C   UNL     1      -3.209  11.530  18.541  0.00  0.00    +0.000 A 
ATOM     20  C   UNL     1      -1.856  11.575  18.892  0.00  0.00    +0.000 A 
ENDBRANCH   5  15
BRANCH   1  21
ATOM     21  C   UNL     1       2.165   7.485  19.942  0.00  0.00    +0.000 C 
BRANCH  21  26
ATOM     22  C   UNL     1       4.091   4.927  17.885  0.00  0.00    +0.000 A 
ATOM     23  C   UNL     1       3.073   4.081  17.439  0.00  0.00    +0.000 A 
ATOM     24  C   UNL     1       1.743   4.393  17.719  0.00  0.00    +0.000 A 
ATOM     25  C   UNL     1       1.430   5.529  18.475  0.00  0.00    +0.000 A 
ATOM     26  C   UNL     1       2.447   6.357  18.971  0.00  0.00    +0.000 A 
ATOM     27  C   UNL     1       3.773   6.070  18.627  0.00  0.00    +0.000 A 
BRANCH  22  30
ATOM     28  C   UNL     1       7.225   4.414  15.845  0.00  0.00    +0.000 C 
ATOM     29  N   UNL     1       5.886   4.705  16.269  0.00  0.00    +0.000 N 
ATOM     30  C   UNL     1       5.510   4.589  17.592  0.00  0.00    +0.000 C 
ATOM     31  O   UNL     1       6.275   4.257  18.489  0.00  0.00    +0.000 OA
ATOM     32  H   UNL     1       5.252   5.112  15.586  0.00  0.00    +0.000 HD
ENDBRANCH  22  30
ENDBRANCH  21  26
ENDBRANCH   1  21
TORSDOF 5
ENDMDL
MODEL 4
REMARK VINA RESULT:      -8.4      4.641      8.875
REMARK  Name = 
REMARK  6 active torsions:
REMARK  status: ('A' for Active; 'I' for Inactive)
REMARK    1  A    between atoms: C_1  and  N_2
REMARK    2  A    between atoms: C_3  and  C_5
REMARK    3  A    between atoms: C_9  and  C_10
REMARK    4  A    between atoms: C_10  and  N_11
REMARK    5  A    between atoms: C_15  and  C_16
REMARK    6  A    between atoms: C_15  and  C_22
REMARK                            x       y       z     vdW  Elec       q    Type
REMARK                         _______ _______ _______ _____ _____    ______ ____
ROOT
ATOM      1  N   UNL     1      -2.949  11.375  18.102  0.00  0.00    +0.000 N 
ATOM      2  C   UNL     1      -2.244  10.390  17.500  0.00  0.00    +0.000 C 
ATOM      3  O   UNL     1      -2.547   9.770  16.493  0.00  0.00    +0.000 OA
ATOM      4  N   UNL     1      -1.071  10.188  18.185  0.00  0.00    +0.000 N 
ATOM      5  C   UNL     1      -0.842  11.172  19.229  0.00  0.00    +0.000 C 
ATOM      6  C   UNL     1      -2.209  11.934  19.107  0.00  0.00    +0.000 C 
ATOM      7  O   UNL     1      -2.560  12.898  19.774  0.00  0.00    +0.000 OA
ATOM      8  H   UNL     1      -0.382   9.522  17.861  0.00  0.00    +0.000 HD
ENDROOT
BRANCH   5   9
ATOM      9  C   UNL     1      -0.617  10.475  20.580  0.00  0.00    +0.000 A 
ATOM     10  C   UNL     1       0.215   9.339  20.656  0.00  0.00    +0.000 A 
ATOM     11  C   UNL     1       0.662   8.860  21.890  0.00  0.00    +0.000 A 
ATOM     12  C   UNL     1       0.262   9.482  23.070  0.00  0.00    +0.000 A 
ATOM     13  C   UNL     1      -0.633  10.543  23.021  0.00  0.00    +0.000 A 
ATOM     14  C   UNL     1      -1.079  11.026  21.789  0.00  0.00    +0.000 A 
ENDBRANCH   5   9
BRANCH   5  15
ATOM     15  C   UNL     1       0.316  12.136  18.882  0.00  0.00    +0.000 A 
ATOM     16  C   UNL     1       0.200  13.528  19.048  0.00  0.00    +0.000 A 
ATOM     17  C   UNL     1       1.277  14.381  18.793  0.00  0.00    +0.000 A 
ATOM     18  C   UNL     1       2.489  13.864  18.346  0.00  0.00    +0.000 A 
ATOM     19  C   UNL     1       2.621  12.494  18.144  0.00  0.00    +0.000 A 
ATOM     20  C   UNL     1       1.549  11.637  18.411  0.00  0.00    +0.000 A 
ENDBRANCH   5  15
BRANCH   1  21
ATOM     21  C   UNL     1      -4.278  11.816  17.726  0.00  0.00    +0.000 C 
BRANCH  21  26
ATOM     22  C   UNL     1      -6.831  11.725  20.548  0.00  0.00    +0.000 A 
ATOM     23  C   UNL     1      -7.482  10.511  20.316  0.00  0.00    +0.000 A 
ATOM     24  C   UNL     1      -7.030   9.666  19.302  0.00  0.00    +0.000 A 
ATOM     25  C   UNL     1      -5.950  10.049  18.496  0.00  0.00    +0.000 A 
ATOM     26  C   UNL     1      -5.322  11.287  18.687  0.00  0.00    +0.000 A 
ATOM     27  C   UNL     1      -5.742  12.096  19.750  0.00  0.00    +0.000 A 
BRANCH  22  30
ATOM     28  C   UNL     1      -7.441  13.001  24.046  0.00  0.00    +0.000 C 
ATOM     29  N   UNL     1      -7.034  12.223  22.912  0.00  0.00    +0.000 N 
ATOM     30  C   UNL     1      -7.320  12.628  21.624  0.00  0.00    +0.000 C 
ATOM     31  O   UNL     1      -7.911  13.666  21.353  0.00  0.00    +0.000 OA
ATOM     32  H   UNL     1      -6.425  11.427  23.080  0.00  0.00    +0.000 HD
ENDBRANCH  22  30
ENDBRANCH  21  26
ENDBRANCH   1  21
TORSDOF 5
ENDMDL
MODEL 5
REMARK VINA RESULT:      -8.4      4.352      6.835
REMARK  Name = 
REMARK  6 active torsions:
REMARK  status: ('A' for Active; 'I' for Inactive)
REMARK    1  A    between atoms: C_1  and  N_2
REMARK    2  A    between atoms: C_3  and  C_5
REMARK    3  A    between atoms: C_9  and  C_10
REMARK    4  A    between atoms: C_10  and  N_11
REMARK    5  A    between atoms: C_15  and  C_16
REMARK    6  A    between atoms: C_15  and  C_22
REMARK                            x       y       z     vdW  Elec       q    Type
REMARK                         _______ _______ _______ _____ _____    ______ ____
ROOT
ATOM      1  N   UNL     1      -2.322  13.164  21.883  0.00  0.00    +0.000 N 
ATOM      2  C   UNL     1      -2.313  13.948  20.781  0.00  0.00    +0.000 C 
ATOM      3  O   UNL     1      -1.341  14.320  20.142  0.00  0.00    +0.000 OA
ATOM      4  N   UNL     1      -3.605  14.263  20.437  0.00  0.00    +0.000 N 
ATOM      5  C   UNL     1      -4.595  13.551  21.225  0.00  0.00    +0.000 C 
ATOM      6  C   UNL     1      -3.608  12.835  22.213  0.00  0.00    +0.000 C 
ATOM      7  O   UNL     1      -3.918  12.074  23.119  0.00  0.00    +0.000 OA
ATOM      8  H   UNL     1      -3.810  14.804  19.608  0.00  0.00    +0.000 HD
ENDROOT
BRANCH   5   9
ATOM      9  C   UNL     1      -5.561  14.543  21.893  0.00  0.00    +0.000 A 
ATOM     10  C   UNL     1      -6.348  15.402  21.099  0.00  0.00    +0.000 A 
ATOM     11  C   UNL     1      -7.423  16.102  21.651  0.00  0.00    +0.000 A 
ATOM     12  C   UNL     1      -7.713  15.986  23.008  0.00  0.00    +0.000 A 
ATOM     13  C   UNL     1      -6.892  15.219  23.825  0.00  0.00    +0.000 A 
ATOM     14  C   UNL     1      -5.818  14.515  23.276  0.00  0.00    +0.000 A 
ENDBRANCH   5   9
BRANCH   5  15
ATOM     15  C   UNL     1      -5.351  12.487  20.395  0.00  0.00    +0.000 A 
ATOM     16  C   UNL     1      -4.892  12.065  19.133  0.00  0.00    +0.000 A 
ATOM     17  C   UNL     1      -5.549  11.056  18.424  0.00  0.00    +0.000 A 
ATOM     18  C   UNL     1      -6.691  10.459  18.950  0.00  0.00    +0.000 A 
ATOM     19  C   UNL     1      -7.183  10.880  20.181  0.00  0.00    +0.000 A 
ATOM     20  C   UNL     1      -6.521  11.881  20.899  0.00  0.00    +0.000 A 
ENDBRANCH   5  15
BRANCH   1  21
ATOM     21  C   UNL     1      -1.151  12.697  22.600  0.00  0.00    +0.000 C 
BRANCH  21  26
ATOM     22  C   UNL     1       0.231   9.832  20.512  0.00  0.00    +0.000 A 
ATOM     23  C   UNL     1       0.243   8.778  21.429  0.00  0.00    +0.000 A 
ATOM     24  C   UNL     1      -0.293   8.965  22.703  0.00  0.00    +0.000 A 
ATOM     25  C   UNL     1      -0.807  10.213  23.075  0.00  0.00    +0.000 A 
ATOM     26  C   UNL     1      -0.777  11.291  22.179  0.00  0.00    +0.000 A 
ATOM     27  C   UNL     1      -0.298  11.073  20.882  0.00  0.00    +0.000 A 
BRANCH  22  30
ATOM     28  C   UNL     1       2.449   8.381  17.825  0.00  0.00    +0.000 C 
ATOM     29  N   UNL     1       1.806   8.679  19.071  0.00  0.00    +0.000 N 
ATOM     30  C   UNL     1       0.811   9.633  19.156  0.00  0.00    +0.000 C 
ATOM     31  O   UNL     1       0.397  10.269  18.196  0.00  0.00    +0.000 OA
ATOM     32  H   UNL     1       2.020   8.085  19.867  0.00  0.00    +0.000 HD
ENDBRANCH  22  30
ENDBRANCH  21  26
ENDBRANCH   1  21
TORSDOF 5
ENDMDL
MODEL 6
REMARK VINA RESULT:      -8.4      3.937      6.979
REMARK  Name = 
REMARK  6 active torsions:
REMARK  status: ('A' for Active; 'I' for Inactive)
REMARK    1  A    between atoms: C_1  and  N_2
REMARK    2  A    between atoms: C_3  and  C_5
REMARK    3  A    between atoms: C_9  and  C_10
REMARK    4  A    between atoms: C_10  and  N_11
REMARK    5  A    between atoms: C_15  and  C_16
REMARK    6  A    between atoms: C_15  and  C_22
REMARK                            x       y       z     vdW  Elec       q    Type
REMARK                         _______ _______ _______ _____ _____    ______ ____
ROOT
ATOM      1  N   UNL     1      -3.091  12.519  19.422  0.00  0.00    +0.000 N 
ATOM      2  C   UNL     1      -3.210  11.857  18.249  0.00  0.00    +0.000 C 
ATOM      3  O   UNL     1      -2.319  11.340  17.594  0.00  0.00    +0.000 OA
ATOM      4  N   UNL     1      -4.534  11.812  17.886  0.00  0.00    +0.000 N 
ATOM      5  C   UNL     1      -5.426  12.323  18.914  0.00  0.00    +0.000 C 
ATOM      6  C   UNL     1      -4.328  12.809  19.926  0.00  0.00    +0.000 C 
ATOM      7  O   UNL     1      -4.530  13.335  21.012  0.00  0.00    +0.000 OA
ATOM      8  H   UNL     1      -4.836  11.316  17.059  0.00  0.00    +0.000 HD
ENDROOT
BRANCH   5   9
ATOM      9  C   UNL     1      -6.312  13.442  18.345  0.00  0.00    +0.000 A 
ATOM     10  C   UNL     1      -6.525  14.619  19.091  0.00  0.00    +0.000 A 
ATOM     11  C   UNL     1      -7.080  15.754  18.495  0.00  0.00    +0.000 A 
ATOM     12  C   UNL     1      -7.464  15.727  17.157  0.00  0.00    +0.000 A 
ATOM     13  C   UNL     1      -7.350  14.547  16.431  0.00  0.00    +0.000 A 
ATOM     14  C   UNL     1      -6.792  13.413  17.023  0.00  0.00    +0.000 A 
ENDBRANCH   5   9
BRANCH   5  15
ATOM     15  C   UNL     1      -6.267  11.203  19.568  0.00  0.00    +0.000 A 
ATOM     16  C   UNL     1      -7.098  11.447  20.677  0.00  0.00    +0.000 A 
ATOM     17  C   UNL     1      -7.903  10.440  21.216  0.00  0.00    +0.000 A 
ATOM     18  C   UNL     1      -7.880   9.159  20.673  0.00  0.00    +0.000 A 
ATOM     19  C   UNL     1      -7.044   8.882  19.596  0.00  0.00    +0.000 A 
ATOM     20  C   UNL     1      -6.247   9.892  19.047  0.00  0.00    +0.000 A 
ENDBRANCH   5  15
BRANCH   1  21
ATOM     21  C   UNL     1      -1.843  12.848  20.085  0.00  0.00    +0.000 C 
BRANCH  21  26
ATOM     22  C   UNL     1       0.033   9.717  21.163  0.00  0.00    +0.000 A 
ATOM     23  C   UNL     1      -0.167   9.716  22.545  0.00  0.00    +0.000 A 
ATOM     24  C   UNL     1      -0.997  10.675  23.125  0.00  0.00    +0.000 A 
ATOM     25  C   UNL     1      -1.599  11.658  22.330  0.00  0.00    +0.000 A 
ATOM     26  C   UNL     1      -1.364  11.700  20.949  0.00  0.00    +0.000 A 
ATOM     27  C   UNL     1      -0.583  10.692  20.370  0.00  0.00    +0.000 A 
BRANCH  22  30
ATOM     28  C   UNL     1       2.253   8.109  18.570  0.00  0.00    +0.000 C 
ATOM     29  N   UNL     1       1.382   8.999  19.280  0.00  0.00    +0.000 N 
ATOM     30  C   UNL     1       0.925   8.698  20.548  0.00  0.00    +0.000 C 
ATOM     31  O   UNL     1       1.235   7.683  21.158  0.00  0.00    +0.000 OA
ATOM     32  H   UNL     1       1.206   9.913  18.871  0.00  0.00    +0.000 HD
ENDBRANCH  22  30
ENDBRANCH  21  26
ENDBRANCH   1  21
TORSDOF 5
ENDMDL
MODEL 7
REMARK VINA RESULT:      -8.3      3.280      8.432
REMARK  Name = 
REMARK  6 active torsions:
REMARK  status: ('A' for Active; 'I' for Inactive)
REMARK    1  A    between atoms: C_1  and  N_2
REMARK    2  A    between atoms: C_3  and  C_5
REMARK    3  A    between atoms: C_9  and  C_10
REMARK    4  A    between atoms: C_10  and  N_11
REMARK    5  A    between atoms: C_15  and  C_16
REMARK    6  A    between atoms: C_15  and  C_22
REMARK                            x       y       z     vdW  Elec       q    Type
REMARK                         _______ _______ _______ _____ _____    ______ ____
ROOT
ATOM      1  N   UNL     1       1.832  12.852  19.945  0.00  0.00    +0.000 N 
ATOM      2  C   UNL     1       2.109  12.748  18.626  0.00  0.00    +0.000 C 
ATOM      3  O   UNL     1       2.888  13.427  17.974  0.00  0.00    +0.000 OA
ATOM      4  N   UNL     1       1.388  11.708  18.091  0.00  0.00    +0.000 N 
ATOM      5  C   UNL     1       0.683  10.928  19.093  0.00  0.00    +0.000 C 
ATOM      6  C   UNL     1       1.034  11.814  20.340  0.00  0.00    +0.000 C 
ATOM      7  O   UNL     1       0.687  11.605  21.494  0.00  0.00    +0.000 OA
ATOM      8  H   UNL     1       1.494  11.439  17.122  0.00  0.00    +0.000 HD
ENDROOT
BRANCH   5   9
ATOM      9  C   UNL     1      -0.816  10.860  18.759  0.00  0.00    +0.000 A 
ATOM     10  C   UNL     1      -1.711  11.776  19.348  0.00  0.00    +0.000 A 
ATOM     11  C   UNL     1      -3.011  11.924  18.858  0.00  0.00    +0.000 A 
ATOM     12  C   UNL     1      -3.453  11.139  17.796  0.00  0.00    +0.000 A 
ATOM     13  C   UNL     1      -2.618  10.164  17.265  0.00  0.00    +0.000 A 
ATOM     14  C   UNL     1      -1.317  10.016  17.750  0.00  0.00    +0.000 A 
ENDBRANCH   5   9
BRANCH   5  15
ATOM     15  C   UNL     1       1.293   9.520  19.275  0.00  0.00    +0.000 A 
ATOM     16  C   UNL     1       1.112   8.776  20.456  0.00  0.00    +0.000 A 
ATOM     17  C   UNL     1       1.615   7.479  20.580  0.00  0.00    +0.000 A 
ATOM     18  C   UNL     1       2.328   6.900  19.535  0.00  0.00    +0.000 A 
ATOM     19  C   UNL     1       2.548   7.624  18.368  0.00  0.00    +0.000 A 
ATOM     20  C   UNL     1       2.036   8.919  18.236  0.00  0.00    +0.000 A 
ENDBRANCH   5  15
BRANCH   1  21
ATOM     21  C   UNL     1       2.331  13.882  20.837  0.00  0.00    +0.000 C 
BRANCH  21  26
ATOM     22  C   UNL     1       0.032  16.749  19.846  0.00  0.00    +0.000 A 
ATOM     23  C   UNL     1      -0.709  16.948  21.014  0.00  0.00    +0.000 A 
ATOM     24  C   UNL     1      -0.398  16.221  22.163  0.00  0.00    +0.000 A 
ATOM     25  C   UNL     1       0.629  15.269  22.137  0.00  0.00    +0.000 A 
ATOM     26  C   UNL     1       1.345  15.025  20.957  0.00  0.00    +0.000 A 
ATOM     27  C   UNL     1       1.068  15.807  19.830  0.00  0.00    +0.000 A 
BRANCH  22  30
ATOM     28  C   UNL     1       0.588  18.631  16.623  0.00  0.00    +0.000 C 
ATOM     29  N   UNL     1       0.769  17.889  17.837  0.00  0.00    +0.000 N 
ATOM     30  C   UNL     1      -0.306  17.519  18.620  0.00  0.00    +0.000 C 
ATOM     31  O   UNL     1      -1.471  17.771  18.337  0.00  0.00    +0.000 OA
ATOM     32  H   UNL     1       1.702  17.541  18.044  0.00  0.00    +0.000 HD
ENDBRANCH  22  30
ENDBRANCH  21  26
ENDBRANCH   1  21
TORSDOF 5
ENDMDL
MODEL 8
REMARK VINA RESULT:      -8.3      4.721      8.810
REMARK  Name = 
REMARK  6 active torsions:
REMARK  status: ('A' for Active; 'I' for Inactive)
REMARK    1  A    between atoms: C_1  and  N_2
REMARK    2  A    between atoms: C_3  and  C_5
REMARK    3  A    between atoms: C_9  and  C_10
REMARK    4  A    between atoms: C_10  and  N_11
REMARK    5  A    between atoms: C_15  and  C_16
REMARK    6  A    between atoms: C_15  and  C_22
REMARK                            x       y       z     vdW  Elec       q    Type
REMARK                         _______ _______ _______ _____ _____    ______ ____
ROOT
ATOM      1  N   UNL     1      -2.592  11.579  18.282  0.00  0.00    +0.000 N 
ATOM      2  C   UNL     1      -1.913  10.513  17.802  0.00  0.00    +0.000 C 
ATOM      3  O   UNL     1      -2.226   9.793  16.866  0.00  0.00    +0.000 OA
ATOM      4  N   UNL     1      -0.753  10.353  18.519  0.00  0.00    +0.000 N 
ATOM      5  C   UNL     1      -0.504  11.439  19.451  0.00  0.00    +0.000 C 
ATOM      6  C   UNL     1      -1.845  12.223  19.228  0.00  0.00    +0.000 C 
ATOM      7  O   UNL     1      -2.172  13.265  19.780  0.00  0.00    +0.000 OA
ATOM      8  H   UNL     1      -0.082   9.635  18.281  0.00  0.00    +0.000 HD
ENDROOT
BRANCH   5   9
ATOM      9  C   UNL     1      -0.313  10.890  20.874  0.00  0.00    +0.000 A 
ATOM     10  C   UNL     1      -1.093  11.395  21.934  0.00  0.00    +0.000 A 
ATOM     11  C   UNL     1      -1.147  10.732  23.163  0.00  0.00    +0.000 A 
ATOM     12  C   UNL     1      -0.400   9.575  23.368  0.00  0.00    +0.000 A 
ATOM     13  C   UNL     1       0.449   9.115  22.368  0.00  0.00    +0.000 A 
ATOM     14  C   UNL     1       0.502   9.774  21.138  0.00  0.00    +0.000 A 
ENDBRANCH   5   9
BRANCH   5  15
ATOM     15  C   UNL     1       0.687  12.324  19.014  0.00  0.00    +0.000 A 
ATOM     16  C   UNL     1       1.817  11.786  18.370  0.00  0.00    +0.000 A 
ATOM     17  C   UNL     1       2.855  12.607  17.922  0.00  0.00    +0.000 A 
ATOM     18  C   UNL     1       2.798  13.982  18.125  0.00  0.00    +0.000 A 
ATOM     19  C   UNL     1       1.707  14.537  18.787  0.00  0.00    +0.000 A 
ATOM     20  C   UNL     1       0.660  13.719  19.225  0.00  0.00    +0.000 A 
ENDBRANCH   5  15
BRANCH   1  21
ATOM     21  C   UNL     1      -3.904  12.015  17.843  0.00  0.00    +0.000 C 
BRANCH  21  26
ATOM     22  C   UNL     1      -6.552  11.735  20.562  0.00  0.00    +0.000 A 
ATOM     23  C   UNL     1      -7.231  10.572  20.192  0.00  0.00    +0.000 A 
ATOM     24  C   UNL     1      -6.770   9.814  19.115  0.00  0.00    +0.000 A 
ATOM     25  C   UNL     1      -5.653  10.237  18.384  0.00  0.00    +0.000 A 
ATOM     26  C   UNL     1      -4.995  11.430  18.715  0.00  0.00    +0.000 A 
ATOM     27  C   UNL     1      -5.427  12.145  19.838  0.00  0.00    +0.000 A 
BRANCH  22  30
ATOM     28  C   UNL     1      -6.831  12.995  24.108  0.00  0.00    +0.000 C 
ATOM     29  N   UNL     1      -6.452  12.284  22.922  0.00  0.00    +0.000 N 
ATOM     30  C   UNL     1      -7.050  12.546  21.705  0.00  0.00    +0.000 C 
ATOM     31  O   UNL     1      -7.915  13.397  21.543  0.00  0.00    +0.000 OA
ATOM     32  H   UNL     1      -5.647  11.665  22.979  0.00  0.00    +0.000 HD
ENDBRANCH  22  30
ENDBRANCH  21  26
ENDBRANCH   1  21
TORSDOF 5
ENDMDL
MODEL 9
REMARK VINA RESULT:      -8.2      2.039      8.484
REMARK  Name = 
REMARK  6 active torsions:
REMARK  status: ('A' for Active; 'I' for Inactive)
REMARK    1  A    between atoms: C_1  and  N_2
REMARK    2  A    between atoms: C_3  and  C_5
REMARK    3  A    between atoms: C_9  and  C_10
REMARK    4  A    between atoms: C_10  and  N_11
REMARK    5  A    between atoms: C_15  and  C_16
REMARK    6  A    between atoms: C_15  and  C_22
REMARK                            x       y       z     vdW  Elec       q    Type
REMARK                         _______ _______ _______ _____ _____    ______ ____
ROOT
ATOM      1  N   UNL     1       1.884   8.127  19.247  0.00  0.00    +0.000 N 
ATOM      2  C   UNL     1       1.957   8.252  17.903  0.00  0.00    +0.000 C 
ATOM      3  O   UNL     1       1.610   9.208  17.225  0.00  0.00    +0.000 OA
ATOM      4  N   UNL     1       2.529   7.122  17.372  0.00  0.00    +0.000 N 
ATOM      5  C   UNL     1       3.034   6.209  18.383  0.00  0.00    +0.000 C 
ATOM      6  C   UNL     1       2.518   6.984  19.647  0.00  0.00    +0.000 C 
ATOM      7  O   UNL     1       2.678   6.650  20.813  0.00  0.00    +0.000 OA
ATOM      8  H   UNL     1       2.714   7.042  16.381  0.00  0.00    +0.000 HD
ENDROOT
BRANCH   5   9
ATOM      9  C   UNL     1       2.422   4.811  18.196  0.00  0.00    +0.000 A 
ATOM     10  C   UNL     1       3.020   3.895  17.307  0.00  0.00    +0.000 A 
ATOM     11  C   UNL     1       2.665   2.543  17.326  0.00  0.00    +0.000 A 
ATOM     12  C   UNL     1       1.687   2.088  18.205  0.00  0.00    +0.000 A 
ATOM     13  C   UNL     1       1.019   2.993  19.022  0.00  0.00    +0.000 A 
ATOM     14  C   UNL     1       1.373   4.343  19.008  0.00  0.00    +0.000 A 
ENDBRANCH   5   9
BRANCH   5  15
ATOM     15  C   UNL     1       4.579   6.159  18.407  0.00  0.00    +0.000 A 
ATOM     16  C   UNL     1       5.285   5.409  19.365  0.00  0.00    +0.000 A 
ATOM     17  C   UNL     1       6.679   5.321  19.333  0.00  0.00    +0.000 A 
ATOM     18  C   UNL     1       7.402   5.998  18.356  0.00  0.00    +0.000 A 
ATOM     19  C   UNL     1       6.731   6.772  17.415  0.00  0.00    +0.000 A 
ATOM     20  C   UNL     1       5.335   6.851  17.437  0.00  0.00    +0.000 A 
ENDBRANCH   5  15
BRANCH   1  21
ATOM     21  C   UNL     1       1.263   9.075  20.153  0.00  0.00    +0.000 C 
BRANCH  21  26
ATOM     22  C   UNL     1      -1.471  10.976  18.311  0.00  0.00    +0.000 A 
ATOM     23  C   UNL     1      -0.943  12.268  18.253  0.00  0.00    +0.000 A 
ATOM     24  C   UNL     1       0.348  12.509  18.721  0.00  0.00    +0.000 A 
ATOM     25  C   UNL     1       1.100  11.468  19.281  0.00  0.00    +0.000 A 
ATOM     26  C   UNL     1       0.560  10.179  19.391  0.00  0.00    +0.000 A 
ATOM     27  C   UNL     1      -0.711   9.936  18.857  0.00  0.00    +0.000 A 
BRANCH  22  30
ATOM     28  C   UNL     1      -4.895  11.746  16.923  0.00  0.00    +0.000 C 
ATOM     29  N   UNL     1      -3.554  11.844  17.423  0.00  0.00    +0.000 N 
ATOM     30  C   UNL     1      -2.852  10.723  17.819  0.00  0.00    +0.000 C 
ATOM     31  O   UNL     1      -3.299   9.585  17.758  0.00  0.00    +0.000 OA
ATOM     32  H   UNL     1      -3.094  12.748  17.366  0.00  0.00    +0.000 HD
ENDBRANCH  22  30
ENDBRANCH  21  26
ENDBRANCH   1  21
TORSDOF 5
ENDMDL
