MODEL 1
REMARK VINA RESULT:      -8.5      0.000      0.000
REMARK  Name = 
REMARK  3 active torsions:
REMARK  status: ('A' for Active; 'I' for Inactive)
REMARK    1  A    between atoms: C_1  and  C_2
REMARK    2  A    between atoms: C_5  and  C_6
REMARK    3  A    between atoms: C_16  and  C_17
REMARK                            x       y       z     vdW  Elec       q    Type
REMARK                         _______ _______ _______ _____ _____    ______ ____
ROOT
ATOM      1  C   UNL     1       1.913   9.054  18.254  0.00  0.00    +0.000 C 
ATOM      2  O   UNL     1       2.586   9.820  17.574  0.00  0.00    +0.000 OA
ATOM      3  N   UNL     1       2.210   7.692  18.328  0.00  0.00    +0.000 N 
ATOM      4  C   UNL     1       1.438   6.790  19.140  0.00  0.00    +0.000 C 
ATOM      5  C   UNL     1       2.111   5.563  19.646  0.00  0.00    +0.000 A 
ATOM      6  C   UNL     1       1.658   5.035  20.856  0.00  0.00    +0.000 A 
ATOM      7  C   UNL     1       2.162   3.837  21.323  0.00  0.00    +0.000 A 
ATOM      8  C   UNL     1       3.086   3.143  20.534  0.00  0.00    +0.000 A 
ATOM      9  C   UNL     1       3.527   3.668  19.312  0.00  0.00    +0.000 A 
ATOM     10  C   UNL     1       3.073   4.915  18.866  0.00  0.00    +0.000 A 
ATOM     11  C   UNL     1       3.506   5.617  17.581  0.00  0.00    +0.000 C 
ATOM     12  C   UNL     1       3.477   7.172  17.783  0.00  0.00    +0.000 C 
ENDROOT
BRANCH   1  17
ATOM     13  C   UNL     1      -1.878  12.056  21.514  0.00  0.00    +0.000 C 
ATOM     14  C   UNL     1      -0.977  11.247  20.637  0.00  0.00    +0.000 A 
ATOM     15  C   UNL     1      -1.172  11.007  19.330  0.00  0.00    +0.000 A 
ATOM     16  C   UNL     1      -0.209  10.218  18.581  0.00  0.00    +0.000 A 
ATOM     17  C   UNL     1       0.841   9.618  19.176  0.00  0.00    +0.000 A 
ATOM     18  C   UNL     1       0.897   9.714  20.673  0.00  0.00    +0.000 A 
ATOM     19  O   UNL     1       1.646   9.050  21.383  0.00  0.00    +0.000 OA
ATOM     20  N   UNL     1       0.086  10.652  21.262  0.00  0.00    +0.000 N 
ATOM     21  H   UNL     1       0.222  10.775  22.259  0.00  0.00    +0.000 HD
ENDBRANCH   1  17
BRANCH  11  22
ATOM     22  C   UNL     1       4.875   5.194  17.074  0.00  0.00    +0.000 A 
ATOM     23  C   UNL     1       6.039   5.646  17.714  0.00  0.00    +0.000 A 
ATOM     24  C   UNL     1       7.294   5.241  17.259  0.00  0.00    +0.000 A 
ATOM     25  C   UNL     1       7.400   4.388  16.161  0.00  0.00    +0.000 A 
ATOM     26  C   UNL     1       6.253   3.947  15.505  0.00  0.00    +0.000 A 
ATOM     27  C   UNL     1       4.999   4.349  15.958  0.00  0.00    +0.000 A 
ENDBRANCH  11  22
TORSDOF 2
ENDMDL
MODEL 2
REMARK VINA RESULT:      -8.5      3.737      7.050
REMARK  Name = 
REMARK  3 active torsions:
REMARK  status: ('A' for Active; 'I' for Inactive)
REMARK    1  A    between atoms: C_1  and  C_2
REMARK    2  A    between atoms: C_5  and  C_6
REMARK    3  A    between atoms: C_16  and  C_17
REMARK                            x       y       z     vdW  Elec       q    Type
REMARK                         _______ _______ _______ _____ _____    ______ ____
ROOT
ATOM      1  C   UNL     1      -1.498  12.653  22.401  0.00  0.00    +0.000 C 
ATOM      2  O   UNL     1      -0.712  12.352  23.293  0.00  0.00    +0.000 OA
ATOM      3  N   UNL     1      -1.360  12.146  21.108  0.00  0.00    +0.000 N 
ATOM      4  C   UNL     1      -2.290  12.477  20.060  0.00  0.00    +0.000 C 
ATOM      5  C   UNL     1      -2.459  11.501  18.950  0.00  0.00    +0.000 A 
ATOM      6  C   UNL     1      -3.701  11.464  18.312  0.00  0.00    +0.000 A 
ATOM      7  C   UNL     1      -3.887  10.664  17.203  0.00  0.00    +0.000 A 
ATOM      8  C   UNL     1      -2.798   9.942  16.702  0.00  0.00    +0.000 A 
ATOM      9  C   UNL     1      -1.549   9.993  17.336  0.00  0.00    +0.000 A 
ATOM     10  C   UNL     1      -1.371  10.748  18.501  0.00  0.00    +0.000 A 
ATOM     11  C   UNL     1      -0.080  10.853  19.310  0.00  0.00    +0.000 C 
ATOM     12  C   UNL     1      -0.413  11.052  20.829  0.00  0.00    +0.000 C 
ENDROOT
BRANCH   1  17
ATOM     13  C   UNL     1      -5.713  16.240  24.237  0.00  0.00    +0.000 C 
ATOM     14  C   UNL     1      -4.653  15.344  23.681  0.00  0.00    +0.000 A 
ATOM     15  C   UNL     1      -3.835  15.645  22.659  0.00  0.00    +0.000 A 
ATOM     16  C   UNL     1      -2.830  14.692  22.223  0.00  0.00    +0.000 A 
ATOM     17  C   UNL     1      -2.747  13.452  22.743  0.00  0.00    +0.000 A 
ATOM     18  C   UNL     1      -3.824  13.069  23.717  0.00  0.00    +0.000 A 
ATOM     19  O   UNL     1      -4.029  11.924  24.111  0.00  0.00    +0.000 OA
ATOM     20  N   UNL     1      -4.584  14.091  24.229  0.00  0.00    +0.000 N 
ATOM     21  H   UNL     1      -5.227  13.824  24.965  0.00  0.00    +0.000 HD
ENDBRANCH   1  17
BRANCH  11  22
ATOM     22  C   UNL     1       0.856   9.667  19.143  0.00  0.00    +0.000 A 
ATOM     23  C   UNL     1       1.062   8.772  20.204  0.00  0.00    +0.000 A 
ATOM     24  C   UNL     1       1.905   7.673  20.043  0.00  0.00    +0.000 A 
ATOM     25  C   UNL     1       2.554   7.459  18.827  0.00  0.00    +0.000 A 
ATOM     26  C   UNL     1       2.371   8.349  17.772  0.00  0.00    +0.000 A 
ATOM     27  C   UNL     1       1.530   9.446  17.930  0.00  0.00    +0.000 A 
ENDBRANCH  11  22
TORSDOF 2
ENDMDL
MODEL 3
REMARK VINA RESULT:      -8.4      3.733      7.072
REMARK  Name = 
REMARK  3 active torsions:
REMARK  status: ('A' for Active; 'I' for Inactive)
REMARK    1  A    between atoms: C_1  and  C_2
REMARK    2  A    between atoms: C_5  and  C_6
REMARK    3  A    between atoms: C_16  and  C_17
REMARK                            x       y       z     vdW  Elec       q    Type
REMARK                         _______ _______ _______ _____ _____    ______ ____
ROOT
ATOM      1  C   UNL     1      -1.213  12.981  22.210  0.00  0.00    +0.000 C 
ATOM      2  O   UNL     1      -0.384  12.730  23.078  0.00  0.00    +0.000 OA
ATOM      3  N   UNL     1      -1.161  12.372  20.955  0.00  0.00    +0.000 N 
ATOM      4  C   UNL     1      -2.142  12.645  19.938  0.00  0.00    +0.000 C 
ATOM      5  C   UNL     1      -2.395  11.591  18.918  0.00  0.00    +0.000 A 
ATOM      6  C   UNL     1      -3.671  11.537  18.355  0.00  0.00    +0.000 A 
ATOM      7  C   UNL     1      -3.938  10.658  17.324  0.00  0.00    +0.000 A 
ATOM      8  C   UNL     1      -2.895   9.872  16.823  0.00  0.00    +0.000 A 
ATOM      9  C   UNL     1      -1.611   9.940  17.380  0.00  0.00    +0.000 A 
ATOM     10  C   UNL     1      -1.350  10.778  18.471  0.00  0.00    +0.000 A 
ATOM     11  C   UNL     1      -0.013  10.912  19.196  0.00  0.00    +0.000 C 
ATOM     12  C   UNL     1      -0.254  11.236  20.710  0.00  0.00    +0.000 C 
ENDROOT
BRANCH   1  17
ATOM     13  C   UNL     1      -5.391  16.451  24.334  0.00  0.00    +0.000 C 
ATOM     14  C   UNL     1      -4.314  15.616  23.717  0.00  0.00    +0.000 A 
ATOM     15  C   UNL     1      -3.228  16.089  23.085  0.00  0.00    +0.000 A 
ATOM     16  C   UNL     1      -2.242  15.171  22.542  0.00  0.00    +0.000 A 
ATOM     17  C   UNL     1      -2.423  13.836  22.557  0.00  0.00    +0.000 A 
ATOM     18  C   UNL     1      -3.753  13.354  23.060  0.00  0.00    +0.000 A 
ATOM     19  O   UNL     1      -4.168  12.205  22.936  0.00  0.00    +0.000 OA
ATOM     20  N   UNL     1      -4.518  14.262  23.749  0.00  0.00    +0.000 N 
ATOM     21  H   UNL     1      -5.358  13.886  24.173  0.00  0.00    +0.000 HD
ENDBRANCH   1  17
BRANCH  11  22
ATOM     22  C   UNL     1       0.886   9.693  19.071  0.00  0.00    +0.000 A 
ATOM     23  C   UNL     1       1.564   9.432  17.871  0.00  0.00    +0.000 A 
ATOM     24  C   UNL     1       2.405   8.325  17.765  0.00  0.00    +0.000 A 
ATOM     25  C   UNL     1       2.572   7.464  18.850  0.00  0.00    +0.000 A 
ATOM     26  C   UNL     1       1.890   7.702  20.041  0.00  0.00    +0.000 A 
ATOM     27  C   UNL     1       1.052   8.808  20.150  0.00  0.00    +0.000 A 
ENDBRANCH  11  22
TORSDOF 2
ENDMDL
MODEL 4
REMARK VINA RESULT:      -8.3      3.674      6.989
REMARK  Name = 
REMARK  3 active torsions:
REMARK  status: ('A' for Active; 'I' for Inactive)
REMARK    1  A    between atoms: C_1  and  C_2
REMARK    2  A    between atoms: C_5  and  C_6
REMARK    3  A    between atoms: C_16  and  C_17
REMARK                            x       y       z     vdW  Elec       q    Type
REMARK                         _______ _______ _______ _____ _____    ______ ____
ROOT
ATOM      1  C   UNL     1      -1.464  12.490  22.450  0.00  0.00    +0.000 C 
ATOM      2  O   UNL     1      -0.680  12.163  23.336  0.00  0.00    +0.000 OA
ATOM      3  N   UNL     1      -1.320  12.023  21.143  0.00  0.00    +0.000 N 
ATOM      4  C   UNL     1      -2.247  12.383  20.103  0.00  0.00    +0.000 C 
ATOM      5  C   UNL     1      -2.409  11.442  18.962  0.00  0.00    +0.000 A 
ATOM      6  C   UNL     1      -3.648  11.421  18.318  0.00  0.00    +0.000 A 
ATOM      7  C   UNL     1      -3.828  10.655  17.184  0.00  0.00    +0.000 A 
ATOM      8  C   UNL     1      -2.735   9.952  16.666  0.00  0.00    +0.000 A 
ATOM      9  C   UNL     1      -1.488   9.987  17.305  0.00  0.00    +0.000 A 
ATOM     10  C   UNL     1      -1.317  10.706  18.494  0.00  0.00    +0.000 A 
ATOM     11  C   UNL     1      -0.029  10.790  19.311  0.00  0.00    +0.000 C 
ATOM     12  C   UNL     1      -0.368  10.941  20.834  0.00  0.00    +0.000 C 
ENDROOT
BRANCH   1  17
ATOM     13  C   UNL     1      -6.680  14.997  23.163  0.00  0.00    +0.000 C 
ATOM     14  C   UNL     1      -5.346  14.328  23.067  0.00  0.00    +0.000 A 
ATOM     15  C   UNL     1      -5.029  13.142  23.611  0.00  0.00    +0.000 A 
ATOM     16  C   UNL     1      -3.698  12.588  23.431  0.00  0.00    +0.000 A 
ATOM     17  C   UNL     1      -2.716  13.274  22.813  0.00  0.00    +0.000 A 
ATOM     18  C   UNL     1      -3.040  14.688  22.423  0.00  0.00    +0.000 A 
ATOM     19  O   UNL     1      -2.208  15.515  22.061  0.00  0.00    +0.000 OA
ATOM     20  N   UNL     1      -4.366  15.041  22.430  0.00  0.00    +0.000 N 
ATOM     21  H   UNL     1      -4.570  15.962  22.058  0.00  0.00    +0.000 HD
ENDBRANCH   1  17
BRANCH  11  22
ATOM     22  C   UNL     1       0.910   9.612  19.111  0.00  0.00    +0.000 A 
ATOM     23  C   UNL     1       1.125   8.692  20.149  0.00  0.00    +0.000 A 
ATOM     24  C   UNL     1       1.971   7.601  19.958  0.00  0.00    +0.000 A 
ATOM     25  C   UNL     1       2.616   7.419  18.734  0.00  0.00    +0.000 A 
ATOM     26  C   UNL     1       2.426   8.335  17.702  0.00  0.00    +0.000 A 
ATOM     27  C   UNL     1       1.581   9.425  17.890  0.00  0.00    +0.000 A 
ENDBRANCH  11  22
TORSDOF 2
ENDMDL
MODEL 5
REMARK VINA RESULT:      -7.7      4.189      7.616
REMARK  Name = 
REMARK  3 active torsions:
REMARK  status: ('A' for Active; 'I' for Inactive)
REMARK    1  A    between atoms: C_1  and  C_2
REMARK    2  A    between atoms: C_5  and  C_6
REMARK    3  A    between atoms: C_16  and  C_17
REMARK                            x       y       z     vdW  Elec       q    Type
REMARK                         _______ _______ _______ _____ _____    ______ ____
ROOT
ATOM      1  C   UNL     1      -2.530  12.972  22.173  0.00  0.00    +0.000 C 
ATOM      2  O   UNL     1      -1.932  12.727  23.215  0.00  0.00    +0.000 OA
ATOM      3  N   UNL     1      -2.158  12.380  20.964  0.00  0.00    +0.000 N 
ATOM      4  C   UNL     1      -2.868  12.644  19.740  0.00  0.00    +0.000 C 
ATOM      5  C   UNL     1      -2.839  11.598  18.682  0.00  0.00    +0.000 A 
ATOM      6  C   UNL     1      -3.938  11.523  17.824  0.00  0.00    +0.000 A 
ATOM      7  C   UNL     1      -3.924  10.653  16.753  0.00  0.00    +0.000 A 
ATOM      8  C   UNL     1      -2.771   9.896  16.516  0.00  0.00    +0.000 A 
ATOM      9  C   UNL     1      -1.663   9.985  17.370  0.00  0.00    +0.000 A 
ATOM     10  C   UNL     1      -1.697  10.815  18.498  0.00  0.00    +0.000 A 
ATOM     11  C   UNL     1      -0.581  10.968  19.528  0.00  0.00    +0.000 C 
ATOM     12  C   UNL     1      -1.192  11.268  20.940  0.00  0.00    +0.000 C 
ENDROOT
BRANCH   1  17
ATOM     13  C   UNL     1      -7.189  16.311  23.241  0.00  0.00    +0.000 C 
ATOM     14  C   UNL     1      -5.972  15.512  22.900  0.00  0.00    +0.000 A 
ATOM     15  C   UNL     1      -4.774  16.019  22.570  0.00  0.00    +0.000 A 
ATOM     16  C   UNL     1      -3.661  15.133  22.276  0.00  0.00    +0.000 A 
ATOM     17  C   UNL     1      -3.809  13.795  22.220  0.00  0.00    +0.000 A 
ATOM     18  C   UNL     1      -5.211  13.276  22.364  0.00  0.00    +0.000 A 
ATOM     19  O   UNL     1      -5.553  12.123  22.119  0.00  0.00    +0.000 OA
ATOM     20  N   UNL     1      -6.145  14.154  22.855  0.00  0.00    +0.000 N 
ATOM     21  H   UNL     1      -7.055  13.752  23.047  0.00  0.00    +0.000 HD
ENDBRANCH   1  17
BRANCH  11  22
ATOM     22  C   UNL     1       0.351   9.771  19.618  0.00  0.00    +0.000 A 
ATOM     23  C   UNL     1       1.170   9.427  18.532  0.00  0.00    +0.000 A 
ATOM     24  C   UNL     1       2.039   8.340  18.624  0.00  0.00    +0.000 A 
ATOM     25  C   UNL     1       2.095   7.584  19.794  0.00  0.00    +0.000 A 
ATOM     26  C   UNL     1       1.274   7.903  20.873  0.00  0.00    +0.000 A 
ATOM     27  C   UNL     1       0.407   8.988  20.785  0.00  0.00    +0.000 A 
ENDBRANCH  11  22
TORSDOF 2
ENDMDL
MODEL 6
REMARK VINA RESULT:      -7.7      1.173      1.421
REMARK  Name = 
REMARK  3 active torsions:
REMARK  status: ('A' for Active; 'I' for Inactive)
REMARK    1  A    between atoms: C_1  and  C_2
REMARK    2  A    between atoms: C_5  and  C_6
REMARK    3  A    between atoms: C_16  and  C_17
REMARK                            x       y       z     vdW  Elec       q    Type
REMARK                         _______ _______ _______ _____ _____    ______ ____
ROOT
ATOM      1  C   UNL     1       2.046   9.751  18.091  0.00  0.00    +0.000 C 
ATOM      2  O   UNL     1       2.737  10.468  17.376  0.00  0.00    +0.000 OA
ATOM      3  N   UNL     1       2.275   8.378  18.185  0.00  0.00    +0.000 N 
ATOM      4  C   UNL     1       1.483   7.533  19.039  0.00  0.00    +0.000 C 
ATOM      5  C   UNL     1       2.107   6.283  19.550  0.00  0.00    +0.000 A 
ATOM      6  C   UNL     1       1.665   5.803  20.785  0.00  0.00    +0.000 A 
ATOM      7  C   UNL     1       2.121   4.590  21.262  0.00  0.00    +0.000 A 
ATOM      8  C   UNL     1       2.983   3.833  20.461  0.00  0.00    +0.000 A 
ATOM      9  C   UNL     1       3.413   4.310  19.215  0.00  0.00    +0.000 A 
ATOM     10  C   UNL     1       3.010   5.570  18.756  0.00  0.00    +0.000 A 
ATOM     11  C   UNL     1       3.440   6.223  17.445  0.00  0.00    +0.000 C 
ATOM     12  C   UNL     1       3.496   7.781  17.614  0.00  0.00    +0.000 C 
ENDROOT
BRANCH   1  17
ATOM     13  C   UNL     1      -1.657  11.466  22.258  0.00  0.00    +0.000 C 
ATOM     14  C   UNL     1      -0.663  11.105  21.200  0.00  0.00    +0.000 A 
ATOM     15  C   UNL     1       0.657  11.345  21.256  0.00  0.00    +0.000 A 
ATOM     16  C   UNL     1       1.522  10.927  20.166  0.00  0.00    +0.000 A 
ATOM     17  C   UNL     1       1.034  10.389  19.032  0.00  0.00    +0.000 A 
ATOM     18  C   UNL     1      -0.462  10.350  18.907  0.00  0.00    +0.000 A 
ATOM     19  O   UNL     1      -1.066  10.104  17.867  0.00  0.00    +0.000 OA
ATOM     20  N   UNL     1      -1.182  10.554  20.058  0.00  0.00    +0.000 N 
ATOM     21  H   UNL     1      -2.182  10.414  19.973  0.00  0.00    +0.000 HD
ENDBRANCH   1  17
BRANCH  11  22
ATOM     22  C   UNL     1       4.769   5.720  16.906  0.00  0.00    +0.000 A 
ATOM     23  C   UNL     1       5.967   6.353  17.270  0.00  0.00    +0.000 A 
ATOM     24  C   UNL     1       7.187   5.878  16.791  0.00  0.00    +0.000 A 
ATOM     25  C   UNL     1       7.224   4.772  15.941  0.00  0.00    +0.000 A 
ATOM     26  C   UNL     1       6.040   4.145  15.558  0.00  0.00    +0.000 A 
ATOM     27  C   UNL     1       4.821   4.617  16.036  0.00  0.00    +0.000 A 
ENDBRANCH  11  22
TORSDOF 2
ENDMDL
MODEL 7
REMARK VINA RESULT:      -7.5      3.690      6.939
REMARK  Name = 
REMARK  3 active torsions:
REMARK  status: ('A' for Active; 'I' for Inactive)
REMARK    1  A    between atoms: C_1  and  C_2
REMARK    2  A    between atoms: C_5  and  C_6
REMARK    3  A    between atoms: C_16  and  C_17
REMARK                            x       y       z     vdW  Elec       q    Type
REMARK                         _______ _______ _______ _____ _____    ______ ____
ROOT
ATOM      1  C   UNL     1      -0.186  13.827  21.452  0.00  0.00    +0.000 C 
ATOM      2  O   UNL     1       0.767  13.704  22.214  0.00  0.00    +0.000 OA
ATOM      3  N   UNL     1      -0.396  12.937  20.398  0.00  0.00    +0.000 N 
ATOM      4  C   UNL     1      -1.524  13.061  19.513  0.00  0.00    +0.000 C 
ATOM      5  C   UNL     1      -2.019  11.828  18.844  0.00  0.00    +0.000 A 
ATOM      6  C   UNL     1      -3.376  11.774  18.521  0.00  0.00    +0.000 A 
ATOM      7  C   UNL     1      -3.876  10.709  17.798  0.00  0.00    +0.000 A 
ATOM      8  C   UNL     1      -2.989   9.723  17.352  0.00  0.00    +0.000 A 
ATOM      9  C   UNL     1      -1.624   9.788  17.664  0.00  0.00    +0.000 A 
ATOM     10  C   UNL     1      -1.122  10.829  18.455  0.00  0.00    +0.000 A 
ATOM     11  C   UNL     1       0.328  10.991  18.903  0.00  0.00    +0.000 C 
ATOM     12  C   UNL     1       0.381  11.688  20.307  0.00  0.00    +0.000 C 
ENDROOT
BRANCH   1  17
ATOM     13  C   UNL     1      -3.688  18.129  23.252  0.00  0.00    +0.000 C 
ATOM     14  C   UNL     1      -2.796  17.060  22.706  0.00  0.00    +0.000 A 
ATOM     15  C   UNL     1      -1.832  17.242  21.790  0.00  0.00    +0.000 A 
ATOM     16  C   UNL     1      -1.018  16.121  21.353  0.00  0.00    +0.000 A 
ATOM     17  C   UNL     1      -1.261  14.860  21.761  0.00  0.00    +0.000 A 
ATOM     18  C   UNL     1      -2.490  14.660  22.600  0.00  0.00    +0.000 A 
ATOM     19  O   UNL     1      -2.978  13.566  22.866  0.00  0.00    +0.000 OA
ATOM     20  N   UNL     1      -3.058  15.787  23.139  0.00  0.00    +0.000 N 
ATOM     21  H   UNL     1      -3.817  15.619  23.790  0.00  0.00    +0.000 HD
ENDBRANCH   1  17
BRANCH  11  22
ATOM     22  C   UNL     1       1.114   9.691  18.948  0.00  0.00    +0.000 A 
ATOM     23  C   UNL     1       1.133   8.915  20.116  0.00  0.00    +0.000 A 
ATOM     24  C   UNL     1       1.838   7.712  20.149  0.00  0.00    +0.000 A 
ATOM     25  C   UNL     1       2.535   7.276  19.022  0.00  0.00    +0.000 A 
ATOM     26  C   UNL     1       2.539   8.047  17.862  0.00  0.00    +0.000 A 
ATOM     27  C   UNL     1       1.835   9.247  17.826  0.00  0.00    +0.000 A 
ENDBRANCH  11  22
TORSDOF 2
ENDMDL
MODEL 8
REMARK VINA RESULT:      -7.4      1.166      1.786
REMARK  Name = 
REMARK  3 active torsions:
REMARK  status: ('A' for Active; 'I' for Inactive)
REMARK    1  A    between atoms: C_1  and  C_2
REMARK    2  A    between atoms: C_5  and  C_6
REMARK    3  A    between atoms: C_16  and  C_17
REMARK                            x       y       z     vdW  Elec       q    Type
REMARK                         _______ _______ _______ _____ _____    ______ ____
ROOT
ATOM      1  C   UNL     1       2.193   8.847  18.661  0.00  0.00    +0.000 C 
ATOM      2  O   UNL     1       2.796   9.613  17.916  0.00  0.00    +0.000 OA
ATOM      3  N   UNL     1       2.417   7.470  18.624  0.00  0.00    +0.000 N 
ATOM      4  C   UNL     1       1.730   6.567  19.510  0.00  0.00    +0.000 C 
ATOM      5  C   UNL     1       2.401   5.281  19.846  0.00  0.00    +0.000 A 
ATOM      6  C   UNL     1       2.114   4.714  21.089  0.00  0.00    +0.000 A 
ATOM      7  C   UNL     1       2.613   3.469  21.415  0.00  0.00    +0.000 A 
ATOM      8  C   UNL     1       3.358   2.770  20.458  0.00  0.00    +0.000 A 
ATOM      9  C   UNL     1       3.631   3.336  19.205  0.00  0.00    +0.000 A 
ATOM     10  C   UNL     1       3.187   4.627  18.894  0.00  0.00    +0.000 A 
ATOM     11  C   UNL     1       3.454   5.373  17.588  0.00  0.00    +0.000 C 
ATOM     12  C   UNL     1       3.549   6.914  17.861  0.00  0.00    +0.000 C 
ENDROOT
BRANCH   1  17
ATOM     13  C   UNL     1      -1.354  10.134  23.107  0.00  0.00    +0.000 C 
ATOM     14  C   UNL     1      -0.378   9.849  22.010  0.00  0.00    +0.000 A 
ATOM     15  C   UNL     1       0.912   9.520  22.180  0.00  0.00    +0.000 A 
ATOM     16  C   UNL     1       1.755   9.249  21.029  0.00  0.00    +0.000 A 
ATOM     17  C   UNL     1       1.316   9.416  19.766  0.00  0.00    +0.000 A 
ATOM     18  C   UNL     1      -0.055  10.009  19.615  0.00  0.00    +0.000 A 
ATOM     19  O   UNL     1      -0.516  10.431  18.558  0.00  0.00    +0.000 OA
ATOM     20  N   UNL     1      -0.849  10.021  20.735  0.00  0.00    +0.000 N 
ATOM     21  H   UNL     1      -1.805  10.322  20.583  0.00  0.00    +0.000 HD
ENDBRANCH   1  17
BRANCH  11  22
ATOM     22  C   UNL     1       4.698   4.908  16.849  0.00  0.00    +0.000 A 
ATOM     23  C   UNL     1       4.588   4.306  15.587  0.00  0.00    +0.000 A 
ATOM     24  C   UNL     1       5.732   3.898  14.901  0.00  0.00    +0.000 A 
ATOM     25  C   UNL     1       6.993   4.080  15.469  0.00  0.00    +0.000 A 
ATOM     26  C   UNL     1       7.114   4.660  16.730  0.00  0.00    +0.000 A 
ATOM     27  C   UNL     1       5.974   5.069  17.416  0.00  0.00    +0.000 A 
ENDBRANCH  11  22
TORSDOF 2
ENDMDL
MODEL 9
REMARK VINA RESULT:      -7.3      3.218      6.472
REMARK  Name = 
REMARK  3 active torsions:
REMARK  status: ('A' for Active; 'I' for Inactive)
REMARK    1  A    between atoms: C_1  and  C_2
REMARK    2  A    between atoms: C_5  and  C_6
REMARK    3  A    between atoms: C_16  and  C_17
REMARK                            x       y       z     vdW  Elec       q    Type
REMARK                         _______ _______ _______ _____ _____    ______ ____
ROOT
ATOM      1  C   UNL     1      -0.772  11.707  22.787  0.00  0.00    +0.000 C 
ATOM      2  O   UNL     1      -0.072  11.160  23.632  0.00  0.00    +0.000 OA
ATOM      3  N   UNL     1      -0.638  11.412  21.429  0.00  0.00    +0.000 N 
ATOM      4  C   UNL     1      -1.469  12.034  20.432  0.00  0.00    +0.000 C 
ATOM      5  C   UNL     1      -1.705  11.290  19.165  0.00  0.00    +0.000 A 
ATOM      6  C   UNL     1      -2.910  11.523  18.500  0.00  0.00    +0.000 A 
ATOM      7  C   UNL     1      -3.142  10.954  17.264  0.00  0.00    +0.000 A 
ATOM      8  C   UNL     1      -2.129  10.191  16.673  0.00  0.00    +0.000 A 
ATOM      9  C   UNL     1      -0.914   9.972  17.337  0.00  0.00    +0.000 A 
ATOM     10  C   UNL     1      -0.699  10.489  18.620  0.00  0.00    +0.000 A 
ATOM     11  C   UNL     1       0.556  10.286  19.467  0.00  0.00    +0.000 C 
ATOM     12  C   UNL     1       0.179  10.267  20.988  0.00  0.00    +0.000 C 
ENDROOT
BRANCH   1  17
ATOM     13  C   UNL     1      -5.424  15.132  23.582  0.00  0.00    +0.000 C 
ATOM     14  C   UNL     1      -4.270  14.193  23.434  0.00  0.00    +0.000 A 
ATOM     15  C   UNL     1      -4.361  12.860  23.308  0.00  0.00    +0.000 A 
ATOM     16  C   UNL     1      -3.161  12.056  23.152  0.00  0.00    +0.000 A 
ATOM     17  C   UNL     1      -1.927  12.592  23.231  0.00  0.00    +0.000 A 
ATOM     18  C   UNL     1      -1.859  14.045  23.606  0.00  0.00    +0.000 A 
ATOM     19  O   UNL     1      -0.831  14.628  23.937  0.00  0.00    +0.000 OA
ATOM     20  N   UNL     1      -3.026  14.761  23.513  0.00  0.00    +0.000 N 
ATOM     21  H   UNL     1      -2.933  15.759  23.662  0.00  0.00    +0.000 HD
ENDBRANCH   1  17
BRANCH  11  22
ATOM     22  C   UNL     1       1.344   9.034  19.120  0.00  0.00    +0.000 A 
ATOM     23  C   UNL     1       1.919   8.887  17.849  0.00  0.00    +0.000 A 
ATOM     24  C   UNL     1       2.659   7.747  17.539  0.00  0.00    +0.000 A 
ATOM     25  C   UNL     1       2.827   6.740  18.490  0.00  0.00    +0.000 A 
ATOM     26  C   UNL     1       2.245   6.865  19.750  0.00  0.00    +0.000 A 
ATOM     27  C   UNL     1       1.508   8.003  20.062  0.00  0.00    +0.000 A 
ENDBRANCH  11  22
TORSDOF 2
ENDMDL
