MODEL 1
REMARK VINA RESULT:      -8.4      0.000      0.000
REMARK  Name = 
REMARK  4 active torsions:
REMARK  status: ('A' for Active; 'I' for Inactive)
REMARK    1  A    between atoms: C_1  and  C_2
REMARK    2  A    between atoms: C_6  and  C_7
REMARK    3  A    between atoms: C_11  and  N_12
REMARK    4  A    between atoms: C_13  and  C_15
REMARK                            x       y       z     vdW  Elec       q    Type
REMARK                         _______ _______ _______ _____ _____    ______ ____
ROOT
ATOM      1  C   UNL     1       2.114   6.911  19.846  0.00  0.00    +0.000 A 
ATOM      2  C   UNL     1       1.921   5.776  20.657  0.00  0.00    +0.000 A 
ATOM      3  C   UNL     1       2.524   4.561  20.361  0.00  0.00    +0.000 A 
ATOM      4  C   UNL     1       3.321   4.445  19.230  0.00  0.00    +0.000 A 
ATOM      5  C   UNL     1       3.520   5.529  18.367  0.00  0.00    +0.000 A 
ATOM      6  C   UNL     1       2.922   6.761  18.690  0.00  0.00    +0.000 A 
ENDROOT
BRANCH   1  12
ATOM      7  C   UNL     1      -0.058   9.603  23.233  0.00  0.00    +0.000 C 
ATOM      8  C   UNL     1       0.446   9.471  21.831  0.00  0.00    +0.000 A 
ATOM      9  N   UNL     1       0.408  10.572  21.057  0.00  0.00    +0.000 NA
ATOM     10  C   UNL     1       0.892  10.441  19.816  0.00  0.00    +0.000 A 
ATOM     11  C   UNL     1       1.413   9.266  19.333  0.00  0.00    +0.000 A 
ATOM     12  C   UNL     1       1.446   8.185  20.204  0.00  0.00    +0.000 A 
ATOM     13  N   UNL     1       0.938   8.273  21.452  0.00  0.00    +0.000 NA
ENDBRANCH   1  12
BRANCH   5  14
ATOM     14  N   UNL     1       4.283   5.410  17.174  0.00  0.00    +0.000 N 
ATOM     15  C   UNL     1       5.668   5.445  17.093  0.00  0.00    +0.000 C 
ATOM     16  O   UNL     1       6.468   5.665  17.994  0.00  0.00    +0.000 OA
ATOM     17  H   UNL     1       3.791   5.232  16.305  0.00  0.00    +0.000 HD
BRANCH  15  18
ATOM     18  C   UNL     1       6.253   5.149  15.711  0.00  0.00    +0.000 A 
ATOM     19  C   UNL     1       5.487   4.185  14.881  0.00  0.00    +0.000 A 
ATOM     20  C   UNL     1       5.925   3.945  13.644  0.00  0.00    +0.000 A 
ATOM     21  C   UNL     1       7.140   4.620  13.159  0.00  0.00    +0.000 A 
ATOM     22  O   UNL     1       7.542   4.434  12.017  0.00  0.00    +0.000 OA
ATOM     23  N   UNL     1       7.774   5.447  14.057  0.00  0.00    +0.000 N 
ATOM     24  N   UNL     1       7.344   5.745  15.330  0.00  0.00    +0.000 NA
ATOM     25  H   UNL     1       8.613   5.917  13.732  0.00  0.00    +0.000 HD
ENDBRANCH  15  18
ENDBRANCH   5  14
TORSDOF 3
ENDMDL
MODEL 2
REMARK VINA RESULT:      -8.4      2.821      8.536
REMARK  Name = 
REMARK  4 active torsions:
REMARK  status: ('A' for Active; 'I' for Inactive)
REMARK    1  A    between atoms: C_1  and  C_2
REMARK    2  A    between atoms: C_6  and  C_7
REMARK    3  A    between atoms: C_11  and  N_12
REMARK    4  A    between atoms: C_13  and  C_15
REMARK                            x       y       z     vdW  Elec       q    Type
REMARK                         _______ _______ _______ _____ _____    ______ ____
ROOT
ATOM      1  C   UNL     1       3.952   4.568  18.921  0.00  0.00    +0.000 A 
ATOM      2  C   UNL     1       3.256   3.365  19.145  0.00  0.00    +0.000 A 
ATOM      3  C   UNL     1       2.057   3.339  19.843  0.00  0.00    +0.000 A 
ATOM      4  C   UNL     1       1.531   4.519  20.354  0.00  0.00    +0.000 A 
ATOM      5  C   UNL     1       2.197   5.740  20.194  0.00  0.00    +0.000 A 
ATOM      6  C   UNL     1       3.401   5.756  19.465  0.00  0.00    +0.000 A 
ENDROOT
BRANCH   1  12
ATOM      7  C   UNL     1       6.229   3.924  14.697  0.00  0.00    +0.000 C 
ATOM      8  C   UNL     1       6.301   4.268  16.151  0.00  0.00    +0.000 A 
ATOM      9  N   UNL     1       7.487   4.692  16.625  0.00  0.00    +0.000 NA
ATOM     10  C   UNL     1       7.522   5.026  17.921  0.00  0.00    +0.000 A 
ATOM     11  C   UNL     1       6.425   4.959  18.744  0.00  0.00    +0.000 A 
ATOM     12  C   UNL     1       5.231   4.543  18.171  0.00  0.00    +0.000 A 
ATOM     13  N   UNL     1       5.166   4.169  16.875  0.00  0.00    +0.000 NA
ENDBRANCH   1  12
BRANCH   5  14
ATOM     14  N   UNL     1       1.704   6.945  20.763  0.00  0.00    +0.000 N 
ATOM     15  C   UNL     1       1.523   8.143  20.088  0.00  0.00    +0.000 C 
ATOM     16  O   UNL     1       1.826   8.406  18.930  0.00  0.00    +0.000 OA
ATOM     17  H   UNL     1       1.405   6.931  21.733  0.00  0.00    +0.000 HD
BRANCH  15  18
ATOM     18  C   UNL     1       0.842   9.253  20.890  0.00  0.00    +0.000 A 
ATOM     19  C   UNL     1       0.124   8.815  22.113  0.00  0.00    +0.000 A 
ATOM     20  C   UNL     1      -0.431   9.757  22.878  0.00  0.00    +0.000 A 
ATOM     21  C   UNL     1      -0.328  11.170  22.482  0.00  0.00    +0.000 A 
ATOM     22  O   UNL     1      -0.807  12.051  23.186  0.00  0.00    +0.000 OA
ATOM     23  N   UNL     1       0.322  11.422  21.296  0.00  0.00    +0.000 N 
ATOM     24  N   UNL     1       0.933  10.488  20.490  0.00  0.00    +0.000 NA
ATOM     25  H   UNL     1       0.398  12.394  21.014  0.00  0.00    +0.000 HD
ENDBRANCH  15  18
ENDBRANCH   5  14
TORSDOF 3
ENDMDL
MODEL 3
REMARK VINA RESULT:      -8.3      2.867      8.559
REMARK  Name = 
REMARK  4 active torsions:
REMARK  status: ('A' for Active; 'I' for Inactive)
REMARK    1  A    between atoms: C_1  and  C_2
REMARK    2  A    between atoms: C_6  and  C_7
REMARK    3  A    between atoms: C_11  and  N_12
REMARK    4  A    between atoms: C_13  and  C_15
REMARK                            x       y       z     vdW  Elec       q    Type
REMARK                         _______ _______ _______ _____ _____    ______ ____
ROOT
ATOM      1  C   UNL     1       3.961   4.352  18.695  0.00  0.00    +0.000 A 
ATOM      2  C   UNL     1       3.247   3.144  18.807  0.00  0.00    +0.000 A 
ATOM      3  C   UNL     1       2.044   3.072  19.497  0.00  0.00    +0.000 A 
ATOM      4  C   UNL     1       1.534   4.207  20.112  0.00  0.00    +0.000 A 
ATOM      5  C   UNL     1       2.218   5.428  20.066  0.00  0.00    +0.000 A 
ATOM      6  C   UNL     1       3.424   5.493  19.344  0.00  0.00    +0.000 A 
ENDROOT
BRANCH   1  12
ATOM      7  C   UNL     1       6.259   3.911  14.457  0.00  0.00    +0.000 C 
ATOM      8  C   UNL     1       6.322   4.199  15.924  0.00  0.00    +0.000 A 
ATOM      9  N   UNL     1       7.499   4.622  16.418  0.00  0.00    +0.000 NA
ATOM     10  C   UNL     1       7.526   4.905  17.727  0.00  0.00    +0.000 A 
ATOM     11  C   UNL     1       6.428   4.789  18.542  0.00  0.00    +0.000 A 
ATOM     12  C   UNL     1       5.242   4.376  17.950  0.00  0.00    +0.000 A 
ATOM     13  N   UNL     1       5.186   4.053  16.640  0.00  0.00    +0.000 NA
ENDBRANCH   1  12
BRANCH   5  14
ATOM     14  N   UNL     1       1.740   6.583  20.741  0.00  0.00    +0.000 N 
ATOM     15  C   UNL     1       1.618   7.851  20.189  0.00  0.00    +0.000 C 
ATOM     16  O   UNL     1       1.970   8.222  19.077  0.00  0.00    +0.000 OA
ATOM     17  H   UNL     1       1.406   6.479  21.694  0.00  0.00    +0.000 HD
BRANCH  15  18
ATOM     18  C   UNL     1       0.942   8.893  21.080  0.00  0.00    +0.000 A 
ATOM     19  C   UNL     1       0.270  10.010  20.368  0.00  0.00    +0.000 A 
ATOM     20  C   UNL     1      -0.387  10.909  21.102  0.00  0.00    +0.000 A 
ATOM     21  C   UNL     1      -0.410  10.775  22.568  0.00  0.00    +0.000 A 
ATOM     22  O   UNL     1      -1.031  11.575  23.256  0.00  0.00    +0.000 OA
ATOM     23  N   UNL     1       0.301   9.720  23.091  0.00  0.00    +0.000 N 
ATOM     24  N   UNL     1       0.969   8.754  22.373  0.00  0.00    +0.000 NA
ATOM     25  H   UNL     1       0.291   9.619  24.101  0.00  0.00    +0.000 HD
ENDBRANCH  15  18
ENDBRANCH   5  14
TORSDOF 3
ENDMDL
MODEL 4
REMARK VINA RESULT:      -8.3      0.646      1.409
REMARK  Name = 
REMARK  4 active torsions:
REMARK  status: ('A' for Active; 'I' for Inactive)
REMARK    1  A    between atoms: C_1  and  C_2
REMARK    2  A    between atoms: C_6  and  C_7
REMARK    3  A    between atoms: C_11  and  N_12
REMARK    4  A    between atoms: C_13  and  C_15
REMARK                            x       y       z     vdW  Elec       q    Type
REMARK                         _______ _______ _______ _____ _____    ______ ____
ROOT
ATOM      1  C   UNL     1       2.062   6.959  20.030  0.00  0.00    +0.000 A 
ATOM      2  C   UNL     1       1.739   5.786  20.738  0.00  0.00    +0.000 A 
ATOM      3  C   UNL     1       2.247   4.549  20.365  0.00  0.00    +0.000 A 
ATOM      4  C   UNL     1       3.080   4.452  19.258  0.00  0.00    +0.000 A 
ATOM      5  C   UNL     1       3.407   5.579  18.494  0.00  0.00    +0.000 A 
ATOM      6  C   UNL     1       2.903   6.830  18.895  0.00  0.00    +0.000 A 
ENDROOT
BRANCH   1  12
ATOM      7  C   UNL     1       0.375  11.329  18.806  0.00  0.00    +0.000 C 
ATOM      8  C   UNL     1       0.658  10.318  19.872  0.00  0.00    +0.000 A 
ATOM      9  N   UNL     1       0.218  10.594  21.113  0.00  0.00    +0.000 NA
ATOM     10  C   UNL     1       0.453   9.662  22.046  0.00  0.00    +0.000 A 
ATOM     11  C   UNL     1       1.096   8.479  21.779  0.00  0.00    +0.000 A 
ATOM     12  C   UNL     1       1.491   8.256  20.467  0.00  0.00    +0.000 A 
ATOM     13  N   UNL     1       1.297   9.186  19.508  0.00  0.00    +0.000 NA
ENDBRANCH   1  12
BRANCH   5  14
ATOM     14  N   UNL     1       4.206   5.486  17.323  0.00  0.00    +0.000 N 
ATOM     15  C   UNL     1       5.582   5.306  17.295  0.00  0.00    +0.000 C 
ATOM     16  O   UNL     1       6.355   5.281  18.244  0.00  0.00    +0.000 OA
ATOM     17  H   UNL     1       3.741   5.499  16.421  0.00  0.00    +0.000 HD
BRANCH  15  18
ATOM     18  C   UNL     1       6.189   5.093  15.908  0.00  0.00    +0.000 A 
ATOM     19  C   UNL     1       5.418   4.209  14.997  0.00  0.00    +0.000 A 
ATOM     20  C   UNL     1       5.877   4.045  13.755  0.00  0.00    +0.000 A 
ATOM     21  C   UNL     1       7.118   4.721  13.342  0.00  0.00    +0.000 A 
ATOM     22  O   UNL     1       7.539   4.606  12.199  0.00  0.00    +0.000 OA
ATOM     23  N   UNL     1       7.752   5.467  14.309  0.00  0.00    +0.000 N 
ATOM     24  N   UNL     1       7.302   5.686  15.591  0.00  0.00    +0.000 NA
ATOM     25  H   UNL     1       8.608   5.937  14.034  0.00  0.00    +0.000 HD
ENDBRANCH  15  18
ENDBRANCH   5  14
TORSDOF 3
ENDMDL
MODEL 5
REMARK VINA RESULT:      -8.0      3.013      8.530
REMARK  Name = 
REMARK  4 active torsions:
REMARK  status: ('A' for Active; 'I' for Inactive)
REMARK    1  A    between atoms: C_1  and  C_2
REMARK    2  A    between atoms: C_6  and  C_7
REMARK    3  A    between atoms: C_11  and  N_12
REMARK    4  A    between atoms: C_13  and  C_15
REMARK                            x       y       z     vdW  Elec       q    Type
REMARK                         _______ _______ _______ _____ _____    ______ ____
ROOT
ATOM      1  C   UNL     1       3.905   5.096  18.552  0.00  0.00    +0.000 A 
ATOM      2  C   UNL     1       3.410   3.793  18.752  0.00  0.00    +0.000 A 
ATOM      3  C   UNL     1       2.328   3.547  19.586  0.00  0.00    +0.000 A 
ATOM      4  C   UNL     1       1.724   4.601  20.259  0.00  0.00    +0.000 A 
ATOM      5  C   UNL     1       2.195   5.912  20.128  0.00  0.00    +0.000 A 
ATOM      6  C   UNL     1       3.279   6.151  19.262  0.00  0.00    +0.000 A 
ENDROOT
BRANCH   1  12
ATOM      7  C   UNL     1       7.758   7.779  17.372  0.00  0.00    +0.000 C 
ATOM      8  C   UNL     1       6.916   6.569  17.122  0.00  0.00    +0.000 A 
ATOM      9  N   UNL     1       7.369   5.680  16.220  0.00  0.00    +0.000 NA
ATOM     10  C   UNL     1       6.617   4.588  16.033  0.00  0.00    +0.000 A 
ATOM     11  C   UNL     1       5.449   4.356  16.716  0.00  0.00    +0.000 A 
ATOM     12  C   UNL     1       5.065   5.305  17.654  0.00  0.00    +0.000 A 
ATOM     13  N   UNL     1       5.784   6.433  17.845  0.00  0.00    +0.000 NA
ENDBRANCH   1  12
BRANCH   5  14
ATOM     14  N   UNL     1       1.627   6.991  20.856  0.00  0.00    +0.000 N 
ATOM     15  C   UNL     1       1.339   8.250  20.346  0.00  0.00    +0.000 C 
ATOM     16  O   UNL     1       1.593   8.683  19.229  0.00  0.00    +0.000 OA
ATOM     17  H   UNL     1       1.354   6.829  21.820  0.00  0.00    +0.000 HD
BRANCH  15  18
ATOM     18  C   UNL     1       0.597   9.190  21.296  0.00  0.00    +0.000 A 
ATOM     19  C   UNL     1       0.562  10.619  20.891  0.00  0.00    +0.000 A 
ATOM     20  C   UNL     1      -0.128  11.465  21.657  0.00  0.00    +0.000 A 
ATOM     21  C   UNL     1      -0.805  10.967  22.865  0.00  0.00    +0.000 A 
ATOM     22  O   UNL     1      -1.467  11.723  23.564  0.00  0.00    +0.000 OA
ATOM     23  N   UNL     1      -0.642   9.629  23.143  0.00  0.00    +0.000 N 
ATOM     24  N   UNL     1       0.036   8.715  22.369  0.00  0.00    +0.000 NA
ATOM     25  H   UNL     1      -1.105   9.276  23.974  0.00  0.00    +0.000 HD
ENDBRANCH  15  18
ENDBRANCH   5  14
TORSDOF 3
ENDMDL
MODEL 6
REMARK VINA RESULT:      -7.9      2.947      8.489
REMARK  Name = 
REMARK  4 active torsions:
REMARK  status: ('A' for Active; 'I' for Inactive)
REMARK    1  A    between atoms: C_1  and  C_2
REMARK    2  A    between atoms: C_6  and  C_7
REMARK    3  A    between atoms: C_11  and  N_12
REMARK    4  A    between atoms: C_13  and  C_15
REMARK                            x       y       z     vdW  Elec       q    Type
REMARK                         _______ _______ _______ _____ _____    ______ ____
ROOT
ATOM      1  C   UNL     1       3.981   5.173  18.742  0.00  0.00    +0.000 A 
ATOM      2  C   UNL     1       3.596   3.866  19.097  0.00  0.00    +0.000 A 
ATOM      3  C   UNL     1       2.535   3.631  19.961  0.00  0.00    +0.000 A 
ATOM      4  C   UNL     1       1.844   4.703  20.510  0.00  0.00    +0.000 A 
ATOM      5  C   UNL     1       2.204   6.025  20.223  0.00  0.00    +0.000 A 
ATOM      6  C   UNL     1       3.267   6.249  19.327  0.00  0.00    +0.000 A 
ENDROOT
BRANCH   1  12
ATOM      7  C   UNL     1       7.798   7.850  17.437  0.00  0.00    +0.000 C 
ATOM      8  C   UNL     1       6.956   6.632  17.226  0.00  0.00    +0.000 A 
ATOM      9  N   UNL     1       7.396   5.728  16.331  0.00  0.00    +0.000 NA
ATOM     10  C   UNL     1       6.644   4.630  16.179  0.00  0.00    +0.000 A 
ATOM     11  C   UNL     1       5.491   4.406  16.889  0.00  0.00    +0.000 A 
ATOM     12  C   UNL     1       5.122   5.371  17.817  0.00  0.00    +0.000 A 
ATOM     13  N   UNL     1       5.840   6.504  17.974  0.00  0.00    +0.000 NA
ENDBRANCH   1  12
BRANCH   5  14
ATOM     14  N   UNL     1       1.547   7.131  20.824  0.00  0.00    +0.000 N 
ATOM     15  C   UNL     1       1.307   8.356  20.218  0.00  0.00    +0.000 C 
ATOM     16  O   UNL     1       1.682   8.735  19.115  0.00  0.00    +0.000 OA
ATOM     17  H   UNL     1       1.167   7.015  21.758  0.00  0.00    +0.000 HD
BRANCH  15  18
ATOM     18  C   UNL     1       0.453   9.333  21.026  0.00  0.00    +0.000 A 
ATOM     19  C   UNL     1       0.317   9.025  22.473  0.00  0.00    +0.000 A 
ATOM     20  C   UNL     1      -0.367   9.885  23.229  0.00  0.00    +0.000 A 
ATOM     21  C   UNL     1      -0.967  11.079  22.613  0.00  0.00    +0.000 A 
ATOM     22  O   UNL     1      -1.574  11.894  23.297  0.00  0.00    +0.000 OA
ATOM     23  N   UNL     1      -0.803  11.207  21.253  0.00  0.00    +0.000 N 
ATOM     24  N   UNL     1      -0.084  10.362  20.439  0.00  0.00    +0.000 NA
ATOM     25  H   UNL     1      -1.214  12.027  20.819  0.00  0.00    +0.000 HD
ENDBRANCH  15  18
ENDBRANCH   5  14
TORSDOF 3
ENDMDL
MODEL 7
REMARK VINA RESULT:      -7.9      2.779      8.545
REMARK  Name = 
REMARK  4 active torsions:
REMARK  status: ('A' for Active; 'I' for Inactive)
REMARK    1  A    between atoms: C_1  and  C_2
REMARK    2  A    between atoms: C_6  and  C_7
REMARK    3  A    between atoms: C_11  and  N_12
REMARK    4  A    between atoms: C_13  and  C_15
REMARK                            x       y       z     vdW  Elec       q    Type
REMARK                         _______ _______ _______ _____ _____    ______ ____
ROOT
ATOM      1  C   UNL     1       3.987   4.670  17.312  0.00  0.00    +0.000 A 
ATOM      2  C   UNL     1       3.226   3.487  17.260  0.00  0.00    +0.000 A 
ATOM      3  C   UNL     1       2.050   3.347  17.985  0.00  0.00    +0.000 A 
ATOM      4  C   UNL     1       1.616   4.385  18.799  0.00  0.00    +0.000 A 
ATOM      5  C   UNL     1       2.351   5.570  18.920  0.00  0.00    +0.000 A 
ATOM      6  C   UNL     1       3.529   5.708  18.163  0.00  0.00    +0.000 A 
ENDROOT
BRANCH   1  12
ATOM      7  C   UNL     1       6.294   3.800  13.145  0.00  0.00    +0.000 C 
ATOM      8  C   UNL     1       6.315   4.381  14.523  0.00  0.00    +0.000 A 
ATOM      9  N   UNL     1       7.402   5.094  14.874  0.00  0.00    +0.000 NA
ATOM     10  C   UNL     1       7.387   5.632  16.100  0.00  0.00    +0.000 A 
ATOM     11  C   UNL     1       6.335   5.491  16.970  0.00  0.00    +0.000 A 
ATOM     12  C   UNL     1       5.237   4.768  16.521  0.00  0.00    +0.000 A 
ATOM     13  N   UNL     1       5.230   4.185  15.303  0.00  0.00    +0.000 NA
ENDBRANCH   1  12
BRANCH   5  14
ATOM     14  N   UNL     1       1.953   6.616  19.796  0.00  0.00    +0.000 N 
ATOM     15  C   UNL     1       1.732   7.936  19.431  0.00  0.00    +0.000 C 
ATOM     16  O   UNL     1       1.916   8.454  18.337  0.00  0.00    +0.000 OA
ATOM     17  H   UNL     1       1.758   6.383  20.764  0.00  0.00    +0.000 HD
BRANCH  15  18
ATOM     18  C   UNL     1       1.169   8.837  20.532  0.00  0.00    +0.000 A 
ATOM     19  C   UNL     1       0.530  10.095  20.069  0.00  0.00    +0.000 A 
ATOM     20  C   UNL     1      -0.030  10.881  20.990  0.00  0.00    +0.000 A 
ATOM     21  C   UNL     1       0.018  10.490  22.408  0.00  0.00    +0.000 A 
ATOM     22  O   UNL     1      -0.516  11.185  23.264  0.00  0.00    +0.000 OA
ATOM     23  N   UNL     1       0.689   9.323  22.693  0.00  0.00    +0.000 N 
ATOM     24  N   UNL     1       1.257   8.468  21.776  0.00  0.00    +0.000 NA
ATOM     25  H   UNL     1       0.727   9.045  23.668  0.00  0.00    +0.000 HD
ENDBRANCH  15  18
ENDBRANCH   5  14
TORSDOF 3
ENDMDL
MODEL 8
REMARK VINA RESULT:      -7.8      2.732      8.479
REMARK  Name = 
REMARK  4 active torsions:
REMARK  status: ('A' for Active; 'I' for Inactive)
REMARK    1  A    between atoms: C_1  and  C_2
REMARK    2  A    between atoms: C_6  and  C_7
REMARK    3  A    between atoms: C_11  and  N_12
REMARK    4  A    between atoms: C_13  and  C_15
REMARK                            x       y       z     vdW  Elec       q    Type
REMARK                         _______ _______ _______ _____ _____    ______ ____
ROOT
ATOM      1  C   UNL     1       4.039   4.649  17.289  0.00  0.00    +0.000 A 
ATOM      2  C   UNL     1       3.333   3.432  17.328  0.00  0.00    +0.000 A 
ATOM      3  C   UNL     1       2.163   3.294  18.063  0.00  0.00    +0.000 A 
ATOM      4  C   UNL     1       1.679   4.369  18.796  0.00  0.00    +0.000 A 
ATOM      5  C   UNL     1       2.358   5.593  18.825  0.00  0.00    +0.000 A 
ATOM      6  C   UNL     1       3.531   5.727  18.059  0.00  0.00    +0.000 A 
ENDROOT
BRANCH   1  12
ATOM      7  C   UNL     1       6.321   3.773  13.111  0.00  0.00    +0.000 C 
ATOM      8  C   UNL     1       6.351   4.355  14.488  0.00  0.00    +0.000 A 
ATOM      9  N   UNL     1       7.441   5.066  14.832  0.00  0.00    +0.000 NA
ATOM     10  C   UNL     1       7.434   5.605  16.058  0.00  0.00    +0.000 A 
ATOM     11  C   UNL     1       6.386   5.466  16.934  0.00  0.00    +0.000 A 
ATOM     12  C   UNL     1       5.285   4.745  16.492  0.00  0.00    +0.000 A 
ATOM     13  N   UNL     1       5.270   4.162  15.274  0.00  0.00    +0.000 NA
ENDBRANCH   1  12
BRANCH   5  14
ATOM     14  N   UNL     1       1.910   6.682  19.619  0.00  0.00    +0.000 N 
ATOM     15  C   UNL     1       1.801   8.000  19.197  0.00  0.00    +0.000 C 
ATOM     16  O   UNL     1       2.143   8.474  18.121  0.00  0.00    +0.000 OA
ATOM     17  H   UNL     1       1.588   6.490  20.562  0.00  0.00    +0.000 HD
BRANCH  15  18
ATOM     18  C   UNL     1       1.156   8.960  20.198  0.00  0.00    +0.000 A 
ATOM     19  C   UNL     1       1.050   8.459  21.592  0.00  0.00    +0.000 A 
ATOM     20  C   UNL     1       0.551   9.287  22.512  0.00  0.00    +0.000 A 
ATOM     21  C   UNL     1       0.116  10.637  22.118  0.00  0.00    +0.000 A 
ATOM     22  O   UNL     1      -0.318  11.420  22.953  0.00  0.00    +0.000 OA
ATOM     23  N   UNL     1       0.226  10.943  20.781  0.00  0.00    +0.000 N 
ATOM     24  N   UNL     1       0.758  10.133  19.803  0.00  0.00    +0.000 NA
ATOM     25  H   UNL     1      -0.072  11.871  20.500  0.00  0.00    +0.000 HD
ENDBRANCH  15  18
ENDBRANCH   5  14
TORSDOF 3
ENDMDL
MODEL 9
REMARK VINA RESULT:      -7.7      3.800      5.099
REMARK  Name = 
REMARK  4 active torsions:
REMARK  status: ('A' for Active; 'I' for Inactive)
REMARK    1  A    between atoms: C_1  and  C_2
REMARK    2  A    between atoms: C_6  and  C_7
REMARK    3  A    between atoms: C_11  and  N_12
REMARK    4  A    between atoms: C_13  and  C_15
REMARK                            x       y       z     vdW  Elec       q    Type
REMARK                         _______ _______ _______ _____ _____    ______ ____
ROOT
ATOM      1  C   UNL     1       0.655   9.815  20.089  0.00  0.00    +0.000 A 
ATOM      2  C   UNL     1       0.953  10.412  18.850  0.00  0.00    +0.000 A 
ATOM      3  C   UNL     1       1.739   9.769  17.903  0.00  0.00    +0.000 A 
ATOM      4  C   UNL     1       2.266   8.515  18.183  0.00  0.00    +0.000 A 
ATOM      5  C   UNL     1       2.035   7.887  19.412  0.00  0.00    +0.000 A 
ATOM      6  C   UNL     1       1.218   8.540  20.354  0.00  0.00    +0.000 A 
ENDROOT
BRANCH   1  12
ATOM      7  C   UNL     1      -2.680  13.229  20.902  0.00  0.00    +0.000 C 
ATOM      8  C   UNL     1      -1.799  12.146  21.439  0.00  0.00    +0.000 A 
ATOM      9  N   UNL     1      -1.962  11.804  22.730  0.00  0.00    +0.000 NA
ATOM     10  C   UNL     1      -1.186  10.811  23.183  0.00  0.00    +0.000 A 
ATOM     11  C   UNL     1      -0.273  10.154  22.397  0.00  0.00    +0.000 A 
ATOM     12  C   UNL     1      -0.187  10.544  21.067  0.00  0.00    +0.000 A 
ATOM     13  N   UNL     1      -0.932  11.562  20.584  0.00  0.00    +0.000 NA
ENDBRANCH   1  12
BRANCH   5  14
ATOM     14  N   UNL     1       2.617   6.633  19.737  0.00  0.00    +0.000 N 
ATOM     15  C   UNL     1       2.554   5.486  18.958  0.00  0.00    +0.000 C 
ATOM     16  O   UNL     1       1.931   5.319  17.917  0.00  0.00    +0.000 OA
ATOM     17  H   UNL     1       3.174   6.566  20.583  0.00  0.00    +0.000 HD
BRANCH  15  18
ATOM     18  C   UNL     1       3.385   4.305  19.459  0.00  0.00    +0.000 A 
ATOM     19  C   UNL     1       2.756   3.482  20.524  0.00  0.00    +0.000 A 
ATOM     20  C   UNL     1       3.417   2.403  20.947  0.00  0.00    +0.000 A 
ATOM     21  C   UNL     1       4.731   2.081  20.368  0.00  0.00    +0.000 A 
ATOM     22  O   UNL     1       5.340   1.080  20.723  0.00  0.00    +0.000 OA
ATOM     23  N   UNL     1       5.212   2.963  19.428  0.00  0.00    +0.000 N 
ATOM     24  N   UNL     1       4.555   4.070  18.941  0.00  0.00    +0.000 NA
ATOM     25  H   UNL     1       6.118   2.750  19.022  0.00  0.00    +0.000 HD
ENDBRANCH  15  18
ENDBRANCH   5  14
TORSDOF 3
ENDMDL
