MODEL 1
REMARK VINA RESULT:      -8.9      0.000      0.000
REMARK  Name = 
REMARK  5 active torsions:
REMARK  status: ('A' for Active; 'I' for Inactive)
REMARK    1  A    between atoms: C_2  and  C_18
REMARK    2  A    between atoms: N_3  and  C_4
REMARK    3  A    between atoms: C_4  and  C_5
REMARK    4  A    between atoms: C_5  and  C_6
REMARK    5  A    between atoms: C_22  and  C_23
REMARK                            x       y       z     vdW  Elec       q    Type
REMARK                         _______ _______ _______ _____ _____    ______ ____
ROOT
ATOM      1  O   UNL     1       1.327   9.231  18.161  0.00  0.00    +0.000 OA
ATOM      2  C   UNL     1       1.584   8.656  19.213  0.00  0.00    +0.000 C 
ATOM      3  N   UNL     1       2.313   7.486  19.283  0.00  0.00    +0.000 N 
ATOM      4  H   UNL     1       2.449   7.082  20.198  0.00  0.00    +0.000 HD
ENDROOT
BRANCH   2   5
ATOM      5  C   UNL     1       1.141   9.148  20.511  0.00  0.00    +0.000 A 
ATOM      6  C   UNL     1       1.137   8.432  21.697  0.00  0.00    +0.000 A 
ATOM      7  N   UNL     1       0.711   9.289  22.662  0.00  0.00    +0.000 N 
ATOM      8  N   UNL     1       0.411  10.506  22.203  0.00  0.00    +0.000 NA
ATOM      9  C   UNL     1       0.650  10.446  20.877  0.00  0.00    +0.000 A 
ATOM     10  H   UNL     1       0.607   9.115  23.657  0.00  0.00    +0.000 HD
BRANCH   9  11
ATOM     11  C   UNL     1       0.384  11.620  20.040  0.00  0.00    +0.000 A 
ATOM     12  C   UNL     1       1.234  12.740  20.103  0.00  0.00    +0.000 A 
ATOM     13  C   UNL     1       0.998  13.869  19.312  0.00  0.00    +0.000 A 
ATOM     14  C   UNL     1      -0.089  13.894  18.441  0.00  0.00    +0.000 A 
ATOM     15  C   UNL     1      -0.954  12.803  18.385  0.00  0.00    +0.000 A 
ATOM     16  C   UNL     1      -0.727  11.689  19.193  0.00  0.00    +0.000 A 
ATOM     17  F   UNL     1      -1.637  10.704  19.164  0.00  0.00    +0.000 F 
ENDBRANCH   9  11
ENDBRANCH   2   5
BRANCH   3  18
ATOM     18  C   UNL     1       2.779   6.752  18.113  0.00  0.00    +0.000 C 
BRANCH  18  19
ATOM     19  C   UNL     1       3.085   5.241  18.382  0.00  0.00    +0.000 C 
ATOM     20  C   UNL     1       2.012   4.352  17.684  0.00  0.00    +0.000 C 
ATOM     21  C   UNL     1       2.167   2.882  18.067  0.00  0.00    +0.000 C 
ATOM     22  O   UNL     1       2.039   2.722  19.479  0.00  0.00    +0.000 OA
ATOM     23  C   UNL     1       3.044   3.436  20.197  0.00  0.00    +0.000 C 
ATOM     24  C   UNL     1       2.946   4.931  19.906  0.00  0.00    +0.000 C 
BRANCH  19  25
ATOM     25  C   UNL     1       4.520   4.949  17.852  0.00  0.00    +0.000 A 
ATOM     26  C   UNL     1       5.654   5.127  18.670  0.00  0.00    +0.000 A 
ATOM     27  C   UNL     1       6.953   4.953  18.177  0.00  0.00    +0.000 A 
ATOM     28  C   UNL     1       7.156   4.566  16.858  0.00  0.00    +0.000 A 
ATOM     29  C   UNL     1       6.055   4.330  16.045  0.00  0.00    +0.000 A 
ATOM     30 CL   UNL     1       6.292   3.842  14.412  0.00  0.00    +0.000 Cl
ATOM     31  C   UNL     1       4.754   4.501  16.536  0.00  0.00    +0.000 A 
ENDBRANCH  19  25
ENDBRANCH  18  19
ENDBRANCH   3  18
TORSDOF 5
ENDMDL
MODEL 2
REMARK VINA RESULT:      -8.8      1.051      1.612
REMARK  Name = 
REMARK  5 active torsions:
REMARK  status: ('A' for Active; 'I' for Inactive)
REMARK    1  A    between atoms: C_2  and  C_18
REMARK    2  A    between atoms: N_3  and  C_4
REMARK    3  A    between atoms: C_4  and  C_5
REMARK    4  A    between atoms: C_5  and  C_6
REMARK    5  A    between atoms: C_22  and  C_23
REMARK                            x       y       z     vdW  Elec       q    Type
REMARK                         _______ _______ _______ _____ _____    ______ ____
ROOT
ATOM      1  O   UNL     1       2.091   9.305  18.143  0.00  0.00    +0.000 OA
ATOM      2  C   UNL     1       1.875   8.538  19.075  0.00  0.00    +0.000 C 
ATOM      3  N   UNL     1       2.323   7.233  19.109  0.00  0.00    +0.000 N 
ATOM      4  H   UNL     1       2.070   6.679  19.913  0.00  0.00    +0.000 HD
ENDROOT
BRANCH   2   5
ATOM      5  C   UNL     1       1.112   8.925  20.256  0.00  0.00    +0.000 A 
ATOM      6  C   UNL     1       1.374   8.537  21.559  0.00  0.00    +0.000 A 
ATOM      7  N   UNL     1       0.463   9.176  22.340  0.00  0.00    +0.000 N 
ATOM      8  N   UNL     1      -0.392   9.936  21.653  0.00  0.00    +0.000 NA
ATOM      9  C   UNL     1      -0.029   9.790  20.363  0.00  0.00    +0.000 A 
ATOM     10  H   UNL     1       0.371   9.147  23.351  0.00  0.00    +0.000 HD
BRANCH   9  11
ATOM     11  C   UNL     1      -0.795  10.468  19.313  0.00  0.00    +0.000 A 
ATOM     12  C   UNL     1      -1.749   9.755  18.564  0.00  0.00    +0.000 A 
ATOM     13  C   UNL     1      -2.491  10.383  17.558  0.00  0.00    +0.000 A 
ATOM     14  C   UNL     1      -2.295  11.736  17.290  0.00  0.00    +0.000 A 
ATOM     15  C   UNL     1      -1.336  12.450  18.006  0.00  0.00    +0.000 A 
ATOM     16  C   UNL     1      -0.583  11.812  18.992  0.00  0.00    +0.000 A 
ATOM     17  F   UNL     1       0.385  12.522  19.590  0.00  0.00    +0.000 F 
ENDBRANCH   9  11
ENDBRANCH   2   5
BRANCH   3  18
ATOM     18  C   UNL     1       3.021   6.590  18.002  0.00  0.00    +0.000 C 
BRANCH  18  19
ATOM     19  C   UNL     1       3.340   5.076  18.237  0.00  0.00    +0.000 C 
ATOM     20  C   UNL     1       2.224   4.196  17.598  0.00  0.00    +0.000 C 
ATOM     21  C   UNL     1       2.399   2.722  17.956  0.00  0.00    +0.000 C 
ATOM     22  O   UNL     1       2.358   2.548  19.372  0.00  0.00    +0.000 OA
ATOM     23  C   UNL     1       3.407   3.253  20.033  0.00  0.00    +0.000 C 
ATOM     24  C   UNL     1       3.294   4.751  19.764  0.00  0.00    +0.000 C 
BRANCH  19  25
ATOM     25  C   UNL     1       4.739   4.787  17.617  0.00  0.00    +0.000 A 
ATOM     26  C   UNL     1       5.918   4.909  18.380  0.00  0.00    +0.000 A 
ATOM     27  C   UNL     1       7.186   4.739  17.809  0.00  0.00    +0.000 A 
ATOM     28  C   UNL     1       7.311   4.410  16.465  0.00  0.00    +0.000 A 
ATOM     29  C   UNL     1       6.164   4.229  15.704  0.00  0.00    +0.000 A 
ATOM     30 CL   UNL     1       6.305   3.815  14.039  0.00  0.00    +0.000 Cl
ATOM     31  C   UNL     1       4.895   4.397  16.272  0.00  0.00    +0.000 A 
ENDBRANCH  19  25
ENDBRANCH  18  19
ENDBRANCH   3  18
TORSDOF 5
ENDMDL
MODEL 3
REMARK VINA RESULT:      -8.8      1.115      1.422
REMARK  Name = 
REMARK  5 active torsions:
REMARK  status: ('A' for Active; 'I' for Inactive)
REMARK    1  A    between atoms: C_2  and  C_18
REMARK    2  A    between atoms: N_3  and  C_4
REMARK    3  A    between atoms: C_4  and  C_5
REMARK    4  A    between atoms: C_5  and  C_6
REMARK    5  A    between atoms: C_22  and  C_23
REMARK                            x       y       z     vdW  Elec       q    Type
REMARK                         _______ _______ _______ _____ _____    ______ ____
ROOT
ATOM      1  O   UNL     1       1.644   9.069  18.074  0.00  0.00    +0.000 OA
ATOM      2  C   UNL     1       1.706   8.414  19.109  0.00  0.00    +0.000 C 
ATOM      3  N   UNL     1       2.147   7.107  19.158  0.00  0.00    +0.000 N 
ATOM      4  H   UNL     1       2.137   6.651  20.059  0.00  0.00    +0.000 HD
ENDROOT
BRANCH   2   5
ATOM      5  C   UNL     1       1.313   8.949  20.406  0.00  0.00    +0.000 A 
ATOM      6  C   UNL     1       1.444   8.307  21.626  0.00  0.00    +0.000 A 
ATOM      7  N   UNL     1       1.017   9.186  22.571  0.00  0.00    +0.000 N 
ATOM      8  N   UNL     1       0.593  10.348  22.069  0.00  0.00    +0.000 NA
ATOM      9  C   UNL     1       0.747  10.227  20.735  0.00  0.00    +0.000 A 
ATOM     10  H   UNL     1       0.994   9.064  23.579  0.00  0.00    +0.000 HD
BRANCH   9  11
ATOM     11  C   UNL     1       0.335  11.325  19.856  0.00  0.00    +0.000 A 
ATOM     12  C   UNL     1       1.069  12.525  19.833  0.00  0.00    +0.000 A 
ATOM     13  C   UNL     1       0.692  13.585  19.001  0.00  0.00    +0.000 A 
ATOM     14  C   UNL     1      -0.422  13.458  18.174  0.00  0.00    +0.000 A 
ATOM     15  C   UNL     1      -1.174  12.286  18.203  0.00  0.00    +0.000 A 
ATOM     16  C   UNL     1      -0.807  11.242  19.053  0.00  0.00    +0.000 A 
ATOM     17  F   UNL     1      -1.614  10.171  19.106  0.00  0.00    +0.000 F 
ENDBRANCH   9  11
ENDBRANCH   2   5
BRANCH   3  18
ATOM     18  C   UNL     1       2.500   6.328  17.978  0.00  0.00    +0.000 C 
BRANCH  18  19
ATOM     19  C   UNL     1       3.037   4.893  18.293  0.00  0.00    +0.000 C 
ATOM     20  C   UNL     1       2.166   3.829  17.557  0.00  0.00    +0.000 C 
ATOM     21  C   UNL     1       2.541   2.410  17.976  0.00  0.00    +0.000 C 
ATOM     22  O   UNL     1       2.363   2.246  19.383  0.00  0.00    +0.000 OA
ATOM     23  C   UNL     1       3.193   3.125  20.139  0.00  0.00    +0.000 C 
ATOM     24  C   UNL     1       2.865   4.580  19.813  0.00  0.00    +0.000 C 
BRANCH  19  25
ATOM     25  C   UNL     1       4.528   4.838  17.846  0.00  0.00    +0.000 A 
ATOM     26  C   UNL     1       4.897   4.315  16.591  0.00  0.00    +0.000 A 
ATOM     27  C   UNL     1       6.240   4.178  16.216  0.00  0.00    +0.000 A 
ATOM     28  C   UNL     1       7.252   4.589  17.074  0.00  0.00    +0.000 A 
ATOM     29  C   UNL     1       6.915   5.159  18.294  0.00  0.00    +0.000 A 
ATOM     30 CL   UNL     1       8.159   5.679  19.364  0.00  0.00    +0.000 Cl
ATOM     31  C   UNL     1       5.573   5.298  18.672  0.00  0.00    +0.000 A 
ENDBRANCH  19  25
ENDBRANCH  18  19
ENDBRANCH   3  18
TORSDOF 5
ENDMDL
MODEL 4
REMARK VINA RESULT:      -8.8      2.203      3.441
REMARK  Name = 
REMARK  5 active torsions:
REMARK  status: ('A' for Active; 'I' for Inactive)
REMARK    1  A    between atoms: C_2  and  C_18
REMARK    2  A    between atoms: N_3  and  C_4
REMARK    3  A    between atoms: C_4  and  C_5
REMARK    4  A    between atoms: C_5  and  C_6
REMARK    5  A    between atoms: C_22  and  C_23
REMARK                            x       y       z     vdW  Elec       q    Type
REMARK                         _______ _______ _______ _____ _____    ______ ____
ROOT
ATOM      1  O   UNL     1       2.170   9.010  17.239  0.00  0.00    +0.000 OA
ATOM      2  C   UNL     1       2.477   8.311  18.199  0.00  0.00    +0.000 C 
ATOM      3  N   UNL     1       3.491   7.376  18.167  0.00  0.00    +0.000 N 
ATOM      4  H   UNL     1       3.647   6.836  19.005  0.00  0.00    +0.000 HD
ENDROOT
BRANCH   2   5
ATOM      5  C   UNL     1       1.794   8.391  19.484  0.00  0.00    +0.000 A 
ATOM      6  C   UNL     1       1.841   7.441  20.492  0.00  0.00    +0.000 A 
ATOM      7  N   UNL     1       1.121   7.947  21.529  0.00  0.00    +0.000 N 
ATOM      8  N   UNL     1       0.584   9.142  21.276  0.00  0.00    +0.000 NA
ATOM      9  C   UNL     1       0.968   9.437  20.017  0.00  0.00    +0.000 A 
ATOM     10  H   UNL     1       0.959   7.534  22.442  0.00  0.00    +0.000 HD
BRANCH   9  11
ATOM     11  C   UNL     1       0.514  10.684  19.394  0.00  0.00    +0.000 A 
ATOM     12  C   UNL     1       1.354  11.812  19.379  0.00  0.00    +0.000 A 
ATOM     13  C   UNL     1       0.940  13.011  18.790  0.00  0.00    +0.000 A 
ATOM     14  C   UNL     1      -0.319  13.099  18.201  0.00  0.00    +0.000 A 
ATOM     15  C   UNL     1      -1.173  11.999  18.229  0.00  0.00    +0.000 A 
ATOM     16  C   UNL     1      -0.763  10.812  18.840  0.00  0.00    +0.000 A 
ATOM     17  F   UNL     1      -1.655   9.813  18.916  0.00  0.00    +0.000 F 
ENDBRANCH   9  11
ENDBRANCH   2   5
BRANCH   3  18
ATOM     18  C   UNL     1       4.250   7.047  16.966  0.00  0.00    +0.000 C 
BRANCH  18  19
ATOM     19  C   UNL     1       5.077   5.723  17.072  0.00  0.00    +0.000 C 
ATOM     20  C   UNL     1       6.358   5.967  17.927  0.00  0.00    +0.000 C 
ATOM     21  C   UNL     1       7.283   4.754  17.909  0.00  0.00    +0.000 C 
ATOM     22  O   UNL     1       7.682   4.455  16.571  0.00  0.00    +0.000 OA
ATOM     23  C   UNL     1       6.572   4.131  15.736  0.00  0.00    +0.000 C 
ATOM     24  C   UNL     1       5.600   5.306  15.661  0.00  0.00    +0.000 C 
BRANCH  19  25
ATOM     25  C   UNL     1       4.153   4.639  17.700  0.00  0.00    +0.000 A 
ATOM     26  C   UNL     1       3.561   3.634  16.910  0.00  0.00    +0.000 A 
ATOM     27  C   UNL     1       2.658   2.709  17.448  0.00  0.00    +0.000 A 
ATOM     28  C   UNL     1       2.345   2.742  18.801  0.00  0.00    +0.000 A 
ATOM     29  C   UNL     1       2.957   3.686  19.615  0.00  0.00    +0.000 A 
ATOM     30 CL   UNL     1       2.584   3.733  21.294  0.00  0.00    +0.000 Cl
ATOM     31  C   UNL     1       3.861   4.612  19.079  0.00  0.00    +0.000 A 
ENDBRANCH  19  25
ENDBRANCH  18  19
ENDBRANCH   3  18
TORSDOF 5
ENDMDL
MODEL 5
REMARK VINA RESULT:      -8.7      0.895      1.265
REMARK  Name = 
REMARK  5 active torsions:
REMARK  status: ('A' for Active; 'I' for Inactive)
REMARK    1  A    between atoms: C_2  and  C_18
REMARK    2  A    between atoms: N_3  and  C_4
REMARK    3  A    between atoms: C_4  and  C_5
REMARK    4  A    between atoms: C_5  and  C_6
REMARK    5  A    between atoms: C_22  and  C_23
REMARK                            x       y       z     vdW  Elec       q    Type
REMARK                         _______ _______ _______ _____ _____    ______ ____
ROOT
ATOM      1  O   UNL     1       1.289   9.298  18.243  0.00  0.00    +0.000 OA
ATOM      2  C   UNL     1       1.540   8.717  19.293  0.00  0.00    +0.000 C 
ATOM      3  N   UNL     1       2.261   7.542  19.360  0.00  0.00    +0.000 N 
ATOM      4  H   UNL     1       2.391   7.132  20.273  0.00  0.00    +0.000 HD
ENDROOT
BRANCH   2   5
ATOM      5  C   UNL     1       1.095   9.206  20.593  0.00  0.00    +0.000 A 
ATOM      6  C   UNL     1       1.089   8.486  21.776  0.00  0.00    +0.000 A 
ATOM      7  N   UNL     1       0.662   9.340  22.743  0.00  0.00    +0.000 N 
ATOM      8  N   UNL     1       0.364  10.559  22.288  0.00  0.00    +0.000 NA
ATOM      9  C   UNL     1       0.606  10.504  20.962  0.00  0.00    +0.000 A 
ATOM     10  H   UNL     1       0.557   9.163  23.737  0.00  0.00    +0.000 HD
BRANCH   9  11
ATOM     11  C   UNL     1       0.342  11.680  20.128  0.00  0.00    +0.000 A 
ATOM     12  C   UNL     1      -0.790  11.714  19.293  0.00  0.00    +0.000 A 
ATOM     13  C   UNL     1      -1.059  12.827  18.490  0.00  0.00    +0.000 A 
ATOM     14  C   UNL     1      -0.204  13.926  18.513  0.00  0.00    +0.000 A 
ATOM     15  C   UNL     1       0.935  13.898  19.315  0.00  0.00    +0.000 A 
ATOM     16  C   UNL     1       1.211  12.775  20.097  0.00  0.00    +0.000 A 
ATOM     17  F   UNL     1       2.363  12.764  20.783  0.00  0.00    +0.000 F 
ENDBRANCH   9  11
ENDBRANCH   2   5
BRANCH   3  18
ATOM     18  C   UNL     1       2.725   6.810  18.187  0.00  0.00    +0.000 C 
BRANCH  18  19
ATOM     19  C   UNL     1       3.026   5.298  18.452  0.00  0.00    +0.000 C 
ATOM     20  C   UNL     1       1.962   4.414  17.732  0.00  0.00    +0.000 C 
ATOM     21  C   UNL     1       2.111   2.942  18.108  0.00  0.00    +0.000 C 
ATOM     22  O   UNL     1       1.962   2.773  19.517  0.00  0.00    +0.000 OA
ATOM     23  C   UNL     1       2.957   3.481  20.254  0.00  0.00    +0.000 C 
ATOM     24  C   UNL     1       2.864   4.979  19.972  0.00  0.00    +0.000 C 
BRANCH  19  25
ATOM     25  C   UNL     1       4.469   5.008  17.941  0.00  0.00    +0.000 A 
ATOM     26  C   UNL     1       5.593   5.222  18.763  0.00  0.00    +0.000 A 
ATOM     27  C   UNL     1       6.899   5.051  18.285  0.00  0.00    +0.000 A 
ATOM     28  C   UNL     1       7.117   4.629  16.979  0.00  0.00    +0.000 A 
ATOM     29  C   UNL     1       6.026   4.356  16.165  0.00  0.00    +0.000 A 
ATOM     30 CL   UNL     1       6.282   3.826  14.548  0.00  0.00    +0.000 Cl
ATOM     31  C   UNL     1       4.719   4.526  16.641  0.00  0.00    +0.000 A 
ENDBRANCH  19  25
ENDBRANCH  18  19
ENDBRANCH   3  18
TORSDOF 5
ENDMDL
MODEL 6
REMARK VINA RESULT:      -8.7      2.305      3.626
REMARK  Name = 
REMARK  5 active torsions:
REMARK  status: ('A' for Active; 'I' for Inactive)
REMARK    1  A    between atoms: C_2  and  C_18
REMARK    2  A    between atoms: N_3  and  C_4
REMARK    3  A    between atoms: C_4  and  C_5
REMARK    4  A    between atoms: C_5  and  C_6
REMARK    5  A    between atoms: C_22  and  C_23
REMARK                            x       y       z     vdW  Elec       q    Type
REMARK                         _______ _______ _______ _____ _____    ______ ____
ROOT
ATOM      1  O   UNL     1       2.003   8.996  17.299  0.00  0.00    +0.000 OA
ATOM      2  C   UNL     1       2.337   8.316  18.263  0.00  0.00    +0.000 C 
ATOM      3  N   UNL     1       3.339   7.368  18.216  0.00  0.00    +0.000 N 
ATOM      4  H   UNL     1       3.520   6.846  19.061  0.00  0.00    +0.000 HD
ENDROOT
BRANCH   2   5
ATOM      5  C   UNL     1       1.702   8.433  19.570  0.00  0.00    +0.000 A 
ATOM      6  C   UNL     1       1.894   7.585  20.648  0.00  0.00    +0.000 A 
ATOM      7  N   UNL     1       1.166   8.099  21.675  0.00  0.00    +0.000 N 
ATOM      8  N   UNL     1       0.490   9.204  21.352  0.00  0.00    +0.000 NA
ATOM      9  C   UNL     1       0.788   9.427  20.056  0.00  0.00    +0.000 A 
ATOM     10  H   UNL     1       1.088   7.752  22.626  0.00  0.00    +0.000 HD
BRANCH   9  11
ATOM     11  C   UNL     1       0.173  10.560  19.357  0.00  0.00    +0.000 A 
ATOM     12  C   UNL     1      -1.006  10.374  18.613  0.00  0.00    +0.000 A 
ATOM     13  C   UNL     1      -1.608  11.442  17.939  0.00  0.00    +0.000 A 
ATOM     14  C   UNL     1      -1.042  12.714  18.002  0.00  0.00    +0.000 A 
ATOM     15  C   UNL     1       0.140  12.908  18.714  0.00  0.00    +0.000 A 
ATOM     16  C   UNL     1       0.748  11.834  19.365  0.00  0.00    +0.000 A 
ATOM     17  F   UNL     1       1.928  12.058  19.961  0.00  0.00    +0.000 F 
ENDBRANCH   9  11
ENDBRANCH   2   5
BRANCH   3  18
ATOM     18  C   UNL     1       4.050   7.003  16.997  0.00  0.00    +0.000 C 
BRANCH  18  19
ATOM     19  C   UNL     1       4.917   5.707  17.123  0.00  0.00    +0.000 C 
ATOM     20  C   UNL     1       6.178   5.998  17.993  0.00  0.00    +0.000 C 
ATOM     21  C   UNL     1       7.142   4.814  17.996  0.00  0.00    +0.000 C 
ATOM     22  O   UNL     1       7.568   4.519  16.666  0.00  0.00    +0.000 OA
ATOM     23  C   UNL     1       6.480   4.154  15.819  0.00  0.00    +0.000 C 
ATOM     24  C   UNL     1       5.473   5.296  15.723  0.00  0.00    +0.000 C 
BRANCH  19  25
ATOM     25  C   UNL     1       4.020   4.598  17.748  0.00  0.00    +0.000 A 
ATOM     26  C   UNL     1       3.415   3.608  16.947  0.00  0.00    +0.000 A 
ATOM     27  C   UNL     1       2.535   2.661  17.485  0.00  0.00    +0.000 A 
ATOM     28  C   UNL     1       2.259   2.656  18.847  0.00  0.00    +0.000 A 
ATOM     29  C   UNL     1       2.885   3.584  19.668  0.00  0.00    +0.000 A 
ATOM     30 CL   UNL     1       2.557   3.584  21.357  0.00  0.00    +0.000 Cl
ATOM     31  C   UNL     1       3.766   4.532  19.132  0.00  0.00    +0.000 A 
ENDBRANCH  19  25
ENDBRANCH  18  19
ENDBRANCH   3  18
TORSDOF 5
ENDMDL
MODEL 7
REMARK VINA RESULT:      -8.6      1.476      2.083
REMARK  Name = 
REMARK  5 active torsions:
REMARK  status: ('A' for Active; 'I' for Inactive)
REMARK    1  A    between atoms: C_2  and  C_18
REMARK    2  A    between atoms: N_3  and  C_4
REMARK    3  A    between atoms: C_4  and  C_5
REMARK    4  A    between atoms: C_5  and  C_6
REMARK    5  A    between atoms: C_22  and  C_23
REMARK                            x       y       z     vdW  Elec       q    Type
REMARK                         _______ _______ _______ _____ _____    ______ ____
ROOT
ATOM      1  O   UNL     1       2.239   9.046  18.185  0.00  0.00    +0.000 OA
ATOM      2  C   UNL     1       1.864   8.302  19.085  0.00  0.00    +0.000 C 
ATOM      3  N   UNL     1       2.012   6.930  19.051  0.00  0.00    +0.000 N 
ATOM      4  H   UNL     1       1.646   6.408  19.834  0.00  0.00    +0.000 HD
ENDROOT
BRANCH   2   5
ATOM      5  C   UNL     1       1.210   8.791  20.293  0.00  0.00    +0.000 A 
ATOM      6  C   UNL     1       1.512   8.415  21.591  0.00  0.00    +0.000 A 
ATOM      7  N   UNL     1       0.712   9.159  22.401  0.00  0.00    +0.000 N 
ATOM      8  N   UNL     1      -0.109   9.977  21.739  0.00  0.00    +0.000 NA
ATOM      9  C   UNL     1       0.163   9.762  20.436  0.00  0.00    +0.000 A 
ATOM     10  H   UNL     1       0.677   9.166  23.416  0.00  0.00    +0.000 HD
BRANCH   9  11
ATOM     11  C   UNL     1      -0.598  10.480  19.409  0.00  0.00    +0.000 A 
ATOM     12  C   UNL     1      -1.517   9.789  18.599  0.00  0.00    +0.000 A 
ATOM     13  C   UNL     1      -2.253  10.455  17.614  0.00  0.00    +0.000 A 
ATOM     14  C   UNL     1      -2.086  11.826  17.428  0.00  0.00    +0.000 A 
ATOM     15  C   UNL     1      -1.162  12.521  18.205  0.00  0.00    +0.000 A 
ATOM     16  C   UNL     1      -0.414  11.846  19.170  0.00  0.00    +0.000 A 
ATOM     17  F   UNL     1       0.523  12.543  19.830  0.00  0.00    +0.000 F 
ENDBRANCH   9  11
ENDBRANCH   2   5
BRANCH   3  18
ATOM     18  C   UNL     1       2.546   6.202  17.906  0.00  0.00    +0.000 C 
BRANCH  18  19
ATOM     19  C   UNL     1       3.118   4.789  18.254  0.00  0.00    +0.000 C 
ATOM     20  C   UNL     1       2.288   3.688  17.526  0.00  0.00    +0.000 C 
ATOM     21  C   UNL     1       2.698   2.288  17.975  0.00  0.00    +0.000 C 
ATOM     22  O   UNL     1       2.504   2.144  19.382  0.00  0.00    +0.000 OA
ATOM     23  C   UNL     1       3.299   3.059  20.133  0.00  0.00    +0.000 C 
ATOM     24  C   UNL     1       2.935   4.498  19.778  0.00  0.00    +0.000 C 
BRANCH  19  25
ATOM     25  C   UNL     1       4.616   4.769  17.829  0.00  0.00    +0.000 A 
ATOM     26  C   UNL     1       5.014   4.275  16.570  0.00  0.00    +0.000 A 
ATOM     27  C   UNL     1       6.364   4.169  16.213  0.00  0.00    +0.000 A 
ATOM     28  C   UNL     1       7.356   4.582  17.093  0.00  0.00    +0.000 A 
ATOM     29  C   UNL     1       6.990   5.125  18.318  0.00  0.00    +0.000 A 
ATOM     30 CL   UNL     1       8.210   5.648  19.415  0.00  0.00    +0.000 Cl
ATOM     31  C   UNL     1       5.641   5.233  18.677  0.00  0.00    +0.000 A 
ENDBRANCH  19  25
ENDBRANCH  18  19
ENDBRANCH   3  18
TORSDOF 5
ENDMDL
MODEL 8
REMARK VINA RESULT:      -8.6      1.381      1.866
REMARK  Name = 
REMARK  5 active torsions:
REMARK  status: ('A' for Active; 'I' for Inactive)
REMARK    1  A    between atoms: C_2  and  C_18
REMARK    2  A    between atoms: N_3  and  C_4
REMARK    3  A    between atoms: C_4  and  C_5
REMARK    4  A    between atoms: C_5  and  C_6
REMARK    5  A    between atoms: C_22  and  C_23
REMARK                            x       y       z     vdW  Elec       q    Type
REMARK                         _______ _______ _______ _____ _____    ______ ____
ROOT
ATOM      1  O   UNL     1       1.498   9.155  18.039  0.00  0.00    +0.000 OA
ATOM      2  C   UNL     1       1.649   8.528  19.082  0.00  0.00    +0.000 C 
ATOM      3  N   UNL     1       2.209   7.268  19.139  0.00  0.00    +0.000 N 
ATOM      4  H   UNL     1       2.266   6.829  20.046  0.00  0.00    +0.000 HD
ENDROOT
BRANCH   2   5
ATOM      5  C   UNL     1       1.244   9.048  20.382  0.00  0.00    +0.000 A 
ATOM      6  C   UNL     1       1.334   8.379  21.591  0.00  0.00    +0.000 A 
ATOM      7  N   UNL     1       0.912   9.251  22.545  0.00  0.00    +0.000 N 
ATOM      8  N   UNL     1       0.529  10.434  22.058  0.00  0.00    +0.000 NA
ATOM      9  C   UNL     1       0.707  10.334  20.725  0.00  0.00    +0.000 A 
ATOM     10  H   UNL     1       0.865   9.111  23.549  0.00  0.00    +0.000 HD
BRANCH   9  11
ATOM     11  C   UNL     1       0.341  11.460  19.860  0.00  0.00    +0.000 A 
ATOM     12  C   UNL     1      -0.826  11.399  19.076  0.00  0.00    +0.000 A 
ATOM     13  C   UNL     1      -1.192  12.462  18.244  0.00  0.00    +0.000 A 
ATOM     14  C   UNL     1      -0.400  13.606  18.187  0.00  0.00    +0.000 A 
ATOM     15  C   UNL     1       0.772  13.673  18.937  0.00  0.00    +0.000 A 
ATOM     16  C   UNL     1       1.145  12.599  19.747  0.00  0.00    +0.000 A 
ATOM     17  F   UNL     1       2.325  12.679  20.380  0.00  0.00    +0.000 F 
ENDBRANCH   9  11
ENDBRANCH   2   5
BRANCH   3  18
ATOM     18  C   UNL     1       2.599   6.503  17.961  0.00  0.00    +0.000 C 
BRANCH  18  19
ATOM     19  C   UNL     1       3.071   5.044  18.270  0.00  0.00    +0.000 C 
ATOM     20  C   UNL     1       2.165   4.024  17.516  0.00  0.00    +0.000 C 
ATOM     21  C   UNL     1       2.476   2.587  17.928  0.00  0.00    +0.000 C 
ATOM     22  O   UNL     1       2.274   2.420  19.331  0.00  0.00    +0.000 OA
ATOM     23  C   UNL     1       3.133   3.257  20.103  0.00  0.00    +0.000 C 
ATOM     24  C   UNL     1       2.870   4.727  19.786  0.00  0.00    +0.000 C 
BRANCH  19  25
ATOM     25  C   UNL     1       4.564   4.929  17.840  0.00  0.00    +0.000 A 
ATOM     26  C   UNL     1       4.927   4.378  16.595  0.00  0.00    +0.000 A 
ATOM     27  C   UNL     1       6.267   4.188  16.235  0.00  0.00    +0.000 A 
ATOM     28  C   UNL     1       7.285   4.573  17.099  0.00  0.00    +0.000 A 
ATOM     29  C   UNL     1       6.957   5.170  18.309  0.00  0.00    +0.000 A 
ATOM     30 CL   UNL     1       8.208   5.658  19.385  0.00  0.00    +0.000 Cl
ATOM     31  C   UNL     1       5.617   5.362  18.670  0.00  0.00    +0.000 A 
ENDBRANCH  19  25
ENDBRANCH  18  19
ENDBRANCH   3  18
TORSDOF 5
ENDMDL
MODEL 9
REMARK VINA RESULT:      -8.5      3.532      8.687
REMARK  Name = 
REMARK  5 active torsions:
REMARK  status: ('A' for Active; 'I' for Inactive)
REMARK    1  A    between atoms: C_2  and  C_18
REMARK    2  A    between atoms: N_3  and  C_4
REMARK    3  A    between atoms: C_4  and  C_5
REMARK    4  A    between atoms: C_5  and  C_6
REMARK    5  A    between atoms: C_22  and  C_23
REMARK                            x       y       z     vdW  Elec       q    Type
REMARK                         _______ _______ _______ _____ _____    ______ ____
ROOT
ATOM      1  O   UNL     1       1.436   7.786  21.052  0.00  0.00    +0.000 OA
ATOM      2  C   UNL     1       1.518   8.162  19.888  0.00  0.00    +0.000 C 
ATOM      3  N   UNL     1       0.806   9.229  19.380  0.00  0.00    +0.000 N 
ATOM      4  H   UNL     1       0.929   9.441  18.401  0.00  0.00    +0.000 HD
ENDROOT
BRANCH   2   5
ATOM      5  C   UNL     1       2.380   7.513  18.908  0.00  0.00    +0.000 A 
ATOM      6  C   UNL     1       3.109   8.149  17.917  0.00  0.00    +0.000 A 
ATOM      7  N   UNL     1       3.817   7.179  17.279  0.00  0.00    +0.000 N 
ATOM      8  N   UNL     1       3.594   5.952  17.755  0.00  0.00    +0.000 NA
ATOM      9  C   UNL     1       2.700   6.123  18.750  0.00  0.00    +0.000 A 
ATOM     10  H   UNL     1       4.477   7.282  16.514  0.00  0.00    +0.000 HD
BRANCH   9  11
ATOM     11  C   UNL     1       2.195   4.955  19.478  0.00  0.00    +0.000 A 
ATOM     12  C   UNL     1       2.583   4.733  20.812  0.00  0.00    +0.000 A 
ATOM     13  C   UNL     1       2.112   3.625  21.525  0.00  0.00    +0.000 A 
ATOM     14  C   UNL     1       1.241   2.724  20.915  0.00  0.00    +0.000 A 
ATOM     15  C   UNL     1       0.868   2.916  19.587  0.00  0.00    +0.000 A 
ATOM     16  C   UNL     1       1.360   4.010  18.874  0.00  0.00    +0.000 A 
ATOM     17  F   UNL     1       1.039   4.100  17.575  0.00  0.00    +0.000 F 
ENDBRANCH   9  11
ENDBRANCH   2   5
BRANCH   3  18
ATOM     18  C   UNL     1      -0.193   9.971  20.142  0.00  0.00    +0.000 C 
BRANCH  18  19
ATOM     19  C   UNL     1      -0.427  11.433  19.638  0.00  0.00    +0.000 C 
ATOM     20  C   UNL     1       0.824  11.929  18.851  0.00  0.00    +0.000 C 
ATOM     21  C   UNL     1       0.712  13.409  18.495  0.00  0.00    +0.000 C 
ATOM     22  O   UNL     1       0.581  14.194  19.680  0.00  0.00    +0.000 OA
ATOM     23  C   UNL     1      -0.593  13.866  20.419  0.00  0.00    +0.000 C 
ATOM     24  C   UNL     1      -0.556  12.403  20.855  0.00  0.00    +0.000 C 
BRANCH  19  25
ATOM     25  C   UNL     1      -1.709  11.428  18.753  0.00  0.00    +0.000 A 
ATOM     26  C   UNL     1      -2.947  11.877  19.255  0.00  0.00    +0.000 A 
ATOM     27  C   UNL     1      -4.123  11.792  18.499  0.00  0.00    +0.000 A 
ATOM     28  C   UNL     1      -4.090  11.284  17.206  0.00  0.00    +0.000 A 
ATOM     29  C   UNL     1      -2.874  10.887  16.667  0.00  0.00    +0.000 A 
ATOM     30 CL   UNL     1      -2.817  10.263  15.063  0.00  0.00    +0.000 Cl
ATOM     31  C   UNL     1      -1.696  10.971  17.420  0.00  0.00    +0.000 A 
ENDBRANCH  19  25
ENDBRANCH  18  19
ENDBRANCH   3  18
TORSDOF 5
ENDMDL
