MODEL 1
REMARK VINA RESULT:      -8.7      0.000      0.000
REMARK  Name = 
REMARK  5 active torsions:
REMARK  status: ('A' for Active; 'I' for Inactive)
REMARK    1  A    between atoms: C_2  and  C_18
REMARK    2  A    between atoms: N_3  and  C_4
REMARK    3  A    between atoms: C_9  and  C_10
REMARK    4  A    between atoms: C_20  and  O_21
REMARK    5  A    between atoms: C_24  and  C_25
REMARK                            x       y       z     vdW  Elec       q    Type
REMARK                         _______ _______ _______ _____ _____    ______ ____
ROOT
ATOM      1  O   UNL     1       1.932   6.582  18.237  0.00  0.00    +0.000 OA
ATOM      2  C   UNL     1       2.265   6.322  19.390  0.00  0.00    +0.000 C 
ATOM      3  N   UNL     1       2.062   7.117  20.501  0.00  0.00    +0.000 N 
ATOM      4  H   UNL     1       2.485   6.843  21.378  0.00  0.00    +0.000 HD
ENDROOT
BRANCH   3   5
ATOM      5  C   UNL     1       1.354   8.344  20.521  0.00  0.00    +0.000 A 
ATOM      6  C   UNL     1       1.471   9.309  19.512  0.00  0.00    +0.000 A 
ATOM      7  C   UNL     1       0.865  10.567  19.608  0.00  0.00    +0.000 A 
ATOM      8  C   UNL     1       0.138  10.812  20.767  0.00  0.00    +0.000 A 
ATOM      9  N   UNL     1      -0.496  11.928  21.231  0.00  0.00    +0.000 N 
ATOM     10  C   UNL     1      -1.044  11.640  22.455  0.00  0.00    +0.000 A 
ATOM     11  N   UNL     1      -0.822  10.381  22.783  0.00  0.00    +0.000 NA
ATOM     12  C   UNL     1      -0.062   9.863  21.760  0.00  0.00    +0.000 A 
ATOM     13  C   UNL     1       0.525   8.594  21.628  0.00  0.00    +0.000 A 
ATOM     14  H   UNL     1      -0.521  12.841  20.797  0.00  0.00    +0.000 HD
BRANCH  10  15
ATOM     15  C   UNL     1      -1.754  12.677  23.253  0.00  0.00    +0.000 C 
ATOM     16  C   UNL     1      -3.156  12.260  23.656  0.00  0.00    +0.000 C 
ATOM     17  C   UNL     1      -3.874  13.582  23.718  0.00  0.00    +0.000 C 
ATOM     18  C   UNL     1      -3.242  14.346  22.574  0.00  0.00    +0.000 C 
ATOM     19  O   UNL     1      -1.899  13.860  22.432  0.00  0.00    +0.000 OA
ENDBRANCH  10  15
ENDBRANCH   3   5
BRANCH   2  20
ATOM     20  C   UNL     1       3.053   5.077  19.572  0.00  0.00    +0.000 A 
ATOM     21  C   UNL     1       4.394   5.176  19.137  0.00  0.00    +0.000 A 
ATOM     22  C   UNL     1       5.222   4.064  19.138  0.00  0.00    +0.000 A 
ATOM     23  C   UNL     1       4.750   2.840  19.576  0.00  0.00    +0.000 A 
ATOM     24  C   UNL     1       3.431   2.731  20.015  0.00  0.00    +0.000 A 
ATOM     25  C   UNL     1       2.552   3.839  20.014  0.00  0.00    +0.000 A 
BRANCH  25  26
ATOM     26  C   UNL     1       1.130   3.561  20.443  0.00  0.00    +0.000 C 
ATOM     27  F   UNL     1       0.351   2.899  19.557  0.00  0.00    +0.000 F 
ATOM     28  F   UNL     1       1.075   2.840  21.598  0.00  0.00    +0.000 F 
ATOM     29  F   UNL     1       0.465   4.724  20.702  0.00  0.00    +0.000 F 
ENDBRANCH  25  26
BRANCH  22  30
ATOM     30  O   UNL     1       6.507   4.132  18.693  0.00  0.00    +0.000 OA
ATOM     31  H   UNL     1       6.819   5.050  18.761  0.00  0.00    +0.000 HD
ENDBRANCH  22  30
ENDBRANCH   2  20
TORSDOF 5
ENDMDL
MODEL 2
REMARK VINA RESULT:      -8.7      3.238      3.698
REMARK  Name = 
REMARK  5 active torsions:
REMARK  status: ('A' for Active; 'I' for Inactive)
REMARK    1  A    between atoms: C_2  and  C_18
REMARK    2  A    between atoms: N_3  and  C_4
REMARK    3  A    between atoms: C_9  and  C_10
REMARK    4  A    between atoms: C_20  and  O_21
REMARK    5  A    between atoms: C_24  and  C_25
REMARK                            x       y       z     vdW  Elec       q    Type
REMARK                         _______ _______ _______ _____ _____    ______ ____
ROOT
ATOM      1  O   UNL     1       2.180   7.264  19.703  0.00  0.00    +0.000 OA
ATOM      2  C   UNL     1       2.488   7.459  18.531  0.00  0.00    +0.000 C 
ATOM      3  N   UNL     1       1.966   8.427  17.695  0.00  0.00    +0.000 N 
ATOM      4  H   UNL     1       2.220   8.411  16.716  0.00  0.00    +0.000 HD
ENDROOT
BRANCH   3   5
ATOM      5  C   UNL     1       1.035   9.427  18.069  0.00  0.00    +0.000 A 
ATOM      6  C   UNL     1       1.302  10.388  19.054  0.00  0.00    +0.000 A 
ATOM      7  C   UNL     1       0.329  11.289  19.500  0.00  0.00    +0.000 A 
ATOM      8  C   UNL     1      -0.925  11.179  18.914  0.00  0.00    +0.000 A 
ATOM      9  N   UNL     1      -2.109  11.814  19.158  0.00  0.00    +0.000 N 
ATOM     10  C   UNL     1      -3.058  11.309  18.305  0.00  0.00    +0.000 A 
ATOM     11  N   UNL     1      -2.531  10.406  17.501  0.00  0.00    +0.000 NA
ATOM     12  C   UNL     1      -1.216  10.291  17.887  0.00  0.00    +0.000 A 
ATOM     13  C   UNL     1      -0.215   9.418  17.428  0.00  0.00    +0.000 A 
ATOM     14  H   UNL     1      -2.298  12.498  19.879  0.00  0.00    +0.000 HD
BRANCH  10  15
ATOM     15  C   UNL     1      -4.476  11.758  18.367  0.00  0.00    +0.000 C 
ATOM     16  C   UNL     1      -4.909  12.165  19.763  0.00  0.00    +0.000 C 
ATOM     17  C   UNL     1      -6.378  11.830  19.748  0.00  0.00    +0.000 C 
ATOM     18  C   UNL     1      -6.412  10.569  18.911  0.00  0.00    +0.000 C 
ATOM     19  O   UNL     1      -5.320  10.647  17.984  0.00  0.00    +0.000 OA
ENDBRANCH  10  15
ENDBRANCH   3   5
BRANCH   2  20
ATOM     20  C   UNL     1       3.441   6.484  17.941  0.00  0.00    +0.000 A 
ATOM     21  C   UNL     1       4.689   7.043  17.586  0.00  0.00    +0.000 A 
ATOM     22  C   UNL     1       5.641   6.283  16.921  0.00  0.00    +0.000 A 
ATOM     23  C   UNL     1       5.385   4.962  16.606  0.00  0.00    +0.000 A 
ATOM     24  C   UNL     1       4.160   4.396  16.959  0.00  0.00    +0.000 A 
ATOM     25  C   UNL     1       3.159   5.143  17.623  0.00  0.00    +0.000 A 
BRANCH  25  26
ATOM     26  C   UNL     1       1.853   4.428  17.876  0.00  0.00    +0.000 C 
ATOM     27  F   UNL     1       0.768   4.905  17.222  0.00  0.00    +0.000 F 
ATOM     28  F   UNL     1       1.924   3.104  17.562  0.00  0.00    +0.000 F 
ATOM     29  F   UNL     1       1.521   4.476  19.198  0.00  0.00    +0.000 F 
ENDBRANCH  25  26
BRANCH  22  30
ATOM     30  O   UNL     1       6.837   6.812  16.542  0.00  0.00    +0.000 OA
ATOM     31  H   UNL     1       6.884   6.826  15.571  0.00  0.00    +0.000 HD
ENDBRANCH  22  30
ENDBRANCH   2  20
TORSDOF 5
ENDMDL
MODEL 3
REMARK VINA RESULT:      -8.6      1.942      2.357
REMARK  Name = 
REMARK  5 active torsions:
REMARK  status: ('A' for Active; 'I' for Inactive)
REMARK    1  A    between atoms: C_2  and  C_18
REMARK    2  A    between atoms: N_3  and  C_4
REMARK    3  A    between atoms: C_9  and  C_10
REMARK    4  A    between atoms: C_20  and  O_21
REMARK    5  A    between atoms: C_24  and  C_25
REMARK                            x       y       z     vdW  Elec       q    Type
REMARK                         _______ _______ _______ _____ _____    ______ ____
ROOT
ATOM      1  O   UNL     1       2.397   6.293  19.789  0.00  0.00    +0.000 OA
ATOM      2  C   UNL     1       2.789   6.773  18.730  0.00  0.00    +0.000 C 
ATOM      3  N   UNL     1       2.318   7.922  18.126  0.00  0.00    +0.000 N 
ATOM      4  H   UNL     1       2.645   8.151  17.196  0.00  0.00    +0.000 HD
ENDROOT
BRANCH   3   5
ATOM      5  C   UNL     1       1.348   8.802  18.666  0.00  0.00    +0.000 A 
ATOM      6  C   UNL     1       0.605   9.694  17.880  0.00  0.00    +0.000 A 
ATOM      7  C   UNL     1      -0.256  10.644  18.441  0.00  0.00    +0.000 A 
ATOM      8  C   UNL     1      -0.335  10.658  19.828  0.00  0.00    +0.000 A 
ATOM      9  N   UNL     1      -0.986  11.483  20.699  0.00  0.00    +0.000 N 
ATOM     10  C   UNL     1      -0.709  11.071  21.978  0.00  0.00    +0.000 A 
ATOM     11  N   UNL     1       0.061   9.999  21.969  0.00  0.00    +0.000 NA
ATOM     12  C   UNL     1       0.327   9.750  20.643  0.00  0.00    +0.000 A 
ATOM     13  C   UNL     1       1.160   8.781  20.058  0.00  0.00    +0.000 A 
ATOM     14  H   UNL     1      -1.534  12.302  20.472  0.00  0.00    +0.000 HD
BRANCH  10  15
ATOM     15  C   UNL     1      -1.225  11.811  23.163  0.00  0.00    +0.000 C 
ATOM     16  C   UNL     1      -2.691  12.183  23.037  0.00  0.00    +0.000 C 
ATOM     17  C   UNL     1      -2.765  13.453  23.842  0.00  0.00    +0.000 C 
ATOM     18  C   UNL     1      -1.435  14.108  23.533  0.00  0.00    +0.000 C 
ATOM     19  O   UNL     1      -0.495  13.056  23.274  0.00  0.00    +0.000 OA
ENDBRANCH  10  15
ENDBRANCH   3   5
BRANCH   2  20
ATOM     20  C   UNL     1       3.797   5.972  17.989  0.00  0.00    +0.000 A 
ATOM     21  C   UNL     1       4.992   6.671  17.706  0.00  0.00    +0.000 A 
ATOM     22  C   UNL     1       5.981   6.093  16.924  0.00  0.00    +0.000 A 
ATOM     23  C   UNL     1       5.816   4.817  16.417  0.00  0.00    +0.000 A 
ATOM     24  C   UNL     1       4.644   4.114  16.696  0.00  0.00    +0.000 A 
ATOM     25  C   UNL     1       3.607   4.676  17.477  0.00  0.00    +0.000 A 
BRANCH  25  26
ATOM     26  C   UNL     1       2.363   3.834  17.636  0.00  0.00    +0.000 C 
ATOM     27  F   UNL     1       1.189   4.426  17.317  0.00  0.00    +0.000 F 
ATOM     28  F   UNL     1       2.418   2.693  16.893  0.00  0.00    +0.000 F 
ATOM     29  F   UNL     1       2.216   3.424  18.929  0.00  0.00    +0.000 F 
ENDBRANCH  25  26
BRANCH  22  30
ATOM     30  O   UNL     1       7.125   6.762  16.613  0.00  0.00    +0.000 OA
ATOM     31  H   UNL     1       7.139   7.608  17.091  0.00  0.00    +0.000 HD
ENDBRANCH  22  30
ENDBRANCH   2  20
TORSDOF 5
ENDMDL
MODEL 4
REMARK VINA RESULT:      -8.6      2.342      2.976
REMARK  Name = 
REMARK  5 active torsions:
REMARK  status: ('A' for Active; 'I' for Inactive)
REMARK    1  A    between atoms: C_2  and  C_18
REMARK    2  A    between atoms: N_3  and  C_4
REMARK    3  A    between atoms: C_9  and  C_10
REMARK    4  A    between atoms: C_20  and  O_21
REMARK    5  A    between atoms: C_24  and  C_25
REMARK                            x       y       z     vdW  Elec       q    Type
REMARK                         _______ _______ _______ _____ _____    ______ ____
ROOT
ATOM      1  O   UNL     1       3.363   5.862  20.039  0.00  0.00    +0.000 OA
ATOM      2  C   UNL     1       3.428   6.306  18.897  0.00  0.00    +0.000 C 
ATOM      3  N   UNL     1       2.754   7.407  18.405  0.00  0.00    +0.000 N 
ATOM      4  H   UNL     1       2.804   7.604  17.414  0.00  0.00    +0.000 HD
ENDROOT
BRANCH   3   5
ATOM      5  C   UNL     1       1.926   8.274  19.158  0.00  0.00    +0.000 A 
ATOM      6  C   UNL     1       1.573   8.025  20.492  0.00  0.00    +0.000 A 
ATOM      7  C   UNL     1       0.655   8.824  21.182  0.00  0.00    +0.000 A 
ATOM      8  C   UNL     1       0.104   9.883  20.471  0.00  0.00    +0.000 A 
ATOM      9  N   UNL     1      -0.865  10.791  20.786  0.00  0.00    +0.000 N 
ATOM     10  C   UNL     1      -1.054  11.616  19.706  0.00  0.00    +0.000 A 
ATOM     11  N   UNL     1      -0.228  11.303  18.726  0.00  0.00    +0.000 NA
ATOM     12  C   UNL     1       0.475  10.209  19.173  0.00  0.00    +0.000 A 
ATOM     13  C   UNL     1       1.426   9.416  18.510  0.00  0.00    +0.000 A 
ATOM     14  H   UNL     1      -1.409  10.834  21.637  0.00  0.00    +0.000 HD
BRANCH  10  15
ATOM     15  C   UNL     1      -2.096  12.680  19.714  0.00  0.00    +0.000 C 
ATOM     16  C   UNL     1      -2.435  13.168  21.110  0.00  0.00    +0.000 C 
ATOM     17  C   UNL     1      -3.878  13.572  20.963  0.00  0.00    +0.000 C 
ATOM     18  C   UNL     1      -4.409  12.526  20.006  0.00  0.00    +0.000 C 
ATOM     19  O   UNL     1      -3.315  12.126  19.167  0.00  0.00    +0.000 OA
ENDBRANCH  10  15
ENDBRANCH   3   5
BRANCH   2  20
ATOM     20  C   UNL     1       4.234   5.509  17.937  0.00  0.00    +0.000 A 
ATOM     21  C   UNL     1       5.453   6.119  17.564  0.00  0.00    +0.000 A 
ATOM     22  C   UNL     1       6.260   5.550  16.591  0.00  0.00    +0.000 A 
ATOM     23  C   UNL     1       5.888   4.368  15.977  0.00  0.00    +0.000 A 
ATOM     24  C   UNL     1       4.691   3.752  16.342  0.00  0.00    +0.000 A 
ATOM     25  C   UNL     1       3.834   4.311  17.319  0.00  0.00    +0.000 A 
BRANCH  25  26
ATOM     26  C   UNL     1       2.535   3.579  17.561  0.00  0.00    +0.000 C 
ATOM     27  F   UNL     1       1.399   4.267  17.303  0.00  0.00    +0.000 F 
ATOM     28  F   UNL     1       2.449   2.432  16.830  0.00  0.00    +0.000 F 
ATOM     29  F   UNL     1       2.430   3.194  18.865  0.00  0.00    +0.000 F 
ENDBRANCH  25  26
BRANCH  22  30
ATOM     30  O   UNL     1       7.423   6.139  16.195  0.00  0.00    +0.000 OA
ATOM     31  H   UNL     1       7.670   5.796  15.319  0.00  0.00    +0.000 HD
ENDBRANCH  22  30
ENDBRANCH   2  20
TORSDOF 5
ENDMDL
MODEL 5
REMARK VINA RESULT:      -8.5      3.325      3.888
REMARK  Name = 
REMARK  5 active torsions:
REMARK  status: ('A' for Active; 'I' for Inactive)
REMARK    1  A    between atoms: C_2  and  C_18
REMARK    2  A    between atoms: N_3  and  C_4
REMARK    3  A    between atoms: C_9  and  C_10
REMARK    4  A    between atoms: C_20  and  O_21
REMARK    5  A    between atoms: C_24  and  C_25
REMARK                            x       y       z     vdW  Elec       q    Type
REMARK                         _______ _______ _______ _____ _____    ______ ____
ROOT
ATOM      1  O   UNL     1       2.078   7.125  19.563  0.00  0.00    +0.000 OA
ATOM      2  C   UNL     1       2.493   7.411  18.444  0.00  0.00    +0.000 C 
ATOM      3  N   UNL     1       2.021   8.418  17.626  0.00  0.00    +0.000 N 
ATOM      4  H   UNL     1       2.371   8.479  16.679  0.00  0.00    +0.000 HD
ENDROOT
BRANCH   3   5
ATOM      5  C   UNL     1       1.021   9.361  17.968  0.00  0.00    +0.000 A 
ATOM      6  C   UNL     1       1.230  10.393  18.893  0.00  0.00    +0.000 A 
ATOM      7  C   UNL     1       0.198  11.238  19.315  0.00  0.00    +0.000 A 
ATOM      8  C   UNL     1      -1.056  10.997  18.768  0.00  0.00    +0.000 A 
ATOM      9  N   UNL     1      -2.281  11.549  19.008  0.00  0.00    +0.000 N 
ATOM     10  C   UNL     1      -3.204  10.924  18.208  0.00  0.00    +0.000 A 
ATOM     11  N   UNL     1      -2.624  10.022  17.440  0.00  0.00    +0.000 NA
ATOM     12  C   UNL     1      -1.296  10.033  17.799  0.00  0.00    +0.000 A 
ATOM     13  C   UNL     1      -0.238   9.218  17.362  0.00  0.00    +0.000 A 
ATOM     14  H   UNL     1      -2.509  12.255  19.696  0.00  0.00    +0.000 HD
BRANCH  10  15
ATOM     15  C   UNL     1      -4.652  11.262  18.282  0.00  0.00    +0.000 C 
ATOM     16  C   UNL     1      -5.159  11.977  17.043  0.00  0.00    +0.000 C 
ATOM     17  C   UNL     1      -6.265  12.833  17.602  0.00  0.00    +0.000 C 
ATOM     18  C   UNL     1      -5.709  13.234  18.952  0.00  0.00    +0.000 C 
ATOM     19  O   UNL     1      -4.850  12.172  19.389  0.00  0.00    +0.000 OA
ENDBRANCH  10  15
ENDBRANCH   3   5
BRANCH   2  20
ATOM     20  C   UNL     1       3.536   6.509  17.890  0.00  0.00    +0.000 A 
ATOM     21  C   UNL     1       4.742   7.163  17.553  0.00  0.00    +0.000 A 
ATOM     22  C   UNL     1       5.767   6.475  16.921  0.00  0.00    +0.000 A 
ATOM     23  C   UNL     1       5.628   5.133  16.621  0.00  0.00    +0.000 A 
ATOM     24  C   UNL     1       4.445   4.474  16.956  0.00  0.00    +0.000 A 
ATOM     25  C   UNL     1       3.371   5.145  17.586  0.00  0.00    +0.000 A 
BRANCH  25  26
ATOM     26  C   UNL     1       2.123   4.329  17.823  0.00  0.00    +0.000 C 
ATOM     27  F   UNL     1       1.804   4.075  19.113  0.00  0.00    +0.000 F 
ATOM     28  F   UNL     1       1.019   4.910  17.274  0.00  0.00    +0.000 F 
ATOM     29  F   UNL     1       2.225   3.103  17.232  0.00  0.00    +0.000 F 
ENDBRANCH  25  26
BRANCH  22  30
ATOM     30  O   UNL     1       6.924   7.095  16.559  0.00  0.00    +0.000 OA
ATOM     31  H   UNL     1       6.730   8.018  16.322  0.00  0.00    +0.000 HD
ENDBRANCH  22  30
ENDBRANCH   2  20
TORSDOF 5
ENDMDL
MODEL 6
REMARK VINA RESULT:      -8.5      2.259      2.834
REMARK  Name = 
REMARK  5 active torsions:
REMARK  status: ('A' for Active; 'I' for Inactive)
REMARK    1  A    between atoms: C_2  and  C_18
REMARK    2  A    between atoms: N_3  and  C_4
REMARK    3  A    between atoms: C_9  and  C_10
REMARK    4  A    between atoms: C_20  and  O_21
REMARK    5  A    between atoms: C_24  and  C_25
REMARK                            x       y       z     vdW  Elec       q    Type
REMARK                         _______ _______ _______ _____ _____    ______ ____
ROOT
ATOM      1  O   UNL     1       2.583   8.217  17.285  0.00  0.00    +0.000 OA
ATOM      2  C   UNL     1       2.841   7.359  18.124  0.00  0.00    +0.000 C 
ATOM      3  N   UNL     1       2.477   7.379  19.456  0.00  0.00    +0.000 N 
ATOM      4  H   UNL     1       2.849   6.668  20.072  0.00  0.00    +0.000 HD
ENDROOT
BRANCH   3   5
ATOM      5  C   UNL     1       1.662   8.358  20.076  0.00  0.00    +0.000 A 
ATOM      6  C   UNL     1       1.416   8.384  21.456  0.00  0.00    +0.000 A 
ATOM      7  C   UNL     1       0.511   9.280  22.036  0.00  0.00    +0.000 A 
ATOM      8  C   UNL     1      -0.139  10.147  21.166  0.00  0.00    +0.000 A 
ATOM      9  N   UNL     1      -1.126  11.069  21.360  0.00  0.00    +0.000 N 
ATOM     10  C   UNL     1      -1.431  11.642  20.151  0.00  0.00    +0.000 A 
ATOM     11  N   UNL     1      -0.661  11.156  19.196  0.00  0.00    +0.000 NA
ATOM     12  C   UNL     1       0.124  10.204  19.804  0.00  0.00    +0.000 A 
ATOM     13  C   UNL     1       1.063   9.320  19.246  0.00  0.00    +0.000 A 
ATOM     14  H   UNL     1      -1.611  11.272  22.224  0.00  0.00    +0.000 HD
BRANCH  10  15
ATOM     15  C   UNL     1      -2.519  12.649  20.021  0.00  0.00    +0.000 C 
ATOM     16  C   UNL     1      -3.297  12.853  21.307  0.00  0.00    +0.000 C 
ATOM     17  C   UNL     1      -4.663  13.228  20.795  0.00  0.00    +0.000 C 
ATOM     18  C   UNL     1      -4.792  12.363  19.559  0.00  0.00    +0.000 C 
ATOM     19  O   UNL     1      -3.469  12.166  19.041  0.00  0.00    +0.000 OA
ENDBRANCH  10  15
ENDBRANCH   3   5
BRANCH   2  20
ATOM     20  C   UNL     1       3.720   6.252  17.670  0.00  0.00    +0.000 A 
ATOM     21  C   UNL     1       4.999   6.673  17.241  0.00  0.00    +0.000 A 
ATOM     22  C   UNL     1       5.891   5.769  16.683  0.00  0.00    +0.000 A 
ATOM     23  C   UNL     1       5.545   4.437  16.548  0.00  0.00    +0.000 A 
ATOM     24  C   UNL     1       4.288   4.008  16.975  0.00  0.00    +0.000 A 
ATOM     25  C   UNL     1       3.346   4.903  17.533  0.00  0.00    +0.000 A 
BRANCH  25  26
ATOM     26  C   UNL     1       1.997   4.318  17.881  0.00  0.00    +0.000 C 
ATOM     27  F   UNL     1       1.613   4.416  19.175  0.00  0.00    +0.000 F 
ATOM     28  F   UNL     1       0.992   4.878  17.151  0.00  0.00    +0.000 F 
ATOM     29  F   UNL     1       1.959   2.984  17.598  0.00  0.00    +0.000 F 
ENDBRANCH  25  26
BRANCH  22  30
ATOM     30  O   UNL     1       7.116   6.160  16.235  0.00  0.00    +0.000 OA
ATOM     31  H   UNL     1       7.026   7.003  15.759  0.00  0.00    +0.000 HD
ENDBRANCH  22  30
ENDBRANCH   2  20
TORSDOF 5
ENDMDL
MODEL 7
REMARK VINA RESULT:      -8.5      2.519      3.237
REMARK  Name = 
REMARK  5 active torsions:
REMARK  status: ('A' for Active; 'I' for Inactive)
REMARK    1  A    between atoms: C_2  and  C_18
REMARK    2  A    between atoms: N_3  and  C_4
REMARK    3  A    between atoms: C_9  and  C_10
REMARK    4  A    between atoms: C_20  and  O_21
REMARK    5  A    between atoms: C_24  and  C_25
REMARK                            x       y       z     vdW  Elec       q    Type
REMARK                         _______ _______ _______ _____ _____    ______ ____
ROOT
ATOM      1  O   UNL     1       4.441   5.883  19.700  0.00  0.00    +0.000 OA
ATOM      2  C   UNL     1       4.006   5.996  18.557  0.00  0.00    +0.000 C 
ATOM      3  N   UNL     1       2.942   6.779  18.158  0.00  0.00    +0.000 N 
ATOM      4  H   UNL     1       2.609   6.697  17.206  0.00  0.00    +0.000 HD
ENDROOT
BRANCH   3   5
ATOM      5  C   UNL     1       2.209   7.663  18.987  0.00  0.00    +0.000 A 
ATOM      6  C   UNL     1       1.886   7.369  20.319  0.00  0.00    +0.000 A 
ATOM      7  C   UNL     1       1.055   8.194  21.085  0.00  0.00    +0.000 A 
ATOM      8  C   UNL     1       0.561   9.328  20.451  0.00  0.00    +0.000 A 
ATOM      9  N   UNL     1      -0.325  10.287  20.850  0.00  0.00    +0.000 N 
ATOM     10  C   UNL     1      -0.490  11.181  19.823  0.00  0.00    +0.000 A 
ATOM     11  N   UNL     1       0.275  10.861  18.796  0.00  0.00    +0.000 NA
ATOM     12  C   UNL     1       0.909   9.695  19.159  0.00  0.00    +0.000 A 
ATOM     13  C   UNL     1       1.773   8.871  18.418  0.00  0.00    +0.000 A 
ATOM     14  H   UNL     1      -0.834  10.323  21.723  0.00  0.00    +0.000 HD
BRANCH  10  15
ATOM     15  C   UNL     1      -1.447  12.316  19.926  0.00  0.00    +0.000 C 
ATOM     16  C   UNL     1      -2.059  12.452  21.308  0.00  0.00    +0.000 C 
ATOM     17  C   UNL     1      -3.409  13.043  20.999  0.00  0.00    +0.000 C 
ATOM     18  C   UNL     1      -3.772  12.356  19.700  0.00  0.00    +0.000 C 
ATOM     19  O   UNL     1      -2.544  12.070  19.015  0.00  0.00    +0.000 OA
ENDBRANCH  10  15
ENDBRANCH   3   5
BRANCH   2  20
ATOM     20  C   UNL     1       4.633   5.117  17.537  0.00  0.00    +0.000 A 
ATOM     21  C   UNL     1       5.764   5.683  16.907  0.00  0.00    +0.000 A 
ATOM     22  C   UNL     1       6.388   5.030  15.854  0.00  0.00    +0.000 A 
ATOM     23  C   UNL     1       5.918   3.807  15.412  0.00  0.00    +0.000 A 
ATOM     24  C   UNL     1       4.807   3.234  16.032  0.00  0.00    +0.000 A 
ATOM     25  C   UNL     1       4.135   3.877  17.097  0.00  0.00    +0.000 A 
BRANCH  25  26
ATOM     26  C   UNL     1       2.903   3.180  17.623  0.00  0.00    +0.000 C 
ATOM     27  F   UNL     1       2.846   2.984  18.961  0.00  0.00    +0.000 F 
ATOM     28  F   UNL     1       1.759   3.844  17.296  0.00  0.00    +0.000 F 
ATOM     29  F   UNL     1       2.776   1.937  17.075  0.00  0.00    +0.000 F 
ENDBRANCH  25  26
BRANCH  22  30
ATOM     30  O   UNL     1       7.459   5.574  15.213  0.00  0.00    +0.000 OA
ATOM     31  H   UNL     1       7.391   6.543  15.247  0.00  0.00    +0.000 HD
ENDBRANCH  22  30
ENDBRANCH   2  20
TORSDOF 5
ENDMDL
MODEL 8
REMARK VINA RESULT:      -8.4      0.800      1.194
REMARK  Name = 
REMARK  5 active torsions:
REMARK  status: ('A' for Active; 'I' for Inactive)
REMARK    1  A    between atoms: C_2  and  C_18
REMARK    2  A    between atoms: N_3  and  C_4
REMARK    3  A    between atoms: C_9  and  C_10
REMARK    4  A    between atoms: C_20  and  O_21
REMARK    5  A    between atoms: C_24  and  C_25
REMARK                            x       y       z     vdW  Elec       q    Type
REMARK                         _______ _______ _______ _____ _____    ______ ____
ROOT
ATOM      1  O   UNL     1       1.921   6.332  17.866  0.00  0.00    +0.000 OA
ATOM      2  C   UNL     1       2.329   6.277  19.022  0.00  0.00    +0.000 C 
ATOM      3  N   UNL     1       2.210   7.262  19.983  0.00  0.00    +0.000 N 
ATOM      4  H   UNL     1       2.689   7.141  20.865  0.00  0.00    +0.000 HD
ENDROOT
BRANCH   3   5
ATOM      5  C   UNL     1       1.516   8.487  19.828  0.00  0.00    +0.000 A 
ATOM      6  C   UNL     1       1.709   9.341  18.733  0.00  0.00    +0.000 A 
ATOM      7  C   UNL     1       1.112  10.604  18.658  0.00  0.00    +0.000 A 
ATOM      8  C   UNL     1       0.314  10.972  19.734  0.00  0.00    +0.000 A 
ATOM      9  N   UNL     1      -0.337  12.134  20.036  0.00  0.00    +0.000 N 
ATOM     10  C   UNL     1      -0.967  11.978  21.245  0.00  0.00    +0.000 A 
ATOM     11  N   UNL     1      -0.781  10.759  21.716  0.00  0.00    +0.000 NA
ATOM     12  C   UNL     1       0.039  10.134  20.805  0.00  0.00    +0.000 A 
ATOM     13  C   UNL     1       0.619   8.855  20.845  0.00  0.00    +0.000 A 
ATOM     14  H   UNL     1      -0.323  12.996  19.508  0.00  0.00    +0.000 HD
BRANCH  10  15
ATOM     15  C   UNL     1      -1.715  13.096  21.881  0.00  0.00    +0.000 C 
ATOM     16  C   UNL     1      -1.171  13.475  23.245  0.00  0.00    +0.000 C 
ATOM     17  C   UNL     1      -2.404  13.975  23.950  0.00  0.00    +0.000 C 
ATOM     18  C   UNL     1      -3.478  13.053  23.414  0.00  0.00    +0.000 C 
ATOM     19  O   UNL     1      -3.081  12.667  22.090  0.00  0.00    +0.000 OA
ENDBRANCH  10  15
ENDBRANCH   3   5
BRANCH   2  20
ATOM     20  C   UNL     1       3.117   5.067  19.374  0.00  0.00    +0.000 A 
ATOM     21  C   UNL     1       4.462   5.113  18.944  0.00  0.00    +0.000 A 
ATOM     22  C   UNL     1       5.292   4.013  19.099  0.00  0.00    +0.000 A 
ATOM     23  C   UNL     1       4.817   2.855  19.688  0.00  0.00    +0.000 A 
ATOM     24  C   UNL     1       3.492   2.801  20.124  0.00  0.00    +0.000 A 
ATOM     25  C   UNL     1       2.612   3.897  19.968  0.00  0.00    +0.000 A 
BRANCH  25  26
ATOM     26  C   UNL     1       1.187   3.673  20.415  0.00  0.00    +0.000 C 
ATOM     27  F   UNL     1       0.473   4.779  20.729  0.00  0.00    +0.000 F 
ATOM     28  F   UNL     1       0.453   3.011  19.477  0.00  0.00    +0.000 F 
ATOM     29  F   UNL     1       1.145   2.893  21.534  0.00  0.00    +0.000 F 
ENDBRANCH  25  26
BRANCH  22  30
ATOM     30  O   UNL     1       6.582   4.025  18.663  0.00  0.00    +0.000 OA
ATOM     31  H   UNL     1       6.590   4.152  17.699  0.00  0.00    +0.000 HD
ENDBRANCH  22  30
ENDBRANCH   2  20
TORSDOF 5
ENDMDL
MODEL 9
REMARK VINA RESULT:      -8.4      3.159      3.627
REMARK  Name = 
REMARK  5 active torsions:
REMARK  status: ('A' for Active; 'I' for Inactive)
REMARK    1  A    between atoms: C_2  and  C_18
REMARK    2  A    between atoms: N_3  and  C_4
REMARK    3  A    between atoms: C_9  and  C_10
REMARK    4  A    between atoms: C_20  and  O_21
REMARK    5  A    between atoms: C_24  and  C_25
REMARK                            x       y       z     vdW  Elec       q    Type
REMARK                         _______ _______ _______ _____ _____    ______ ____
ROOT
ATOM      1  O   UNL     1       2.377   7.170  19.633  0.00  0.00    +0.000 OA
ATOM      2  C   UNL     1       2.680   7.366  18.460  0.00  0.00    +0.000 C 
ATOM      3  N   UNL     1       2.207   8.379  17.649  0.00  0.00    +0.000 N 
ATOM      4  H   UNL     1       2.445   8.366  16.666  0.00  0.00    +0.000 HD
ENDROOT
BRANCH   3   5
ATOM      5  C   UNL     1       1.346   9.429  18.054  0.00  0.00    +0.000 A 
ATOM      6  C   UNL     1      -0.044   9.384  17.885  0.00  0.00    +0.000 A 
ATOM      7  C   UNL     1      -0.867  10.478  18.174  0.00  0.00    +0.000 A 
ATOM      8  C   UNL     1      -0.228  11.622  18.637  0.00  0.00    +0.000 A 
ATOM      9  N   UNL     1      -0.689  12.874  18.926  0.00  0.00    +0.000 N 
ATOM     10  C   UNL     1       0.372  13.646  19.325  0.00  0.00    +0.000 A 
ATOM     11  N   UNL     1       1.487  12.940  19.340  0.00  0.00    +0.000 NA
ATOM     12  C   UNL     1       1.136  11.690  18.885  0.00  0.00    +0.000 A 
ATOM     13  C   UNL     1       1.940  10.568  18.622  0.00  0.00    +0.000 A 
ATOM     14  H   UNL     1      -1.633  13.218  18.815  0.00  0.00    +0.000 HD
BRANCH  10  15
ATOM     15  C   UNL     1       0.204  15.089  19.653  0.00  0.00    +0.000 C 
ATOM     16  C   UNL     1      -1.213  15.443  20.064  0.00  0.00    +0.000 C 
ATOM     17  C   UNL     1      -1.327  16.873  19.604  0.00  0.00    +0.000 C 
ATOM     18  C   UNL     1      -0.526  16.863  18.320  0.00  0.00    +0.000 C 
ATOM     19  O   UNL     1       0.490  15.860  18.462  0.00  0.00    +0.000 OA
ENDBRANCH  10  15
ENDBRANCH   3   5
BRANCH   2  20
ATOM     20  C   UNL     1       3.561   6.344  17.839  0.00  0.00    +0.000 A 
ATOM     21  C   UNL     1       4.805   6.849  17.399  0.00  0.00    +0.000 A 
ATOM     22  C   UNL     1       5.689   6.041  16.699  0.00  0.00    +0.000 A 
ATOM     23  C   UNL     1       5.368   4.723  16.429  0.00  0.00    +0.000 A 
ATOM     24  C   UNL     1       4.146   4.211  16.865  0.00  0.00    +0.000 A 
ATOM     25  C   UNL     1       3.213   5.008  17.567  0.00  0.00    +0.000 A 
BRANCH  25  26
ATOM     26  C   UNL     1       1.899   4.348  17.912  0.00  0.00    +0.000 C 
ATOM     27  F   UNL     1       1.524   4.392  19.211  0.00  0.00    +0.000 F 
ATOM     28  F   UNL     1       0.859   4.876  17.207  0.00  0.00    +0.000 F 
ATOM     29  F   UNL     1       1.924   3.021  17.593  0.00  0.00    +0.000 F 
ENDBRANCH  25  26
BRANCH  22  30
ATOM     30  O   UNL     1       6.879   6.517  16.239  0.00  0.00    +0.000 OA
ATOM     31  H   UNL     1       7.557   5.828  16.339  0.00  0.00    +0.000 HD
ENDBRANCH  22  30
ENDBRANCH   2  20
TORSDOF 5
ENDMDL
