MODEL 1
REMARK VINA RESULT:      -8.7      0.000      0.000
REMARK  Name = 
REMARK  3 active torsions:
REMARK  status: ('A' for Active; 'I' for Inactive)
REMARK    1  A    between atoms: C_14  and  C_15
REMARK    2  A    between atoms: N_22  and  C_23
REMARK    3  A    between atoms: C_23  and  C_24
REMARK                            x       y       z     vdW  Elec       q    Type
REMARK                         _______ _______ _______ _____ _____    ______ ____
ROOT
ATOM      1  O   UNL     1       4.733   7.240  17.438  0.00  0.00    +0.000 OA
ATOM      2  C   UNL     1       5.341   6.233  17.132  0.00  0.00    +0.000 C 
ATOM      3  C   UNL     1       4.729   4.866  16.831  0.00  0.00    +0.000 A 
ATOM      4  O   UNL     1       3.399   4.437  16.944  0.00  0.00    +0.000 OA
ATOM      5  C   UNL     1       3.193   3.628  18.085  0.00  0.00    +0.000 A 
ATOM      6  C   UNL     1       2.046   2.881  18.232  0.00  0.00    +0.000 A 
ATOM      7  C   UNL     1       1.242   3.178  19.322  0.00  0.00    +0.000 A 
ATOM      8  C   UNL     1       1.595   4.254  20.146  0.00  0.00    +0.000 A 
ATOM      9  C   UNL     1       2.905   4.764  20.103  0.00  0.00    +0.000 A 
ATOM     10  C   UNL     1       3.780   4.214  19.184  0.00  0.00    +0.000 A 
ATOM     11  C   UNL     1       5.237   4.402  18.955  0.00  0.00    +0.000 A 
ATOM     12  O   UNL     1       5.925   4.775  19.891  0.00  0.00    +0.000 OA
ATOM     13  C   UNL     1       5.707   4.186  17.455  0.00  0.00    +0.000 A 
ATOM     14  C   UNL     1       6.946   4.731  16.741  0.00  0.00    +0.000 C 
ATOM     15  N   UNL     1       6.790   6.075  17.180  0.00  0.00    +0.000 N 
ENDROOT
BRANCH  14  16
ATOM     16  C   UNL     1       6.761   4.779  15.126  0.00  0.00    +0.000 A 
ATOM     17  C   UNL     1       5.950   3.805  14.468  0.00  0.00    +0.000 A 
ATOM     18  C   UNL     1       6.104   3.510  13.108  0.00  0.00    +0.000 A 
ATOM     19  C   UNL     1       7.041   4.209  12.364  0.00  0.00    +0.000 A 
ATOM     20  F   UNL     1       7.257   3.868  11.084  0.00  0.00    +0.000 F 
ATOM     21  C   UNL     1       7.784   5.228  12.947  0.00  0.00    +0.000 A 
ATOM     22  C   UNL     1       7.634   5.533  14.315  0.00  0.00    +0.000 A 
ENDBRANCH  14  16
BRANCH  15  23
ATOM     23  C   UNL     1       7.646   6.519  18.307  0.00  0.00    +0.000 C 
BRANCH  23  24
ATOM     24  C   UNL     1       8.053   7.985  18.302  0.00  0.00    +0.000 A 
ATOM     25  C   UNL     1       7.562   8.856  17.331  0.00  0.00    +0.000 A 
ATOM     26  C   UNL     1       7.976  10.197  17.318  0.00  0.00    +0.000 A 
ATOM     27  C   UNL     1       8.864  10.676  18.276  0.00  0.00    +0.000 A 
ATOM     28  C   UNL     1       9.337   9.824  19.267  0.00  0.00    +0.000 A 
ATOM     29  C   UNL     1       8.924   8.490  19.280  0.00  0.00    +0.000 A 
ENDBRANCH  23  24
ENDBRANCH  15  23
TORSDOF 3
ENDMDL
MODEL 2
REMARK VINA RESULT:      -8.0      8.233     10.290
REMARK  Name = 
REMARK  3 active torsions:
REMARK  status: ('A' for Active; 'I' for Inactive)
REMARK    1  A    between atoms: C_14  and  C_15
REMARK    2  A    between atoms: N_22  and  C_23
REMARK    3  A    between atoms: C_23  and  C_24
REMARK                            x       y       z     vdW  Elec       q    Type
REMARK                         _______ _______ _______ _____ _____    ______ ____
ROOT
ATOM      1  O   UNL     1       1.564  12.223  18.716  0.00  0.00    +0.000 OA
ATOM      2  C   UNL     1       0.421  11.882  18.952  0.00  0.00    +0.000 C 
ATOM      3  C   UNL     1      -0.767  12.813  19.189  0.00  0.00    +0.000 A 
ATOM      4  O   UNL     1      -0.800  14.211  19.301  0.00  0.00    +0.000 OA
ATOM      5  C   UNL     1      -0.947  14.637  20.641  0.00  0.00    +0.000 A 
ATOM      6  C   UNL     1      -1.280  15.938  20.942  0.00  0.00    +0.000 A 
ATOM      7  C   UNL     1      -0.361  16.663  21.685  0.00  0.00    +0.000 A 
ATOM      8  C   UNL     1       0.865  16.066  22.008  0.00  0.00    +0.000 A 
ATOM      9  C   UNL     1       1.003  14.670  21.921  0.00  0.00    +0.000 A 
ATOM     10  C   UNL     1      -0.075  13.944  21.448  0.00  0.00    +0.000 A 
ATOM     11  C   UNL     1      -0.330  12.482  21.353  0.00  0.00    +0.000 A 
ATOM     12  O   UNL     1       0.262  11.741  22.119  0.00  0.00    +0.000 OA
ATOM     13  C   UNL     1      -1.291  12.051  20.165  0.00  0.00    +0.000 A 
ATOM     14  C   UNL     1      -1.406  10.701  19.454  0.00  0.00    +0.000 C 
ATOM     15  N   UNL     1      -0.009  10.522  19.251  0.00  0.00    +0.000 N 
ENDROOT
BRANCH  14  16
ATOM     16  C   UNL     1      -2.046  10.836  17.965  0.00  0.00    +0.000 A 
ATOM     17  C   UNL     1      -3.283  11.525  17.776  0.00  0.00    +0.000 A 
ATOM     18  C   UNL     1      -4.094  11.296  16.657  0.00  0.00    +0.000 A 
ATOM     19  C   UNL     1      -3.669  10.408  15.681  0.00  0.00    +0.000 A 
ATOM     20  F   UNL     1      -4.482  10.117  14.654  0.00  0.00    +0.000 F 
ATOM     21  C   UNL     1      -2.429   9.790  15.784  0.00  0.00    +0.000 A 
ATOM     22  C   UNL     1      -1.606  10.015  16.907  0.00  0.00    +0.000 A 
ENDBRANCH  14  16
BRANCH  15  23
ATOM     23  C   UNL     1       0.693   9.604  20.181  0.00  0.00    +0.000 C 
BRANCH  23  24
ATOM     24  C   UNL     1       1.572   8.542  19.537  0.00  0.00    +0.000 A 
ATOM     25  C   UNL     1       2.084   8.726  18.253  0.00  0.00    +0.000 A 
ATOM     26  C   UNL     1       2.862   7.720  17.658  0.00  0.00    +0.000 A 
ATOM     27  C   UNL     1       3.142   6.540  18.341  0.00  0.00    +0.000 A 
ATOM     28  C   UNL     1       2.661   6.358  19.633  0.00  0.00    +0.000 A 
ATOM     29  C   UNL     1       1.888   7.360  20.225  0.00  0.00    +0.000 A 
ENDBRANCH  23  24
ENDBRANCH  15  23
TORSDOF 3
ENDMDL
MODEL 3
REMARK VINA RESULT:      -7.7      2.140      4.997
REMARK  Name = 
REMARK  3 active torsions:
REMARK  status: ('A' for Active; 'I' for Inactive)
REMARK    1  A    between atoms: C_14  and  C_15
REMARK    2  A    between atoms: N_22  and  C_23
REMARK    3  A    between atoms: C_23  and  C_24
REMARK                            x       y       z     vdW  Elec       q    Type
REMARK                         _______ _______ _______ _____ _____    ______ ____
ROOT
ATOM      1  O   UNL     1       5.894   3.316  18.982  0.00  0.00    +0.000 OA
ATOM      2  C   UNL     1       5.587   4.308  18.349  0.00  0.00    +0.000 C 
ATOM      3  C   UNL     1       4.561   5.360  18.764  0.00  0.00    +0.000 A 
ATOM      4  O   UNL     1       3.686   5.375  19.859  0.00  0.00    +0.000 OA
ATOM      5  C   UNL     1       2.357   5.070  19.486  0.00  0.00    +0.000 A 
ATOM      6  C   UNL     1       1.305   5.301  20.344  0.00  0.00    +0.000 A 
ATOM      7  C   UNL     1       0.567   4.196  20.742  0.00  0.00    +0.000 A 
ATOM      8  C   UNL     1       0.980   2.925  20.321  0.00  0.00    +0.000 A 
ATOM      9  C   UNL     1       1.862   2.803  19.234  0.00  0.00    +0.000 A 
ATOM     10  C   UNL     1       2.345   3.967  18.664  0.00  0.00    +0.000 A 
ATOM     11  C   UNL     1       3.165   4.218  17.449  0.00  0.00    +0.000 A 
ATOM     12  O   UNL     1       3.137   3.392  16.552  0.00  0.00    +0.000 OA
ATOM     13  C   UNL     1       4.077   5.515  17.519  0.00  0.00    +0.000 A 
ATOM     14  C   UNL     1       5.355   5.842  16.744  0.00  0.00    +0.000 C 
ATOM     15  N   UNL     1       5.993   4.593  16.979  0.00  0.00    +0.000 N 
ENDROOT
BRANCH  14  16
ATOM     16  C   UNL     1       6.276   6.948  17.504  0.00  0.00    +0.000 A 
ATOM     17  C   UNL     1       6.121   8.337  17.206  0.00  0.00    +0.000 A 
ATOM     18  C   UNL     1       7.138   9.265  17.459  0.00  0.00    +0.000 A 
ATOM     19  C   UNL     1       8.315   8.837  18.053  0.00  0.00    +0.000 A 
ATOM     20  F   UNL     1       9.327   9.704  18.213  0.00  0.00    +0.000 F 
ATOM     21  C   UNL     1       8.466   7.512  18.442  0.00  0.00    +0.000 A 
ATOM     22  C   UNL     1       7.446   6.571  18.193  0.00  0.00    +0.000 A 
ENDBRANCH  14  16
BRANCH  15  23
ATOM     23  C   UNL     1       5.966   3.606  15.872  0.00  0.00    +0.000 C 
BRANCH  23  24
ATOM     24  C   UNL     1       6.494   4.089  14.529  0.00  0.00    +0.000 A 
ATOM     25  C   UNL     1       6.000   3.558  13.339  0.00  0.00    +0.000 A 
ATOM     26  C   UNL     1       6.524   3.988  12.109  0.00  0.00    +0.000 A 
ATOM     27  C   UNL     1       7.525   4.953  12.061  0.00  0.00    +0.000 A 
ATOM     28  C   UNL     1       8.004   5.512  13.241  0.00  0.00    +0.000 A 
ATOM     29  C   UNL     1       7.481   5.084  14.464  0.00  0.00    +0.000 A 
ENDBRANCH  23  24
ENDBRANCH  15  23
TORSDOF 3
ENDMDL
MODEL 4
REMARK VINA RESULT:      -7.7      7.739     10.215
REMARK  Name = 
REMARK  3 active torsions:
REMARK  status: ('A' for Active; 'I' for Inactive)
REMARK    1  A    between atoms: C_14  and  C_15
REMARK    2  A    between atoms: N_22  and  C_23
REMARK    3  A    between atoms: C_23  and  C_24
REMARK                            x       y       z     vdW  Elec       q    Type
REMARK                         _______ _______ _______ _____ _____    ______ ____
ROOT
ATOM      1  O   UNL     1       1.670  11.521  17.991  0.00  0.00    +0.000 OA
ATOM      2  C   UNL     1       0.586  11.448  18.536  0.00  0.00    +0.000 C 
ATOM      3  C   UNL     1      -0.436  12.577  18.666  0.00  0.00    +0.000 A 
ATOM      4  O   UNL     1      -0.327  13.928  18.309  0.00  0.00    +0.000 OA
ATOM      5  C   UNL     1      -0.131  14.764  19.433  0.00  0.00    +0.000 A 
ATOM      6  C   UNL     1      -0.278  16.129  19.340  0.00  0.00    +0.000 A 
ATOM      7  C   UNL     1       0.843  16.899  19.614  0.00  0.00    +0.000 A 
ATOM      8  C   UNL     1       2.055  16.251  19.882  0.00  0.00    +0.000 A 
ATOM      9  C   UNL     1       2.054  14.892  20.242  0.00  0.00    +0.000 A 
ATOM     10  C   UNL     1       0.840  14.229  20.248  0.00  0.00    +0.000 A 
ATOM     11  C   UNL     1       0.449  12.865  20.695  0.00  0.00    +0.000 A 
ATOM     12  O   UNL     1       1.135  12.315  21.540  0.00  0.00    +0.000 OA
ATOM     13  C   UNL     1      -0.787  12.241  19.919  0.00  0.00    +0.000 A 
ATOM     14  C   UNL     1      -1.172  10.772  19.734  0.00  0.00    +0.000 C 
ATOM     15  N   UNL     1       0.122  10.329  19.346  0.00  0.00    +0.000 N 
ENDROOT
BRANCH  14  16
ATOM     16  C   UNL     1      -2.119  10.537  18.432  0.00  0.00    +0.000 A 
ATOM     17  C   UNL     1      -1.659   9.730  17.347  0.00  0.00    +0.000 A 
ATOM     18  C   UNL     1      -2.191   9.850  16.058  0.00  0.00    +0.000 A 
ATOM     19  C   UNL     1      -3.223  10.748  15.831  0.00  0.00    +0.000 A 
ATOM     20  F   UNL     1      -3.674  10.933  14.581  0.00  0.00    +0.000 F 
ATOM     21  C   UNL     1      -3.760  11.483  16.880  0.00  0.00    +0.000 A 
ATOM     22  C   UNL     1      -3.231  11.367  18.182  0.00  0.00    +0.000 A 
ENDBRANCH  14  16
BRANCH  15  23
ATOM     23  C   UNL     1       0.938   9.646  20.380  0.00  0.00    +0.000 C 
BRANCH  23  24
ATOM     24  C   UNL     1       1.512   8.291  19.993  0.00  0.00    +0.000 A 
ATOM     25  C   UNL     1       2.124   8.106  18.755  0.00  0.00    +0.000 A 
ATOM     26  C   UNL     1       2.616   6.840  18.398  0.00  0.00    +0.000 A 
ATOM     27  C   UNL     1       2.512   5.764  19.274  0.00  0.00    +0.000 A 
ATOM     28  C   UNL     1       1.930   5.944  20.524  0.00  0.00    +0.000 A 
ATOM     29  C   UNL     1       1.442   7.204  20.879  0.00  0.00    +0.000 A 
ENDBRANCH  23  24
ENDBRANCH  15  23
TORSDOF 3
ENDMDL
MODEL 5
REMARK VINA RESULT:      -7.6     11.074     13.033
REMARK  Name = 
REMARK  3 active torsions:
REMARK  status: ('A' for Active; 'I' for Inactive)
REMARK    1  A    between atoms: C_14  and  C_15
REMARK    2  A    between atoms: N_22  and  C_23
REMARK    3  A    between atoms: C_23  and  C_24
REMARK                            x       y       z     vdW  Elec       q    Type
REMARK                         _______ _______ _______ _____ _____    ______ ____
ROOT
ATOM      1  O   UNL     1      -3.445  14.076  20.427  0.00  0.00    +0.000 OA
ATOM      2  C   UNL     1      -2.833  13.618  21.373  0.00  0.00    +0.000 C 
ATOM      3  C   UNL     1      -3.403  12.711  22.462  0.00  0.00    +0.000 A 
ATOM      4  O   UNL     1      -4.727  12.305  22.687  0.00  0.00    +0.000 OA
ATOM      5  C   UNL     1      -5.322  12.996  23.767  0.00  0.00    +0.000 A 
ATOM      6  C   UNL     1      -6.501  12.561  24.328  0.00  0.00    +0.000 A 
ATOM      7  C   UNL     1      -7.584  13.426  24.261  0.00  0.00    +0.000 A 
ATOM      8  C   UNL     1      -7.438  14.633  23.565  0.00  0.00    +0.000 A 
ATOM      9  C   UNL     1      -6.151  15.124  23.284  0.00  0.00    +0.000 A 
ATOM     10  C   UNL     1      -5.069  14.344  23.653  0.00  0.00    +0.000 A 
ATOM     11  C   UNL     1      -3.604  14.598  23.639  0.00  0.00    +0.000 A 
ATOM     12  O   UNL     1      -3.217  15.753  23.691  0.00  0.00    +0.000 OA
ATOM     13  C   UNL     1      -2.708  13.302  23.450  0.00  0.00    +0.000 A 
ATOM     14  C   UNL     1      -1.279  13.183  22.915  0.00  0.00    +0.000 C 
ATOM     15  N   UNL     1      -1.483  13.998  21.768  0.00  0.00    +0.000 N 
ENDROOT
BRANCH  14  16
ATOM     16  C   UNL     1      -0.953  11.697  22.338  0.00  0.00    +0.000 A 
ATOM     17  C   UNL     1      -1.042  10.559  23.197  0.00  0.00    +0.000 A 
ATOM     18  C   UNL     1      -0.365   9.366  22.917  0.00  0.00    +0.000 A 
ATOM     19  C   UNL     1       0.382   9.267  21.754  0.00  0.00    +0.000 A 
ATOM     20  F   UNL     1       1.106   8.160  21.525  0.00  0.00    +0.000 F 
ATOM     21  C   UNL     1       0.417  10.320  20.847  0.00  0.00    +0.000 A 
ATOM     22  C   UNL     1      -0.264  11.524  21.121  0.00  0.00    +0.000 A 
ENDBRANCH  14  16
BRANCH  15  23
ATOM     23  C   UNL     1      -0.991  15.396  21.840  0.00  0.00    +0.000 C 
BRANCH  23  24
ATOM     24  C   UNL     1      -1.037  16.190  20.543  0.00  0.00    +0.000 A 
ATOM     25  C   UNL     1      -0.187  15.871  19.484  0.00  0.00    +0.000 A 
ATOM     26  C   UNL     1      -0.216  16.637  18.307  0.00  0.00    +0.000 A 
ATOM     27  C   UNL     1      -1.096  17.707  18.177  0.00  0.00    +0.000 A 
ATOM     28  C   UNL     1      -1.968  18.016  19.215  0.00  0.00    +0.000 A 
ATOM     29  C   UNL     1      -1.940  17.252  20.385  0.00  0.00    +0.000 A 
ENDBRANCH  23  24
ENDBRANCH  15  23
TORSDOF 3
ENDMDL
MODEL 6
REMARK VINA RESULT:      -7.6      9.005     10.906
REMARK  Name = 
REMARK  3 active torsions:
REMARK  status: ('A' for Active; 'I' for Inactive)
REMARK    1  A    between atoms: C_14  and  C_15
REMARK    2  A    between atoms: N_22  and  C_23
REMARK    3  A    between atoms: C_23  and  C_24
REMARK                            x       y       z     vdW  Elec       q    Type
REMARK                         _______ _______ _______ _____ _____    ______ ____
ROOT
ATOM      1  O   UNL     1       0.100  13.979  19.963  0.00  0.00    +0.000 OA
ATOM      2  C   UNL     1      -0.643  13.017  19.941  0.00  0.00    +0.000 C 
ATOM      3  C   UNL     1      -2.111  13.003  20.361  0.00  0.00    +0.000 A 
ATOM      4  O   UNL     1      -2.883  14.013  20.953  0.00  0.00    +0.000 OA
ATOM      5  C   UNL     1      -3.090  13.788  22.334  0.00  0.00    +0.000 A 
ATOM      6  C   UNL     1      -4.039  14.495  23.036  0.00  0.00    +0.000 A 
ATOM      7  C   UNL     1      -3.583  15.286  24.081  0.00  0.00    +0.000 A 
ATOM      8  C   UNL     1      -2.203  15.380  24.301  0.00  0.00    +0.000 A 
ATOM      9  C   UNL     1      -1.342  14.418  23.745  0.00  0.00    +0.000 A 
ATOM     10  C   UNL     1      -1.900  13.446  22.934  0.00  0.00    +0.000 A 
ATOM     11  C   UNL     1      -1.333  12.225  22.303  0.00  0.00    +0.000 A 
ATOM     12  O   UNL     1      -0.355  11.710  22.819  0.00  0.00    +0.000 OA
ATOM     13  C   UNL     1      -2.030  11.794  20.945  0.00  0.00    +0.000 A 
ATOM     14  C   UNL     1      -1.473  10.950  19.796  0.00  0.00    +0.000 C 
ATOM     15  N   UNL     1      -0.234  11.640  19.694  0.00  0.00    +0.000 N 
ENDROOT
BRANCH  14  16
ATOM     16  C   UNL     1      -2.242  11.229  18.390  0.00  0.00    +0.000 A 
ATOM     17  C   UNL     1      -3.646  11.494  18.381  0.00  0.00    +0.000 A 
ATOM     18  C   UNL     1      -4.429  11.295  17.237  0.00  0.00    +0.000 A 
ATOM     19  C   UNL     1      -3.823  10.869  16.066  0.00  0.00    +0.000 A 
ATOM     20  F   UNL     1      -4.580  10.589  14.995  0.00  0.00    +0.000 F 
ATOM     21  C   UNL     1      -2.446  10.690  16.010  0.00  0.00    +0.000 A 
ATOM     22  C   UNL     1      -1.651  10.889  17.157  0.00  0.00    +0.000 A 
ENDBRANCH  14  16
BRANCH  15  23
ATOM     23  C   UNL     1       0.950  10.992  20.310  0.00  0.00    +0.000 C 
BRANCH  23  24
ATOM     24  C   UNL     1       1.427   9.705  19.654  0.00  0.00    +0.000 A 
ATOM     25  C   UNL     1       1.547   8.531  20.397  0.00  0.00    +0.000 A 
ATOM     26  C   UNL     1       2.024   7.361  19.785  0.00  0.00    +0.000 A 
ATOM     27  C   UNL     1       2.366   7.352  18.437  0.00  0.00    +0.000 A 
ATOM     28  C   UNL     1       2.222   8.509  17.679  0.00  0.00    +0.000 A 
ATOM     29  C   UNL     1       1.746   9.673  18.288  0.00  0.00    +0.000 A 
ENDBRANCH  23  24
ENDBRANCH  15  23
TORSDOF 3
ENDMDL
MODEL 7
REMARK VINA RESULT:      -7.4      8.232     11.296
REMARK  Name = 
REMARK  3 active torsions:
REMARK  status: ('A' for Active; 'I' for Inactive)
REMARK    1  A    between atoms: C_14  and  C_15
REMARK    2  A    between atoms: N_22  and  C_23
REMARK    3  A    between atoms: C_23  and  C_24
REMARK                            x       y       z     vdW  Elec       q    Type
REMARK                         _______ _______ _______ _____ _____    ______ ____
ROOT
ATOM      1  O   UNL     1       0.645  13.664  21.873  0.00  0.00    +0.000 OA
ATOM      2  C   UNL     1       0.599  12.910  20.920  0.00  0.00    +0.000 C 
ATOM      3  C   UNL     1       1.707  12.688  19.892  0.00  0.00    +0.000 A 
ATOM      4  O   UNL     1       2.933  13.351  19.740  0.00  0.00    +0.000 OA
ATOM      5  C   UNL     1       2.918  14.264  18.661  0.00  0.00    +0.000 A 
ATOM      6  C   UNL     1       4.083  14.805  18.168  0.00  0.00    +0.000 A 
ATOM      7  C   UNL     1       4.217  16.184  18.250  0.00  0.00    +0.000 A 
ATOM      8  C   UNL     1       3.214  16.920  18.891  0.00  0.00    +0.000 A 
ATOM      9  C   UNL     1       1.949  16.342  19.098  0.00  0.00    +0.000 A 
ATOM     10  C   UNL     1       1.772  15.025  18.712  0.00  0.00    +0.000 A 
ATOM     11  C   UNL     1       0.568  14.155  18.654  0.00  0.00    +0.000 A 
ATOM     12  O   UNL     1      -0.524  14.687  18.541  0.00  0.00    +0.000 OA
ATOM     13  C   UNL     1       0.857  12.607  18.854  0.00  0.00    +0.000 A 
ATOM     14  C   UNL     1      -0.086  11.501  19.330  0.00  0.00    +0.000 C 
ATOM     15  N   UNL     1      -0.592  12.212  20.453  0.00  0.00    +0.000 N 
ENDROOT
BRANCH  14  16
ATOM     16  C   UNL     1       0.714  10.227  19.949  0.00  0.00    +0.000 A 
ATOM     17  C   UNL     1       1.526   9.410  19.103  0.00  0.00    +0.000 A 
ATOM     18  C   UNL     1       1.859   8.093  19.444  0.00  0.00    +0.000 A 
ATOM     19  C   UNL     1       1.425   7.576  20.654  0.00  0.00    +0.000 A 
ATOM     20  F   UNL     1       1.663   6.288  20.945  0.00  0.00    +0.000 F 
ATOM     21  C   UNL     1       0.713   8.370  21.545  0.00  0.00    +0.000 A 
ATOM     22  C   UNL     1       0.375   9.697  21.210  0.00  0.00    +0.000 A 
ENDBRANCH  14  16
BRANCH  15  23
ATOM     23  C   UNL     1      -1.929  12.837  20.307  0.00  0.00    +0.000 C 
BRANCH  23  24
ATOM     24  C   UNL     1      -2.836  12.773  21.527  0.00  0.00    +0.000 A 
ATOM     25  C   UNL     1      -4.128  13.295  21.480  0.00  0.00    +0.000 A 
ATOM     26  C   UNL     1      -4.940  13.262  22.625  0.00  0.00    +0.000 A 
ATOM     27  C   UNL     1      -4.475  12.699  23.809  0.00  0.00    +0.000 A 
ATOM     28  C   UNL     1      -3.199  12.148  23.859  0.00  0.00    +0.000 A 
ATOM     29  C   UNL     1      -2.392  12.181  22.719  0.00  0.00    +0.000 A 
ENDBRANCH  23  24
ENDBRANCH  15  23
TORSDOF 3
ENDMDL
MODEL 8
REMARK VINA RESULT:      -7.4     10.668     12.657
REMARK  Name = 
REMARK  3 active torsions:
REMARK  status: ('A' for Active; 'I' for Inactive)
REMARK    1  A    between atoms: C_14  and  C_15
REMARK    2  A    between atoms: N_22  and  C_23
REMARK    3  A    between atoms: C_23  and  C_24
REMARK                            x       y       z     vdW  Elec       q    Type
REMARK                         _______ _______ _______ _____ _____    ______ ____
ROOT
ATOM      1  O   UNL     1      -3.416  14.024  20.427  0.00  0.00    +0.000 OA
ATOM      2  C   UNL     1      -2.814  13.554  21.373  0.00  0.00    +0.000 C 
ATOM      3  C   UNL     1      -3.402  12.653  22.457  0.00  0.00    +0.000 A 
ATOM      4  O   UNL     1      -4.732  12.266  22.676  0.00  0.00    +0.000 OA
ATOM      5  C   UNL     1      -5.321  12.963  23.756  0.00  0.00    +0.000 A 
ATOM      6  C   UNL     1      -6.508  12.544  24.312  0.00  0.00    +0.000 A 
ATOM      7  C   UNL     1      -7.577  13.426  24.243  0.00  0.00    +0.000 A 
ATOM      8  C   UNL     1      -7.410  14.633  23.552  0.00  0.00    +0.000 A 
ATOM      9  C   UNL     1      -6.115  15.104  23.277  0.00  0.00    +0.000 A 
ATOM     10  C   UNL     1      -5.047  14.307  23.647  0.00  0.00    +0.000 A 
ATOM     11  C   UNL     1      -3.578  14.538  23.639  0.00  0.00    +0.000 A 
ATOM     12  O   UNL     1      -3.174  15.688  23.695  0.00  0.00    +0.000 OA
ATOM     13  C   UNL     1      -2.701  13.229  23.449  0.00  0.00    +0.000 A 
ATOM     14  C   UNL     1      -1.272  13.090  22.919  0.00  0.00    +0.000 C 
ATOM     15  N   UNL     1      -1.459  13.912  21.773  0.00  0.00    +0.000 N 
ENDROOT
BRANCH  14  16
ATOM     16  C   UNL     1      -0.967  11.601  22.339  0.00  0.00    +0.000 A 
ATOM     17  C   UNL     1      -1.051  10.465  23.201  0.00  0.00    +0.000 A 
ATOM     18  C   UNL     1      -0.387   9.266  22.912  0.00  0.00    +0.000 A 
ATOM     19  C   UNL     1       0.340   9.160  21.736  0.00  0.00    +0.000 A 
ATOM     20  F   UNL     1       1.051   8.048  21.498  0.00  0.00    +0.000 F 
ATOM     21  C   UNL     1       0.368  10.212  20.828  0.00  0.00    +0.000 A 
ATOM     22  C   UNL     1      -0.299  11.421  21.111  0.00  0.00    +0.000 A 
ENDBRANCH  14  16
BRANCH  15  23
ATOM     23  C   UNL     1      -0.946  15.301  21.851  0.00  0.00    +0.000 C 
BRANCH  23  24
ATOM     24  C   UNL     1      -0.056  15.752  20.703  0.00  0.00    +0.000 A 
ATOM     25  C   UNL     1       0.182  17.108  20.479  0.00  0.00    +0.000 A 
ATOM     26  C   UNL     1       0.976  17.509  19.392  0.00  0.00    +0.000 A 
ATOM     27  C   UNL     1       1.543  16.567  18.539  0.00  0.00    +0.000 A 
ATOM     28  C   UNL     1       1.336  15.212  18.771  0.00  0.00    +0.000 A 
ATOM     29  C   UNL     1       0.547  14.813  19.853  0.00  0.00    +0.000 A 
ENDBRANCH  23  24
ENDBRANCH  15  23
TORSDOF 3
ENDMDL
MODEL 9
REMARK VINA RESULT:      -7.4      9.542     12.719
REMARK  Name = 
REMARK  3 active torsions:
REMARK  status: ('A' for Active; 'I' for Inactive)
REMARK    1  A    between atoms: C_14  and  C_15
REMARK    2  A    between atoms: N_22  and  C_23
REMARK    3  A    between atoms: C_23  and  C_24
REMARK                            x       y       z     vdW  Elec       q    Type
REMARK                         _______ _______ _______ _____ _____    ______ ____
ROOT
ATOM      1  O   UNL     1      -1.038  13.848  18.674  0.00  0.00    +0.000 OA
ATOM      2  C   UNL     1      -1.083  13.232  19.721  0.00  0.00    +0.000 C 
ATOM      3  C   UNL     1      -0.401  13.627  21.030  0.00  0.00    +0.000 A 
ATOM      4  O   UNL     1       0.490  14.677  21.293  0.00  0.00    +0.000 OA
ATOM      5  C   UNL     1       1.826  14.227  21.412  0.00  0.00    +0.000 A 
ATOM      6  C   UNL     1       2.806  15.037  21.940  0.00  0.00    +0.000 A 
ATOM      7  C   UNL     1       3.865  15.362  21.105  0.00  0.00    +0.000 A 
ATOM      8  C   UNL     1       3.833  14.923  19.775  0.00  0.00    +0.000 A 
ATOM      9  C   UNL     1       2.967  13.879  19.407  0.00  0.00    +0.000 A 
ATOM     10  C   UNL     1       2.122  13.370  20.377  0.00  0.00    +0.000 A 
ATOM     11  C   UNL     1       1.196  12.207  20.385  0.00  0.00    +0.000 A 
ATOM     12  O   UNL     1       1.421  11.284  19.620  0.00  0.00    +0.000 OA
ATOM     13  C   UNL     1      -0.060  12.365  21.343  0.00  0.00    +0.000 A 
ATOM     14  C   UNL     1      -1.420  11.667  21.277  0.00  0.00    +0.000 C 
ATOM     15  N   UNL     1      -1.636  11.894  19.890  0.00  0.00    +0.000 N 
ENDROOT
BRANCH  14  16
ATOM     16  C   UNL     1      -2.586  12.508  22.039  0.00  0.00    +0.000 A 
ATOM     17  C   UNL     1      -2.574  12.622  23.463  0.00  0.00    +0.000 A 
ATOM     18  C   UNL     1      -3.732  12.918  24.192  0.00  0.00    +0.000 A 
ATOM     19  C   UNL     1      -4.920  13.148  23.515  0.00  0.00    +0.000 A 
ATOM     20  F   UNL     1      -6.050  13.341  24.211  0.00  0.00    +0.000 F 
ATOM     21  C   UNL     1      -4.951  13.137  22.126  0.00  0.00    +0.000 A 
ATOM     22  C   UNL     1      -3.789  12.842  21.384  0.00  0.00    +0.000 A 
ENDBRANCH  14  16
BRANCH  15  23
ATOM     23  C   UNL     1      -1.375  10.757  18.974  0.00  0.00    +0.000 C 
BRANCH  23  24
ATOM     24  C   UNL     1      -2.273  10.662  17.750  0.00  0.00    +0.000 A 
ATOM     25  C   UNL     1      -1.920   9.854  16.670  0.00  0.00    +0.000 A 
ATOM     26  C   UNL     1      -2.741   9.807  15.532  0.00  0.00    +0.000 A 
ATOM     27  C   UNL     1      -3.917  10.548  15.472  0.00  0.00    +0.000 A 
ATOM     28  C   UNL     1      -4.294  11.335  16.555  0.00  0.00    +0.000 A 
ATOM     29  C   UNL     1      -3.477  11.381  17.687  0.00  0.00    +0.000 A 
ENDBRANCH  23  24
ENDBRANCH  15  23
TORSDOF 3
ENDMDL
