MODEL 1
REMARK VINA RESULT:      -8.4      0.000      0.000
REMARK  Name = 
REMARK  5 active torsions:
REMARK  status: ('A' for Active; 'I' for Inactive)
REMARK    1  A    between atoms: C_2  and  C_3
REMARK    2  A    between atoms: C_3  and  N_4
REMARK    3  A    between atoms: C_5  and  C_6
REMARK    4  A    between atoms: N_18  and  C_19
REMARK    5  A    between atoms: C_23  and  N_24
REMARK                            x       y       z     vdW  Elec       q    Type
REMARK                         _______ _______ _______ _____ _____    ______ ____
ROOT
ATOM      1  O   UNL     1       2.342   7.492  19.701  0.00  0.00    +0.000 OA
ATOM      2  C   UNL     1       2.361   7.389  18.479  0.00  0.00    +0.000 C 
ATOM      3  N   UNL     1       1.861   8.347  17.598  0.00  0.00    +0.000 N 
ATOM      4  H   UNL     1       1.672   8.054  16.649  0.00  0.00    +0.000 HD
ENDROOT
BRANCH   3   5
ATOM      5  C   UNL     1       1.376   9.623  17.963  0.00  0.00    +0.000 A 
ATOM      6  C   UNL     1       2.198  10.630  18.465  0.00  0.00    +0.000 A 
ATOM      7  C   UNL     1       1.654  11.856  18.835  0.00  0.00    +0.000 A 
ATOM      8  C   UNL     1       0.281  12.078  18.724  0.00  0.00    +0.000 A 
ATOM      9  C   UNL     1      -0.573  11.091  18.220  0.00  0.00    +0.000 A 
ATOM     10  C   UNL     1       0.002   9.875  17.805  0.00  0.00    +0.000 A 
BRANCH   9  11
ATOM     11  N   UNL     1      -1.980  11.296  18.154  0.00  0.00    +0.000 N 
ATOM     12  C   UNL     1      -2.733  11.918  19.215  0.00  0.00    +0.000 C 
ATOM     13  C   UNL     1      -4.181  11.660  18.849  0.00  0.00    +0.000 C 
ATOM     14  C   UNL     1      -4.163  11.631  17.335  0.00  0.00    +0.000 C 
ATOM     15  C   UNL     1      -2.781  11.118  17.012  0.00  0.00    +0.000 C 
ATOM     16  O   UNL     1      -2.473  10.707  15.904  0.00  0.00    +0.000 OA
ENDBRANCH   9  11
ENDBRANCH   3   5
BRANCH   2  17
ATOM     17  C   UNL     1       2.932   6.171  17.771  0.00  0.00    +0.000 C 
BRANCH  17  18
ATOM     18  N   UNL     1       4.141   5.666  18.397  0.00  0.00    +0.000 N 
ATOM     19  C   UNL     1       4.223   4.689  19.364  0.00  0.00    +0.000 A 
ATOM     20  N   UNL     1       5.455   4.590  19.828  0.00  0.00    +0.000 NA
ATOM     21  C   UNL     1       6.198   5.492  19.111  0.00  0.00    +0.000 A 
ATOM     22  C   UNL     1       7.568   5.783  19.199  0.00  0.00    +0.000 A 
ATOM     23  C   UNL     1       8.108   6.757  18.350  0.00  0.00    +0.000 A 
ATOM     24  C   UNL     1       7.300   7.425  17.430  0.00  0.00    +0.000 A 
ATOM     25  C   UNL     1       5.930   7.148  17.331  0.00  0.00    +0.000 A 
ATOM     26  C   UNL     1       5.408   6.176  18.193  0.00  0.00    +0.000 A 
BRANCH  19  27
ATOM     27  C   UNL     1       3.101   3.818  19.848  0.00  0.00    +0.000 A 
ATOM     28  C   UNL     1       2.524   3.979  21.094  0.00  0.00    +0.000 A 
ATOM     29  S   UNL     1       1.363   2.747  21.364  0.00  0.00    +0.000 S 
ATOM     30  C   UNL     1       1.707   2.115  19.807  0.00  0.00    +0.000 A 
ATOM     31  N   UNL     1       2.578   2.786  19.088  0.00  0.00    +0.000 NA
ENDBRANCH  19  27
ENDBRANCH  17  18
ENDBRANCH   2  17
TORSDOF 5
ENDMDL
MODEL 2
REMARK VINA RESULT:      -8.3      2.133      2.553
REMARK  Name = 
REMARK  5 active torsions:
REMARK  status: ('A' for Active; 'I' for Inactive)
REMARK    1  A    between atoms: C_2  and  C_3
REMARK    2  A    between atoms: C_3  and  N_4
REMARK    3  A    between atoms: C_5  and  C_6
REMARK    4  A    between atoms: N_18  and  C_19
REMARK    5  A    between atoms: C_23  and  N_24
REMARK                            x       y       z     vdW  Elec       q    Type
REMARK                         _______ _______ _______ _____ _____    ______ ____
ROOT
ATOM      1  O   UNL     1       2.383   7.598  19.845  0.00  0.00    +0.000 OA
ATOM      2  C   UNL     1       2.357   7.618  18.619  0.00  0.00    +0.000 C 
ATOM      3  N   UNL     1       1.996   8.727  17.855  0.00  0.00    +0.000 N 
ATOM      4  H   UNL     1       1.742   8.565  16.890  0.00  0.00    +0.000 HD
ENDROOT
BRANCH   3   5
ATOM      5  C   UNL     1       1.729  10.019  18.361  0.00  0.00    +0.000 A 
ATOM      6  C   UNL     1       2.381  11.162  17.901  0.00  0.00    +0.000 A 
ATOM      7  C   UNL     1       2.095  12.403  18.461  0.00  0.00    +0.000 A 
ATOM      8  C   UNL     1       1.167  12.508  19.498  0.00  0.00    +0.000 A 
ATOM      9  C   UNL     1       0.490  11.383  19.981  0.00  0.00    +0.000 A 
ATOM     10  C   UNL     1       0.756  10.144  19.368  0.00  0.00    +0.000 A 
BRANCH   9  11
ATOM     11  N   UNL     1      -0.419  11.479  21.072  0.00  0.00    +0.000 N 
ATOM     12  C   UNL     1      -1.742  12.041  20.943  0.00  0.00    +0.000 C 
ATOM     13  C   UNL     1      -2.219  12.209  22.371  0.00  0.00    +0.000 C 
ATOM     14  C   UNL     1      -1.531  11.080  23.110  0.00  0.00    +0.000 C 
ATOM     15  C   UNL     1      -0.250  10.886  22.334  0.00  0.00    +0.000 C 
ATOM     16  O   UNL     1       0.693  10.244  22.771  0.00  0.00    +0.000 OA
ENDBRANCH   9  11
ENDBRANCH   3   5
BRANCH   2  17
ATOM     17  C   UNL     1       2.711   6.404  17.775  0.00  0.00    +0.000 C 
BRANCH  17  18
ATOM     18  N   UNL     1       3.904   5.719  18.238  0.00  0.00    +0.000 N 
ATOM     19  C   UNL     1       3.955   4.585  19.018  0.00  0.00    +0.000 A 
ATOM     20  N   UNL     1       5.195   4.327  19.390  0.00  0.00    +0.000 NA
ATOM     21  C   UNL     1       5.972   5.289  18.798  0.00  0.00    +0.000 A 
ATOM     22  C   UNL     1       7.362   5.470  18.859  0.00  0.00    +0.000 A 
ATOM     23  C   UNL     1       7.935   6.540  18.161  0.00  0.00    +0.000 A 
ATOM     24  C   UNL     1       7.141   7.410  17.415  0.00  0.00    +0.000 A 
ATOM     25  C   UNL     1       5.751   7.245  17.345  0.00  0.00    +0.000 A 
ATOM     26  C   UNL     1       5.196   6.173  18.056  0.00  0.00    +0.000 A 
BRANCH  19  27
ATOM     27  C   UNL     1       2.793   3.719  19.407  0.00  0.00    +0.000 A 
ATOM     28  C   UNL     1       2.168   2.875  18.510  0.00  0.00    +0.000 A 
ATOM     29  S   UNL     1       0.814   2.130  19.254  0.00  0.00    +0.000 S 
ATOM     30  C   UNL     1       1.177   2.973  20.703  0.00  0.00    +0.000 A 
ATOM     31  N   UNL     1       2.259   3.718  20.684  0.00  0.00    +0.000 NA
ENDBRANCH  19  27
ENDBRANCH  17  18
ENDBRANCH   2  17
TORSDOF 5
ENDMDL
MODEL 3
REMARK VINA RESULT:      -8.3      2.070      3.534
REMARK  Name = 
REMARK  5 active torsions:
REMARK  status: ('A' for Active; 'I' for Inactive)
REMARK    1  A    between atoms: C_2  and  C_3
REMARK    2  A    between atoms: C_3  and  N_4
REMARK    3  A    between atoms: C_5  and  C_6
REMARK    4  A    between atoms: N_18  and  C_19
REMARK    5  A    between atoms: C_23  and  N_24
REMARK                            x       y       z     vdW  Elec       q    Type
REMARK                         _______ _______ _______ _____ _____    ______ ____
ROOT
ATOM      1  O   UNL     1       2.355   7.474  19.556  0.00  0.00    +0.000 OA
ATOM      2  C   UNL     1       2.414   7.556  18.333  0.00  0.00    +0.000 C 
ATOM      3  N   UNL     1       1.867   8.597  17.584  0.00  0.00    +0.000 N 
ATOM      4  H   UNL     1       1.727   8.438  16.596  0.00  0.00    +0.000 HD
ENDROOT
BRANCH   3   5
ATOM      5  C   UNL     1       1.277   9.767  18.116  0.00  0.00    +0.000 A 
ATOM      6  C   UNL     1      -0.090   9.883  18.357  0.00  0.00    +0.000 A 
ATOM      7  C   UNL     1      -0.614  11.073  18.854  0.00  0.00    +0.000 A 
ATOM      8  C   UNL     1       0.224  12.162  19.095  0.00  0.00    +0.000 A 
ATOM      9  C   UNL     1       1.602  12.080  18.868  0.00  0.00    +0.000 A 
ATOM     10  C   UNL     1       2.120  10.852  18.413  0.00  0.00    +0.000 A 
BRANCH   9  11
ATOM     11  N   UNL     1       2.452  13.205  19.065  0.00  0.00    +0.000 N 
ATOM     12  C   UNL     1       2.859  14.078  17.991  0.00  0.00    +0.000 C 
ATOM     13  C   UNL     1       3.961  14.925  18.593  0.00  0.00    +0.000 C 
ATOM     14  C   UNL     1       3.573  15.025  20.053  0.00  0.00    +0.000 C 
ATOM     15  C   UNL     1       2.841  13.730  20.309  0.00  0.00    +0.000 C 
ATOM     16  O   UNL     1       2.601  13.320  21.434  0.00  0.00    +0.000 OA
ENDBRANCH   9  11
ENDBRANCH   3   5
BRANCH   2  17
ATOM     17  C   UNL     1       3.094   6.502  17.475  0.00  0.00    +0.000 C 
BRANCH  17  18
ATOM     18  N   UNL     1       4.203   5.850  18.150  0.00  0.00    +0.000 N 
ATOM     19  C   UNL     1       4.130   4.781  19.015  0.00  0.00    +0.000 A 
ATOM     20  N   UNL     1       5.304   4.547  19.572  0.00  0.00    +0.000 NA
ATOM     21  C   UNL     1       6.168   5.457  19.020  0.00  0.00    +0.000 A 
ATOM     22  C   UNL     1       7.539   5.637  19.257  0.00  0.00    +0.000 A 
ATOM     23  C   UNL     1       8.218   6.646  18.565  0.00  0.00    +0.000 A 
ATOM     24  C   UNL     1       7.546   7.458  17.652  0.00  0.00    +0.000 A 
ATOM     25  C   UNL     1       6.177   7.294  17.404  0.00  0.00    +0.000 A 
ATOM     26  C   UNL     1       5.514   6.283  18.112  0.00  0.00    +0.000 A 
BRANCH  19  27
ATOM     27  C   UNL     1       2.913   3.952  19.305  0.00  0.00    +0.000 A 
ATOM     28  C   UNL     1       2.484   2.947  18.460  0.00  0.00    +0.000 A 
ATOM     29  S   UNL     1       1.007   2.292  19.034  0.00  0.00    +0.000 S 
ATOM     30  C   UNL     1       1.067   3.379  20.359  0.00  0.00    +0.000 A 
ATOM     31  N   UNL     1       2.130   4.148  20.429  0.00  0.00    +0.000 NA
ENDBRANCH  19  27
ENDBRANCH  17  18
ENDBRANCH   2  17
TORSDOF 5
ENDMDL
MODEL 4
REMARK VINA RESULT:      -8.2      1.853      2.172
REMARK  Name = 
REMARK  5 active torsions:
REMARK  status: ('A' for Active; 'I' for Inactive)
REMARK    1  A    between atoms: C_2  and  C_3
REMARK    2  A    between atoms: C_3  and  N_4
REMARK    3  A    between atoms: C_5  and  C_6
REMARK    4  A    between atoms: N_18  and  C_19
REMARK    5  A    between atoms: C_23  and  N_24
REMARK                            x       y       z     vdW  Elec       q    Type
REMARK                         _______ _______ _______ _____ _____    ______ ____
ROOT
ATOM      1  O   UNL     1       2.257   7.491  19.890  0.00  0.00    +0.000 OA
ATOM      2  C   UNL     1       2.410   7.522  18.673  0.00  0.00    +0.000 C 
ATOM      3  N   UNL     1       2.153   8.635  17.873  0.00  0.00    +0.000 N 
ATOM      4  H   UNL     1       2.043   8.481  16.881  0.00  0.00    +0.000 HD
ENDROOT
BRANCH   3   5
ATOM      5  C   UNL     1       1.804   9.921  18.346  0.00  0.00    +0.000 A 
ATOM      6  C   UNL     1       2.358  11.092  17.833  0.00  0.00    +0.000 A 
ATOM      7  C   UNL     1       1.995  12.327  18.362  0.00  0.00    +0.000 A 
ATOM      8  C   UNL     1       1.088  12.398  19.420  0.00  0.00    +0.000 A 
ATOM      9  C   UNL     1       0.509  11.243  19.957  0.00  0.00    +0.000 A 
ATOM     10  C   UNL     1       0.851  10.007  19.376  0.00  0.00    +0.000 A 
BRANCH   9  11
ATOM     11  N   UNL     1      -0.376  11.310  21.069  0.00  0.00    +0.000 N 
ATOM     12  C   UNL     1      -0.052  10.761  22.363  0.00  0.00    +0.000 C 
ATOM     13  C   UNL     1      -1.362  10.793  23.123  0.00  0.00    +0.000 C 
ATOM     14  C   UNL     1      -2.077  11.997  22.546  0.00  0.00    +0.000 C 
ATOM     15  C   UNL     1      -1.562  12.062  21.129  0.00  0.00    +0.000 C 
ATOM     16  O   UNL     1      -2.097  12.738  20.264  0.00  0.00    +0.000 OA
ENDBRANCH   9  11
ENDBRANCH   3   5
BRANCH   2  17
ATOM     17  C   UNL     1       2.892   6.320  17.879  0.00  0.00    +0.000 C 
BRANCH  17  18
ATOM     18  N   UNL     1       4.110   5.737  18.415  0.00  0.00    +0.000 N 
ATOM     19  C   UNL     1       4.201   4.704  19.322  0.00  0.00    +0.000 A 
ATOM     20  N   UNL     1       5.450   4.537  19.717  0.00  0.00    +0.000 NA
ATOM     21  C   UNL     1       6.192   5.452  19.016  0.00  0.00    +0.000 A 
ATOM     22  C   UNL     1       7.573   5.690  19.051  0.00  0.00    +0.000 A 
ATOM     23  C   UNL     1       8.108   6.692  18.232  0.00  0.00    +0.000 A 
ATOM     24  C   UNL     1       7.283   7.439  17.392  0.00  0.00    +0.000 A 
ATOM     25  C   UNL     1       5.900   7.216  17.346  0.00  0.00    +0.000 A 
ATOM     26  C   UNL     1       5.384   6.214  18.178  0.00  0.00    +0.000 A 
BRANCH  19  27
ATOM     27  C   UNL     1       3.072   3.847  19.812  0.00  0.00    +0.000 A 
ATOM     28  C   UNL     1       2.544   3.975  21.082  0.00  0.00    +0.000 A 
ATOM     29  S   UNL     1       1.357   2.766  21.347  0.00  0.00    +0.000 S 
ATOM     30  C   UNL     1       1.629   2.185  19.756  0.00  0.00    +0.000 A 
ATOM     31  N   UNL     1       2.494   2.860  19.033  0.00  0.00    +0.000 NA
ENDBRANCH  19  27
ENDBRANCH  17  18
ENDBRANCH   2  17
TORSDOF 5
ENDMDL
MODEL 5
REMARK VINA RESULT:      -8.2      1.767      2.359
REMARK  Name = 
REMARK  5 active torsions:
REMARK  status: ('A' for Active; 'I' for Inactive)
REMARK    1  A    between atoms: C_2  and  C_3
REMARK    2  A    between atoms: C_3  and  N_4
REMARK    3  A    between atoms: C_5  and  C_6
REMARK    4  A    between atoms: N_18  and  C_19
REMARK    5  A    between atoms: C_23  and  N_24
REMARK                            x       y       z     vdW  Elec       q    Type
REMARK                         _______ _______ _______ _____ _____    ______ ____
ROOT
ATOM      1  O   UNL     1       2.571   8.510  17.614  0.00  0.00    +0.000 OA
ATOM      2  C   UNL     1       2.559   7.459  18.248  0.00  0.00    +0.000 C 
ATOM      3  N   UNL     1       2.104   7.333  19.560  0.00  0.00    +0.000 N 
ATOM      4  H   UNL     1       2.388   6.511  20.075  0.00  0.00    +0.000 HD
ENDROOT
BRANCH   3   5
ATOM      5  C   UNL     1       1.478   8.353  20.311  0.00  0.00    +0.000 A 
ATOM      6  C   UNL     1       1.030   8.165  21.618  0.00  0.00    +0.000 A 
ATOM      7  C   UNL     1       0.394   9.201  22.294  0.00  0.00    +0.000 A 
ATOM      8  C   UNL     1       0.182  10.427  21.663  0.00  0.00    +0.000 A 
ATOM      9  C   UNL     1       0.622  10.652  20.354  0.00  0.00    +0.000 A 
ATOM     10  C   UNL     1       1.308   9.610  19.703  0.00  0.00    +0.000 A 
BRANCH   9  11
ATOM     11  N   UNL     1       0.364  11.884  19.690  0.00  0.00    +0.000 N 
ATOM     12  C   UNL     1       1.295  12.986  19.689  0.00  0.00    +0.000 C 
ATOM     13  C   UNL     1       0.500  14.151  19.137  0.00  0.00    +0.000 C 
ATOM     14  C   UNL     1      -0.481  13.492  18.189  0.00  0.00    +0.000 C 
ATOM     15  C   UNL     1      -0.700  12.131  18.805  0.00  0.00    +0.000 C 
ATOM     16  O   UNL     1      -1.624  11.401  18.479  0.00  0.00    +0.000 OA
ENDBRANCH   9  11
ENDBRANCH   3   5
BRANCH   2  17
ATOM     17  C   UNL     1       3.064   6.149  17.667  0.00  0.00    +0.000 C 
BRANCH  17  18
ATOM     18  N   UNL     1       4.250   5.649  18.339  0.00  0.00    +0.000 N 
ATOM     19  C   UNL     1       4.299   4.677  19.313  0.00  0.00    +0.000 A 
ATOM     20  N   UNL     1       5.514   4.584  19.821  0.00  0.00    +0.000 NA
ATOM     21  C   UNL     1       6.281   5.485  19.128  0.00  0.00    +0.000 A 
ATOM     22  C   UNL     1       7.646   5.780  19.265  0.00  0.00    +0.000 A 
ATOM     23  C   UNL     1       8.213   6.752  18.433  0.00  0.00    +0.000 A 
ATOM     24  C   UNL     1       7.438   7.414  17.481  0.00  0.00    +0.000 A 
ATOM     25  C   UNL     1       6.074   7.133  17.333  0.00  0.00    +0.000 A 
ATOM     26  C   UNL     1       5.523   6.162  18.179  0.00  0.00    +0.000 A 
BRANCH  19  27
ATOM     27  C   UNL     1       3.163   3.805  19.759  0.00  0.00    +0.000 A 
ATOM     28  C   UNL     1       2.529   3.981  20.974  0.00  0.00    +0.000 A 
ATOM     29  S   UNL     1       1.365   2.744  21.211  0.00  0.00    +0.000 S 
ATOM     30  C   UNL     1       1.785   2.090  19.682  0.00  0.00    +0.000 A 
ATOM     31  N   UNL     1       2.683   2.757  18.993  0.00  0.00    +0.000 NA
ENDBRANCH  19  27
ENDBRANCH  17  18
ENDBRANCH   2  17
TORSDOF 5
ENDMDL
MODEL 6
REMARK VINA RESULT:      -8.2      2.801      4.536
REMARK  Name = 
REMARK  5 active torsions:
REMARK  status: ('A' for Active; 'I' for Inactive)
REMARK    1  A    between atoms: C_2  and  C_3
REMARK    2  A    between atoms: C_3  and  N_4
REMARK    3  A    between atoms: C_5  and  C_6
REMARK    4  A    between atoms: N_18  and  C_19
REMARK    5  A    between atoms: C_23  and  N_24
REMARK                            x       y       z     vdW  Elec       q    Type
REMARK                         _______ _______ _______ _____ _____    ______ ____
ROOT
ATOM      1  O   UNL     1       2.608   7.325  19.902  0.00  0.00    +0.000 OA
ATOM      2  C   UNL     1       2.329   7.233  18.711  0.00  0.00    +0.000 C 
ATOM      3  N   UNL     1       1.803   8.271  17.942  0.00  0.00    +0.000 N 
ATOM      4  H   UNL     1       1.357   8.024  17.069  0.00  0.00    +0.000 HD
ENDROOT
BRANCH   3   5
ATOM      5  C   UNL     1       1.630   9.605  18.374  0.00  0.00    +0.000 A 
ATOM      6  C   UNL     1       2.336  10.676  17.827  0.00  0.00    +0.000 A 
ATOM      7  C   UNL     1       2.142  11.963  18.317  0.00  0.00    +0.000 A 
ATOM      8  C   UNL     1       1.255  12.188  19.370  0.00  0.00    +0.000 A 
ATOM      9  C   UNL     1       0.526  11.138  19.939  0.00  0.00    +0.000 A 
ATOM     10  C   UNL     1       0.698   9.851  19.397  0.00  0.00    +0.000 A 
BRANCH   9  11
ATOM     11  N   UNL     1      -0.341  11.357  21.046  0.00  0.00    +0.000 N 
ATOM     12  C   UNL     1      -1.583  12.084  20.938  0.00  0.00    +0.000 C 
ATOM     13  C   UNL     1      -2.007  12.319  22.373  0.00  0.00    +0.000 C 
ATOM     14  C   UNL     1      -1.456  11.114  23.107  0.00  0.00    +0.000 C 
ATOM     15  C   UNL     1      -0.226  10.752  22.309  0.00  0.00    +0.000 C 
ATOM     16  O   UNL     1       0.635   9.996  22.733  0.00  0.00    +0.000 OA
ENDBRANCH   9  11
ENDBRANCH   3   5
BRANCH   2  17
ATOM     17  C   UNL     1       2.515   5.947  17.925  0.00  0.00    +0.000 C 
BRANCH  17  18
ATOM     18  N   UNL     1       3.186   4.908  18.686  0.00  0.00    +0.000 N 
ATOM     19  C   UNL     1       4.448   4.404  18.461  0.00  0.00    +0.000 A 
ATOM     20  N   UNL     1       4.680   3.359  19.235  0.00  0.00    +0.000 NA
ATOM     21  C   UNL     1       3.560   3.212  20.012  0.00  0.00    +0.000 A 
ATOM     22  C   UNL     1       3.289   2.261  21.007  0.00  0.00    +0.000 A 
ATOM     23  C   UNL     1       2.059   2.312  21.673  0.00  0.00    +0.000 A 
ATOM     24  C   UNL     1       1.119   3.292  21.356  0.00  0.00    +0.000 A 
ATOM     25  C   UNL     1       1.373   4.248  20.363  0.00  0.00    +0.000 A 
ATOM     26  C   UNL     1       2.606   4.176  19.704  0.00  0.00    +0.000 A 
BRANCH  19  27
ATOM     27  C   UNL     1       5.462   4.941  17.495  0.00  0.00    +0.000 A 
ATOM     28  C   UNL     1       5.688   4.361  16.262  0.00  0.00    +0.000 A 
ATOM     29  S   UNL     1       6.988   5.152  15.472  0.00  0.00    +0.000 S 
ATOM     30  C   UNL     1       7.134   6.204  16.819  0.00  0.00    +0.000 A 
ATOM     31  N   UNL     1       6.252   6.042  17.779  0.00  0.00    +0.000 NA
ENDBRANCH  19  27
ENDBRANCH  17  18
ENDBRANCH   2  17
TORSDOF 5
ENDMDL
MODEL 7
REMARK VINA RESULT:      -8.1      0.865      1.119
REMARK  Name = 
REMARK  5 active torsions:
REMARK  status: ('A' for Active; 'I' for Inactive)
REMARK    1  A    between atoms: C_2  and  C_3
REMARK    2  A    between atoms: C_3  and  N_4
REMARK    3  A    between atoms: C_5  and  C_6
REMARK    4  A    between atoms: N_18  and  C_19
REMARK    5  A    between atoms: C_23  and  N_24
REMARK                            x       y       z     vdW  Elec       q    Type
REMARK                         _______ _______ _______ _____ _____    ______ ____
ROOT
ATOM      1  O   UNL     1       2.393   7.470  19.780  0.00  0.00    +0.000 OA
ATOM      2  C   UNL     1       2.348   7.403  18.556  0.00  0.00    +0.000 C 
ATOM      3  N   UNL     1       1.731   8.348  17.736  0.00  0.00    +0.000 N 
ATOM      4  H   UNL     1       1.509   8.070  16.790  0.00  0.00    +0.000 HD
ENDROOT
BRANCH   3   5
ATOM      5  C   UNL     1       1.181   9.575  18.169  0.00  0.00    +0.000 A 
ATOM      6  C   UNL     1       1.915  10.529  18.871  0.00  0.00    +0.000 A 
ATOM      7  C   UNL     1       1.307  11.706  19.297  0.00  0.00    +0.000 A 
ATOM      8  C   UNL     1      -0.046  11.929  19.040  0.00  0.00    +0.000 A 
ATOM      9  C   UNL     1      -0.813  10.995  18.335  0.00  0.00    +0.000 A 
ATOM     10  C   UNL     1      -0.168   9.834  17.869  0.00  0.00    +0.000 A 
BRANCH   9  11
ATOM     11  N   UNL     1      -2.205  11.198  18.116  0.00  0.00    +0.000 N 
ATOM     12  C   UNL     1      -2.928  10.572  17.036  0.00  0.00    +0.000 C 
ATOM     13  C   UNL     1      -4.263  11.287  17.014  0.00  0.00    +0.000 C 
ATOM     14  C   UNL     1      -4.488  11.663  18.464  0.00  0.00    +0.000 C 
ATOM     15  C   UNL     1      -3.087  11.846  18.997  0.00  0.00    +0.000 C 
ATOM     16  O   UNL     1      -2.854  12.405  20.058  0.00  0.00    +0.000 OA
ENDBRANCH   9  11
ENDBRANCH   3   5
BRANCH   2  17
ATOM     17  C   UNL     1       2.960   6.250  17.778  0.00  0.00    +0.000 C 
BRANCH  17  18
ATOM     18  N   UNL     1       4.166   5.727  18.393  0.00  0.00    +0.000 N 
ATOM     19  C   UNL     1       4.244   4.737  19.348  0.00  0.00    +0.000 A 
ATOM     20  N   UNL     1       5.476   4.623  19.806  0.00  0.00    +0.000 NA
ATOM     21  C   UNL     1       6.225   5.529  19.099  0.00  0.00    +0.000 A 
ATOM     22  C   UNL     1       7.597   5.808  19.186  0.00  0.00    +0.000 A 
ATOM     23  C   UNL     1       8.142   6.788  18.349  0.00  0.00    +0.000 A 
ATOM     24  C   UNL     1       7.337   7.475  17.440  0.00  0.00    +0.000 A 
ATOM     25  C   UNL     1       5.964   7.210  17.341  0.00  0.00    +0.000 A 
ATOM     26  C   UNL     1       5.437   6.230  18.192  0.00  0.00    +0.000 A 
BRANCH  19  27
ATOM     27  C   UNL     1       3.116   3.869  19.824  0.00  0.00    +0.000 A 
ATOM     28  C   UNL     1       2.509   4.054  21.051  0.00  0.00    +0.000 A 
ATOM     29  S   UNL     1       1.349   2.819  21.321  0.00  0.00    +0.000 S 
ATOM     30  C   UNL     1       1.736   2.155  19.788  0.00  0.00    +0.000 A 
ATOM     31  N   UNL     1       2.620   2.817  19.075  0.00  0.00    +0.000 NA
ENDBRANCH  19  27
ENDBRANCH  17  18
ENDBRANCH   2  17
TORSDOF 5
ENDMDL
MODEL 8
REMARK VINA RESULT:      -8.1      2.134      2.891
REMARK  Name = 
REMARK  5 active torsions:
REMARK  status: ('A' for Active; 'I' for Inactive)
REMARK    1  A    between atoms: C_2  and  C_3
REMARK    2  A    between atoms: C_3  and  N_4
REMARK    3  A    between atoms: C_5  and  C_6
REMARK    4  A    between atoms: N_18  and  C_19
REMARK    5  A    between atoms: C_23  and  N_24
REMARK                            x       y       z     vdW  Elec       q    Type
REMARK                         _______ _______ _______ _____ _____    ______ ____
ROOT
ATOM      1  O   UNL     1       2.408   8.568  17.477  0.00  0.00    +0.000 OA
ATOM      2  C   UNL     1       2.539   7.521  18.104  0.00  0.00    +0.000 C 
ATOM      3  N   UNL     1       2.180   7.352  19.441  0.00  0.00    +0.000 N 
ATOM      4  H   UNL     1       2.575   6.562  19.933  0.00  0.00    +0.000 HD
ENDROOT
BRANCH   3   5
ATOM      5  C   UNL     1       1.504   8.305  20.235  0.00  0.00    +0.000 A 
ATOM      6  C   UNL     1       0.943   7.998  21.473  0.00  0.00    +0.000 A 
ATOM      7  C   UNL     1       0.263   8.974  22.194  0.00  0.00    +0.000 A 
ATOM      8  C   UNL     1       0.122  10.261  21.674  0.00  0.00    +0.000 A 
ATOM      9  C   UNL     1       0.676  10.606  20.436  0.00  0.00    +0.000 A 
ATOM     10  C   UNL     1       1.403   9.619  19.745  0.00  0.00    +0.000 A 
BRANCH   9  11
ATOM     11  N   UNL     1       0.491  11.903  19.880  0.00  0.00    +0.000 N 
ATOM     12  C   UNL     1      -0.573  12.216  18.957  0.00  0.00    +0.000 C 
ATOM     13  C   UNL     1      -0.211  13.584  18.416  0.00  0.00    +0.000 C 
ATOM     14  C   UNL     1       0.523  14.237  19.569  0.00  0.00    +0.000 C 
ATOM     15  C   UNL     1       1.162  13.070  20.282  0.00  0.00    +0.000 C 
ATOM     16  O   UNL     1       2.050  13.210  21.109  0.00  0.00    +0.000 OA
ENDBRANCH   9  11
ENDBRANCH   3   5
BRANCH   2  17
ATOM     17  C   UNL     1       3.134   6.267  17.485  0.00  0.00    +0.000 C 
BRANCH  17  18
ATOM     18  N   UNL     1       4.268   5.750  18.230  0.00  0.00    +0.000 N 
ATOM     19  C   UNL     1       4.239   4.793  19.220  0.00  0.00    +0.000 A 
ATOM     20  N   UNL     1       5.421   4.679  19.797  0.00  0.00    +0.000 NA
ATOM     21  C   UNL     1       6.247   5.549  19.134  0.00  0.00    +0.000 A 
ATOM     22  C   UNL     1       7.609   5.814  19.342  0.00  0.00    +0.000 A 
ATOM     23  C   UNL     1       8.246   6.758  18.528  0.00  0.00    +0.000 A 
ATOM     24  C   UNL     1       7.542   7.422  17.525  0.00  0.00    +0.000 A 
ATOM     25  C   UNL     1       6.181   7.172  17.305  0.00  0.00    +0.000 A 
ATOM     26  C   UNL     1       5.560   6.229  18.134  0.00  0.00    +0.000 A 
BRANCH  19  27
ATOM     27  C   UNL     1       3.058   3.956  19.615  0.00  0.00    +0.000 A 
ATOM     28  C   UNL     1       2.700   2.812  18.929  0.00  0.00    +0.000 A 
ATOM     29  S   UNL     1       1.243   2.176  19.573  0.00  0.00    +0.000 S 
ATOM     30  C   UNL     1       1.216   3.456  20.713  0.00  0.00    +0.000 A 
ATOM     31  N   UNL     1       2.238   4.282  20.682  0.00  0.00    +0.000 NA
ENDBRANCH  19  27
ENDBRANCH  17  18
ENDBRANCH   2  17
TORSDOF 5
ENDMDL
MODEL 9
REMARK VINA RESULT:      -8.1      0.967      1.197
REMARK  Name = 
REMARK  5 active torsions:
REMARK  status: ('A' for Active; 'I' for Inactive)
REMARK    1  A    between atoms: C_2  and  C_3
REMARK    2  A    between atoms: C_3  and  N_4
REMARK    3  A    between atoms: C_5  and  C_6
REMARK    4  A    between atoms: N_18  and  C_19
REMARK    5  A    between atoms: C_23  and  N_24
REMARK                            x       y       z     vdW  Elec       q    Type
REMARK                         _______ _______ _______ _____ _____    ______ ____
ROOT
ATOM      1  O   UNL     1       2.322   7.739  19.849  0.00  0.00    +0.000 OA
ATOM      2  C   UNL     1       2.286   7.589  18.631  0.00  0.00    +0.000 C 
ATOM      3  N   UNL     1       1.934   8.588  17.724  0.00  0.00    +0.000 N 
ATOM      4  H   UNL     1       1.669   8.299  16.792  0.00  0.00    +0.000 HD
ENDROOT
BRANCH   3   5
ATOM      5  C   UNL     1       1.690   9.942  18.049  0.00  0.00    +0.000 A 
ATOM      6  C   UNL     1       2.635  10.948  17.859  0.00  0.00    +0.000 A 
ATOM      7  C   UNL     1       2.344  12.258  18.227  0.00  0.00    +0.000 A 
ATOM      8  C   UNL     1       1.112  12.569  18.805  0.00  0.00    +0.000 A 
ATOM      9  C   UNL     1       0.139  11.584  19.006  0.00  0.00    +0.000 A 
ATOM     10  C   UNL     1       0.432  10.274  18.582  0.00  0.00    +0.000 A 
BRANCH   9  11
ATOM     11  N   UNL     1      -1.098  11.888  19.641  0.00  0.00    +0.000 N 
ATOM     12  C   UNL     1      -1.184  12.391  20.991  0.00  0.00    +0.000 C 
ATOM     13  C   UNL     1      -2.655  12.286  21.338  0.00  0.00    +0.000 C 
ATOM     14  C   UNL     1      -3.348  12.483  20.006  0.00  0.00    +0.000 C 
ATOM     15  C   UNL     1      -2.353  11.935  19.011  0.00  0.00    +0.000 C 
ATOM     16  O   UNL     1      -2.652  11.676  17.856  0.00  0.00    +0.000 OA
ENDBRANCH   9  11
ENDBRANCH   3   5
BRANCH   2  17
ATOM     17  C   UNL     1       2.614   6.266  17.960  0.00  0.00    +0.000 C 
BRANCH  17  18
ATOM     18  N   UNL     1       3.869   5.695  18.417  0.00  0.00    +0.000 N 
ATOM     19  C   UNL     1       4.028   4.663  19.316  0.00  0.00    +0.000 A 
ATOM     20  N   UNL     1       5.300   4.506  19.629  0.00  0.00    +0.000 NA
ATOM     21  C   UNL     1       5.987   5.427  18.881  0.00  0.00    +0.000 A 
ATOM     22  C   UNL     1       7.367   5.677  18.827  0.00  0.00    +0.000 A 
ATOM     23  C   UNL     1       7.839   6.683  17.975  0.00  0.00    +0.000 A 
ATOM     24  C   UNL     1       6.955   7.422  17.190  0.00  0.00    +0.000 A 
ATOM     25  C   UNL     1       5.574   7.188  17.234  0.00  0.00    +0.000 A 
ATOM     26  C   UNL     1       5.121   6.182  18.097  0.00  0.00    +0.000 A 
BRANCH  19  27
ATOM     27  C   UNL     1       2.940   3.796  19.878  0.00  0.00    +0.000 A 
ATOM     28  C   UNL     1       2.492   3.922  21.179  0.00  0.00    +0.000 A 
ATOM     29  S   UNL     1       1.336   2.703  21.520  0.00  0.00    +0.000 S 
ATOM     30  C   UNL     1       1.511   2.121  19.916  0.00  0.00    +0.000 A 
ATOM     31  N   UNL     1       2.322   2.803  19.138  0.00  0.00    +0.000 NA
ENDBRANCH  19  27
ENDBRANCH  17  18
ENDBRANCH   2  17
TORSDOF 5
ENDMDL
