MODEL 1
REMARK VINA RESULT:      -8.4      0.000      0.000
REMARK  Name = 
REMARK  7 active torsions:
REMARK  status: ('A' for Active; 'I' for Inactive)
REMARK    1  A    between atoms: C_1  and  N_2
REMARK    2  A    between atoms: C_6  and  C_7
REMARK    3  A    between atoms: C_7  and  N_8
REMARK    4  A    between atoms: N_8  and  C_9
REMARK    5  A    between atoms: C_9  and  C_10
REMARK    6  A    between atoms: C_14  and  N_15
REMARK    7  A    between atoms: C_23  and  C_24
REMARK                            x       y       z     vdW  Elec       q    Type
REMARK                         _______ _______ _______ _____ _____    ______ ____
ROOT
ATOM      1  C   UNL     1       7.878   7.673  17.955  0.00  0.00    +0.000 A 
ATOM      2  C   UNL     1       7.961   6.795  19.048  0.00  0.00    +0.000 A 
ATOM      3  C   UNL     1       7.811   5.427  18.864  0.00  0.00    +0.000 A 
ATOM      4  C   UNL     1       7.453   4.935  17.610  0.00  0.00    +0.000 A 
ATOM      5  C   UNL     1       7.132   5.828  16.578  0.00  0.00    +0.000 A 
ATOM      6  C   UNL     1       7.485   7.176  16.707  0.00  0.00    +0.000 A 
ENDROOT
BRANCH   5   7
ATOM      7  N   UNL     1       6.083   5.491  15.626  0.00  0.00    +0.000 N 
ATOM      8  C   UNL     1       4.893   6.344  15.861  0.00  0.00    +0.000 C 
ATOM      9  C   UNL     1       4.096   5.508  16.817  0.00  0.00    +0.000 A 
ATOM     10  C   UNL     1       4.430   4.170  16.576  0.00  0.00    +0.000 A 
ATOM     11  C   UNL     1       3.997   3.128  17.372  0.00  0.00    +0.000 A 
ATOM     12  C   UNL     1       3.213   3.470  18.464  0.00  0.00    +0.000 A 
ATOM     13  F   UNL     1       2.831   2.513  19.320  0.00  0.00    +0.000 F 
ATOM     14  C   UNL     1       2.885   4.805  18.746  0.00  0.00    +0.000 A 
ATOM     15  C   UNL     1       3.330   5.861  17.924  0.00  0.00    +0.000 A 
ATOM     16  C   UNL     1       5.614   4.155  15.686  0.00  0.00    +0.000 C 
ATOM     17  O   UNL     1       6.158   3.139  15.291  0.00  0.00    +0.000 OA
BRANCH  15  18
ATOM     18  C   UNL     1       3.056   7.284  18.343  0.00  0.00    +0.000 C 
ATOM     19  F   UNL     1       2.721   7.424  19.653  0.00  0.00    +0.000 F 
ATOM     20  F   UNL     1       4.126   8.094  18.143  0.00  0.00    +0.000 F 
ATOM     21  F   UNL     1       2.027   7.836  17.637  0.00  0.00    +0.000 F 
ENDBRANCH  15  18
ENDBRANCH   5   7
BRANCH   1  22
ATOM     22  C   UNL     1       8.167   9.144  18.143  0.00  0.00    +0.000 C 
BRANCH  22  23
ATOM     23  N   UNL     1       9.279   9.376  19.071  0.00  0.00    +0.000 NA
ATOM     24  H   UNL     1       9.222   8.645  19.790  0.00  0.00    +0.000 HD
BRANCH  23  25
ATOM     25  C   UNL     1       9.192  10.669  19.777  0.00  0.00    +0.000 C 
BRANCH  25  31
ATOM     26  C   UNL     1       9.577  12.762  17.506  0.00  0.00    +0.000 C 
ATOM     27  N   UNL     1      10.519  12.449  18.549  0.00  0.00    +0.000 N 
ATOM     28  C   UNL     1      11.734  13.036  18.736  0.00  0.00    +0.000 A 
ATOM     29  N   UNL     1      12.333  12.496  19.770  0.00  0.00    +0.000 NA
ATOM     30  N   UNL     1      11.492  11.536  20.280  0.00  0.00    +0.000 NA
ATOM     31  C   UNL     1      10.395  11.523  19.553  0.00  0.00    +0.000 A 
ENDBRANCH  25  31
ENDBRANCH  23  25
ENDBRANCH  22  23
ENDBRANCH   1  22
TORSDOF 6
ENDMDL
MODEL 2
REMARK VINA RESULT:      -8.4      0.843      1.174
REMARK  Name = 
REMARK  7 active torsions:
REMARK  status: ('A' for Active; 'I' for Inactive)
REMARK    1  A    between atoms: C_1  and  N_2
REMARK    2  A    between atoms: C_6  and  C_7
REMARK    3  A    between atoms: C_7  and  N_8
REMARK    4  A    between atoms: N_8  and  C_9
REMARK    5  A    between atoms: C_9  and  C_10
REMARK    6  A    between atoms: C_14  and  N_15
REMARK    7  A    between atoms: C_23  and  C_24
REMARK                            x       y       z     vdW  Elec       q    Type
REMARK                         _______ _______ _______ _____ _____    ______ ____
ROOT
ATOM      1  C   UNL     1       7.870   7.625  17.933  0.00  0.00    +0.000 A 
ATOM      2  C   UNL     1       7.970   6.754  19.029  0.00  0.00    +0.000 A 
ATOM      3  C   UNL     1       7.830   5.383  18.854  0.00  0.00    +0.000 A 
ATOM      4  C   UNL     1       7.465   4.882  17.606  0.00  0.00    +0.000 A 
ATOM      5  C   UNL     1       7.128   5.767  16.572  0.00  0.00    +0.000 A 
ATOM      6  C   UNL     1       7.471   7.117  16.691  0.00  0.00    +0.000 A 
ENDROOT
BRANCH   5   7
ATOM      7  N   UNL     1       6.074   5.415  15.632  0.00  0.00    +0.000 N 
ATOM      8  C   UNL     1       4.883   6.269  15.863  0.00  0.00    +0.000 C 
ATOM      9  C   UNL     1       4.094   5.444  16.835  0.00  0.00    +0.000 A 
ATOM     10  C   UNL     1       4.429   4.103  16.609  0.00  0.00    +0.000 A 
ATOM     11  C   UNL     1       4.003   3.070  17.420  0.00  0.00    +0.000 A 
ATOM     12  C   UNL     1       3.225   3.425  18.513  0.00  0.00    +0.000 A 
ATOM     13  F   UNL     1       2.851   2.479  19.384  0.00  0.00    +0.000 F 
ATOM     14  C   UNL     1       2.896   4.763  18.781  0.00  0.00    +0.000 A 
ATOM     15  C   UNL     1       3.334   5.810  17.942  0.00  0.00    +0.000 A 
ATOM     16  C   UNL     1       5.607   4.080  15.711  0.00  0.00    +0.000 C 
ATOM     17  O   UNL     1       6.150   3.059  15.326  0.00  0.00    +0.000 OA
BRANCH  15  18
ATOM     18  C   UNL     1       3.060   7.237  18.345  0.00  0.00    +0.000 C 
ATOM     19  F   UNL     1       4.080   8.095  18.078  0.00  0.00    +0.000 F 
ATOM     20  F   UNL     1       1.970   7.748  17.721  0.00  0.00    +0.000 F 
ATOM     21  F   UNL     1       2.819   7.354  19.683  0.00  0.00    +0.000 F 
ENDBRANCH  15  18
ENDBRANCH   5   7
BRANCH   1  22
ATOM     22  C   UNL     1       8.149   9.099  18.110  0.00  0.00    +0.000 C 
BRANCH  22  23
ATOM     23  N   UNL     1       9.214   9.349  19.087  0.00  0.00    +0.000 NA
ATOM     24  H   UNL     1       9.044   8.717  19.878  0.00  0.00    +0.000 HD
BRANCH  23  25
ATOM     25  C   UNL     1       9.200  10.720  19.632  0.00  0.00    +0.000 C 
BRANCH  25  31
ATOM     26  C   UNL     1       8.600  13.771  19.498  0.00  0.00    +0.000 C 
ATOM     27  N   UNL     1       9.550  13.050  18.690  0.00  0.00    +0.000 N 
ATOM     28  C   UNL     1      10.370  13.586  17.743  0.00  0.00    +0.000 A 
ATOM     29  N   UNL     1      11.091  12.639  17.193  0.00  0.00    +0.000 NA
ATOM     30  N   UNL     1      10.742  11.453  17.794  0.00  0.00    +0.000 NA
ATOM     31  C   UNL     1       9.828  11.707  18.706  0.00  0.00    +0.000 A 
ENDBRANCH  25  31
ENDBRANCH  23  25
ENDBRANCH  22  23
ENDBRANCH   1  22
TORSDOF 6
ENDMDL
MODEL 3
REMARK VINA RESULT:      -8.4      0.930      1.009
REMARK  Name = 
REMARK  7 active torsions:
REMARK  status: ('A' for Active; 'I' for Inactive)
REMARK    1  A    between atoms: C_1  and  N_2
REMARK    2  A    between atoms: C_6  and  C_7
REMARK    3  A    between atoms: C_7  and  N_8
REMARK    4  A    between atoms: N_8  and  C_9
REMARK    5  A    between atoms: C_9  and  C_10
REMARK    6  A    between atoms: C_14  and  N_15
REMARK    7  A    between atoms: C_23  and  C_24
REMARK                            x       y       z     vdW  Elec       q    Type
REMARK                         _______ _______ _______ _____ _____    ______ ____
ROOT
ATOM      1  C   UNL     1       7.903   7.681  17.963  0.00  0.00    +0.000 A 
ATOM      2  C   UNL     1       8.009   6.785  19.039  0.00  0.00    +0.000 A 
ATOM      3  C   UNL     1       7.758   5.431  18.855  0.00  0.00    +0.000 A 
ATOM      4  C   UNL     1       7.278   4.980  17.627  0.00  0.00    +0.000 A 
ATOM      5  C   UNL     1       6.941   5.905  16.629  0.00  0.00    +0.000 A 
ATOM      6  C   UNL     1       7.389   7.225  16.743  0.00  0.00    +0.000 A 
ENDROOT
BRANCH   5   7
ATOM      7  N   UNL     1       5.806   5.648  15.755  0.00  0.00    +0.000 N 
ATOM      8  C   UNL     1       4.568   6.203  16.355  0.00  0.00    +0.000 C 
ATOM      9  C   UNL     1       4.050   5.032  17.136  0.00  0.00    +0.000 A 
ATOM     10  C   UNL     1       4.511   3.872  16.500  0.00  0.00    +0.000 A 
ATOM     11  C   UNL     1       4.350   2.606  17.027  0.00  0.00    +0.000 A 
ATOM     12  C   UNL     1       3.714   2.526  18.257  0.00  0.00    +0.000 A 
ATOM     13  F   UNL     1       3.601   1.336  18.859  0.00  0.00    +0.000 F 
ATOM     14  C   UNL     1       3.265   3.674  18.931  0.00  0.00    +0.000 A 
ATOM     15  C   UNL     1       3.432   4.962  18.381  0.00  0.00    +0.000 A 
ATOM     16  C   UNL     1       5.529   4.281  15.504  0.00  0.00    +0.000 C 
ATOM     17  O   UNL     1       6.128   3.502  14.784  0.00  0.00    +0.000 OA
BRANCH  15  18
ATOM     18  C   UNL     1       3.047   6.167  19.202  0.00  0.00    +0.000 C 
ATOM     19  F   UNL     1       2.377   5.869  20.347  0.00  0.00    +0.000 F 
ATOM     20  F   UNL     1       4.126   6.898  19.580  0.00  0.00    +0.000 F 
ATOM     21  F   UNL     1       2.237   7.020  18.511  0.00  0.00    +0.000 F 
ENDBRANCH  15  18
ENDBRANCH   5   7
BRANCH   1  22
ATOM     22  C   UNL     1       8.300   9.127  18.141  0.00  0.00    +0.000 C 
BRANCH  22  23
ATOM     23  N   UNL     1       9.207   9.318  19.278  0.00  0.00    +0.000 NA
ATOM     24  H   UNL     1       8.797   8.811  20.071  0.00  0.00    +0.000 HD
BRANCH  23  25
ATOM     25  C   UNL     1       9.332  10.727  19.697  0.00  0.00    +0.000 C 
BRANCH  25  31
ATOM     26  C   UNL     1       8.379  12.776  17.556  0.00  0.00    +0.000 C 
ATOM     27  N   UNL     1       9.744  12.428  17.860  0.00  0.00    +0.000 N 
ATOM     28  C   UNL     1      10.855  12.957  17.276  0.00  0.00    +0.000 A 
ATOM     29  N   UNL     1      11.929  12.399  17.782  0.00  0.00    +0.000 NA
ATOM     30  N   UNL     1      11.516  11.486  18.723  0.00  0.00    +0.000 NA
ATOM     31  C   UNL     1      10.201  11.519  18.779  0.00  0.00    +0.000 A 
ENDBRANCH  25  31
ENDBRANCH  23  25
ENDBRANCH  22  23
ENDBRANCH   1  22
TORSDOF 6
ENDMDL
MODEL 4
REMARK VINA RESULT:      -8.2      4.980      7.253
REMARK  Name = 
REMARK  7 active torsions:
REMARK  status: ('A' for Active; 'I' for Inactive)
REMARK    1  A    between atoms: C_1  and  N_2
REMARK    2  A    between atoms: C_6  and  C_7
REMARK    3  A    between atoms: C_7  and  N_8
REMARK    4  A    between atoms: N_8  and  C_9
REMARK    5  A    between atoms: C_9  and  C_10
REMARK    6  A    between atoms: C_14  and  N_15
REMARK    7  A    between atoms: C_23  and  C_24
REMARK                            x       y       z     vdW  Elec       q    Type
REMARK                         _______ _______ _______ _____ _____    ______ ____
ROOT
ATOM      1  C   UNL     1       2.121   7.382  19.788  0.00  0.00    +0.000 A 
ATOM      2  C   UNL     1       2.416   8.130  18.638  0.00  0.00    +0.000 A 
ATOM      3  C   UNL     1       2.938   7.509  17.509  0.00  0.00    +0.000 A 
ATOM      4  C   UNL     1       3.286   6.161  17.564  0.00  0.00    +0.000 A 
ATOM      5  C   UNL     1       3.218   5.473  18.784  0.00  0.00    +0.000 A 
ATOM      6  C   UNL     1       2.504   6.037  19.846  0.00  0.00    +0.000 A 
ENDROOT
BRANCH   5   7
ATOM      7  N   UNL     1       4.210   4.456  19.099  0.00  0.00    +0.000 N 
ATOM      8  C   UNL     1       5.549   5.079  19.238  0.00  0.00    +0.000 C 
ATOM      9  C   UNL     1       6.089   4.970  17.843  0.00  0.00    +0.000 A 
ATOM     10  C   UNL     1       5.474   3.861  17.246  0.00  0.00    +0.000 A 
ATOM     11  C   UNL     1       5.621   3.544  15.910  0.00  0.00    +0.000 A 
ATOM     12  C   UNL     1       6.406   4.403  15.155  0.00  0.00    +0.000 A 
ATOM     13  F   UNL     1       6.520   4.196  13.837  0.00  0.00    +0.000 F 
ATOM     14  C   UNL     1       7.012   5.537  15.720  0.00  0.00    +0.000 A 
ATOM     15  C   UNL     1       6.858   5.849  17.086  0.00  0.00    +0.000 A 
ATOM     16  C   UNL     1       4.363   3.434  18.128  0.00  0.00    +0.000 C 
ATOM     17  O   UNL     1       3.626   2.495  17.888  0.00  0.00    +0.000 OA
BRANCH  15  18
ATOM     18  C   UNL     1       7.424   7.144  17.613  0.00  0.00    +0.000 C 
ATOM     19  F   UNL     1       8.268   7.773  16.753  0.00  0.00    +0.000 F 
ATOM     20  F   UNL     1       6.455   8.045  17.910  0.00  0.00    +0.000 F 
ATOM     21  F   UNL     1       8.135   6.961  18.763  0.00  0.00    +0.000 F 
ENDBRANCH  15  18
ENDBRANCH   5   7
BRANCH   1  22
ATOM     22  C   UNL     1       1.438   8.040  20.963  0.00  0.00    +0.000 C 
BRANCH  22  23
ATOM     23  N   UNL     1       0.872   9.348  20.615  0.00  0.00    +0.000 NA
ATOM     24  H   UNL     1       1.470  10.056  21.056  0.00  0.00    +0.000 HD
BRANCH  23  25
ATOM     25  C   UNL     1      -0.489   9.558  21.146  0.00  0.00    +0.000 C 
BRANCH  25  31
ATOM     26  C   UNL     1      -1.352  12.148  19.651  0.00  0.00    +0.000 C 
ATOM     27  N   UNL     1      -1.064  12.028  21.058  0.00  0.00    +0.000 N 
ATOM     28  C   UNL     1      -1.144  13.025  21.981  0.00  0.00    +0.000 A 
ATOM     29  N   UNL     1      -0.796  12.567  23.160  0.00  0.00    +0.000 NA
ATOM     30  N   UNL     1      -0.484  11.237  23.010  0.00  0.00    +0.000 NA
ATOM     31  C   UNL     1      -0.663  10.912  21.747  0.00  0.00    +0.000 A 
ENDBRANCH  25  31
ENDBRANCH  23  25
ENDBRANCH  22  23
ENDBRANCH   1  22
TORSDOF 6
ENDMDL
MODEL 5
REMARK VINA RESULT:      -8.1      1.053      1.461
REMARK  Name = 
REMARK  7 active torsions:
REMARK  status: ('A' for Active; 'I' for Inactive)
REMARK    1  A    between atoms: C_1  and  N_2
REMARK    2  A    between atoms: C_6  and  C_7
REMARK    3  A    between atoms: C_7  and  N_8
REMARK    4  A    between atoms: N_8  and  C_9
REMARK    5  A    between atoms: C_9  and  C_10
REMARK    6  A    between atoms: C_14  and  N_15
REMARK    7  A    between atoms: C_23  and  C_24
REMARK                            x       y       z     vdW  Elec       q    Type
REMARK                         _______ _______ _______ _____ _____    ______ ____
ROOT
ATOM      1  C   UNL     1       7.871   7.685  17.917  0.00  0.00    +0.000 A 
ATOM      2  C   UNL     1       7.954   6.834  19.030  0.00  0.00    +0.000 A 
ATOM      3  C   UNL     1       7.807   5.461  18.879  0.00  0.00    +0.000 A 
ATOM      4  C   UNL     1       7.449   4.939  17.637  0.00  0.00    +0.000 A 
ATOM      5  C   UNL     1       7.127   5.807  16.584  0.00  0.00    +0.000 A 
ATOM      6  C   UNL     1       7.479   7.157  16.681  0.00  0.00    +0.000 A 
ENDROOT
BRANCH   5   7
ATOM      7  N   UNL     1       6.079   5.446  15.641  0.00  0.00    +0.000 N 
ATOM      8  C   UNL     1       4.883   6.292  15.865  0.00  0.00    +0.000 C 
ATOM      9  C   UNL     1       4.094   5.465  16.837  0.00  0.00    +0.000 A 
ATOM     10  C   UNL     1       4.439   4.126  16.616  0.00  0.00    +0.000 A 
ATOM     11  C   UNL     1       4.017   3.093  17.429  0.00  0.00    +0.000 A 
ATOM     12  C   UNL     1       3.233   3.446  18.518  0.00  0.00    +0.000 A 
ATOM     13  F   UNL     1       2.861   2.501  19.390  0.00  0.00    +0.000 F 
ATOM     14  C   UNL     1       2.894   4.784  18.780  0.00  0.00    +0.000 A 
ATOM     15  C   UNL     1       3.328   5.830  17.940  0.00  0.00    +0.000 A 
ATOM     16  C   UNL     1       5.621   4.107  15.723  0.00  0.00    +0.000 C 
ATOM     17  O   UNL     1       6.172   3.089  15.343  0.00  0.00    +0.000 OA
BRANCH  15  18
ATOM     18  C   UNL     1       3.044   7.257  18.336  0.00  0.00    +0.000 C 
ATOM     19  F   UNL     1       1.995   7.819  17.678  0.00  0.00    +0.000 F 
ATOM     20  F   UNL     1       2.763   7.378  19.658  0.00  0.00    +0.000 F 
ATOM     21  F   UNL     1       4.110   8.076  18.100  0.00  0.00    +0.000 F 
ENDBRANCH  15  18
ENDBRANCH   5   7
BRANCH   1  22
ATOM     22  C   UNL     1       8.158   9.160  18.069  0.00  0.00    +0.000 C 
BRANCH  22  23
ATOM     23  N   UNL     1       9.088   9.433  19.170  0.00  0.00    +0.000 NA
ATOM     24  H   UNL     1       8.526   9.477  20.028  0.00  0.00    +0.000 HD
BRANCH  23  25
ATOM     25  C   UNL     1       9.772  10.735  19.049  0.00  0.00    +0.000 C 
BRANCH  25  31
ATOM     26  C   UNL     1      11.007  13.552  19.526  0.00  0.00    +0.000 C 
ATOM     27  N   UNL     1      10.163  12.823  20.438  0.00  0.00    +0.000 N 
ATOM     28  C   UNL     1       9.739  13.254  21.658  0.00  0.00    +0.000 A 
ATOM     29  N   UNL     1       8.999  12.329  22.223  0.00  0.00    +0.000 NA
ATOM     30  N   UNL     1       8.930  11.268  21.352  0.00  0.00    +0.000 NA
ATOM     31  C   UNL     1       9.617  11.576  20.273  0.00  0.00    +0.000 A 
ENDBRANCH  25  31
ENDBRANCH  23  25
ENDBRANCH  22  23
ENDBRANCH   1  22
TORSDOF 6
ENDMDL
MODEL 6
REMARK VINA RESULT:      -8.1      4.716      7.000
REMARK  Name = 
REMARK  7 active torsions:
REMARK  status: ('A' for Active; 'I' for Inactive)
REMARK    1  A    between atoms: C_1  and  N_2
REMARK    2  A    between atoms: C_6  and  C_7
REMARK    3  A    between atoms: C_7  and  N_8
REMARK    4  A    between atoms: N_8  and  C_9
REMARK    5  A    between atoms: C_9  and  C_10
REMARK    6  A    between atoms: C_14  and  N_15
REMARK    7  A    between atoms: C_23  and  C_24
REMARK                            x       y       z     vdW  Elec       q    Type
REMARK                         _______ _______ _______ _____ _____    ______ ____
ROOT
ATOM      1  C   UNL     1       1.911   7.207  19.924  0.00  0.00    +0.000 A 
ATOM      2  C   UNL     1       2.309   8.131  18.944  0.00  0.00    +0.000 A 
ATOM      3  C   UNL     1       3.009   7.708  17.821  0.00  0.00    +0.000 A 
ATOM      4  C   UNL     1       3.427   6.382  17.728  0.00  0.00    +0.000 A 
ATOM      5  C   UNL     1       3.242   5.516  18.816  0.00  0.00    +0.000 A 
ATOM      6  C   UNL     1       2.363   5.885  19.839  0.00  0.00    +0.000 A 
ENDROOT
BRANCH   5   7
ATOM      7  N   UNL     1       4.244   4.503  19.114  0.00  0.00    +0.000 N 
ATOM      8  C   UNL     1       5.581   5.134  19.237  0.00  0.00    +0.000 C 
ATOM      9  C   UNL     1       6.103   5.032  17.835  0.00  0.00    +0.000 A 
ATOM     10  C   UNL     1       5.487   3.922  17.243  0.00  0.00    +0.000 A 
ATOM     11  C   UNL     1       5.618   3.610  15.905  0.00  0.00    +0.000 A 
ATOM     12  C   UNL     1       6.388   4.475  15.141  0.00  0.00    +0.000 A 
ATOM     13  F   UNL     1       6.486   4.273  13.822  0.00  0.00    +0.000 F 
ATOM     14  C   UNL     1       6.995   5.610  15.702  0.00  0.00    +0.000 A 
ATOM     15  C   UNL     1       6.858   5.917  17.071  0.00  0.00    +0.000 A 
ATOM     16  C   UNL     1       4.390   3.486  18.139  0.00  0.00    +0.000 C 
ATOM     17  O   UNL     1       3.654   2.543  17.906  0.00  0.00    +0.000 OA
BRANCH  15  18
ATOM     18  C   UNL     1       7.423   7.214  17.595  0.00  0.00    +0.000 C 
ATOM     19  F   UNL     1       8.131   7.087  18.748  0.00  0.00    +0.000 F 
ATOM     20  F   UNL     1       8.260   7.806  16.706  0.00  0.00    +0.000 F 
ATOM     21  F   UNL     1       6.445   8.128  17.859  0.00  0.00    +0.000 F 
ENDBRANCH  15  18
ENDBRANCH   5   7
BRANCH   1  22
ATOM     22  C   UNL     1       1.043   7.653  21.076  0.00  0.00    +0.000 C 
BRANCH  22  23
ATOM     23  N   UNL     1       1.721   8.629  21.936  0.00  0.00    +0.000 NA
ATOM     24  H   UNL     1       2.195   8.094  22.673  0.00  0.00    +0.000 HD
BRANCH  23  25
ATOM     25  C   UNL     1       0.794   9.553  22.617  0.00  0.00    +0.000 C 
BRANCH  25  31
ATOM     26  C   UNL     1      -1.660  11.414  23.068  0.00  0.00    +0.000 C 
ATOM     27  N   UNL     1      -0.720  11.486  21.978  0.00  0.00    +0.000 N 
ATOM     28  C   UNL     1      -0.732  12.399  20.968  0.00  0.00    +0.000 A 
ATOM     29  N   UNL     1       0.258  12.159  20.141  0.00  0.00    +0.000 NA
ATOM     30  N   UNL     1       0.940  11.066  20.621  0.00  0.00    +0.000 NA
ATOM     31  C   UNL     1       0.358  10.675  21.735  0.00  0.00    +0.000 A 
ENDBRANCH  25  31
ENDBRANCH  23  25
ENDBRANCH  22  23
ENDBRANCH   1  22
TORSDOF 6
ENDMDL
MODEL 7
REMARK VINA RESULT:      -8.1      4.739      7.453
REMARK  Name = 
REMARK  7 active torsions:
REMARK  status: ('A' for Active; 'I' for Inactive)
REMARK    1  A    between atoms: C_1  and  N_2
REMARK    2  A    between atoms: C_6  and  C_7
REMARK    3  A    between atoms: C_7  and  N_8
REMARK    4  A    between atoms: N_8  and  C_9
REMARK    5  A    between atoms: C_9  and  C_10
REMARK    6  A    between atoms: C_14  and  N_15
REMARK    7  A    between atoms: C_23  and  C_24
REMARK                            x       y       z     vdW  Elec       q    Type
REMARK                         _______ _______ _______ _____ _____    ______ ____
ROOT
ATOM      1  C   UNL     1       1.966   7.776  19.709  0.00  0.00    +0.000 A 
ATOM      2  C   UNL     1       2.376   8.501  18.578  0.00  0.00    +0.000 A 
ATOM      3  C   UNL     1       2.965   7.850  17.501  0.00  0.00    +0.000 A 
ATOM      4  C   UNL     1       3.265   6.493  17.596  0.00  0.00    +0.000 A 
ATOM      5  C   UNL     1       3.080   5.823  18.814  0.00  0.00    +0.000 A 
ATOM      6  C   UNL     1       2.302   6.421  19.810  0.00  0.00    +0.000 A 
ENDROOT
BRANCH   5   7
ATOM      7  N   UNL     1       4.011   4.779  19.217  0.00  0.00    +0.000 N 
ATOM      8  C   UNL     1       5.379   5.339  19.335  0.00  0.00    +0.000 C 
ATOM      9  C   UNL     1       5.931   5.103  17.960  0.00  0.00    +0.000 A 
ATOM     10  C   UNL     1       5.266   3.989  17.433  0.00  0.00    +0.000 A 
ATOM     11  C   UNL     1       5.414   3.570  16.126  0.00  0.00    +0.000 A 
ATOM     12  C   UNL     1       6.255   4.330  15.325  0.00  0.00    +0.000 A 
ATOM     13  F   UNL     1       6.375   4.024  14.027  0.00  0.00    +0.000 F 
ATOM     14  C   UNL     1       6.913   5.468  15.819  0.00  0.00    +0.000 A 
ATOM     15  C   UNL     1       6.758   5.884  17.158  0.00  0.00    +0.000 A 
ATOM     16  C   UNL     1       4.122   3.685  18.324  0.00  0.00    +0.000 C 
ATOM     17  O   UNL     1       3.338   2.771  18.138  0.00  0.00    +0.000 OA
BRANCH  15  18
ATOM     18  C   UNL     1       7.385   7.182  17.602  0.00  0.00    +0.000 C 
ATOM     19  F   UNL     1       8.122   7.083  18.739  0.00  0.00    +0.000 F 
ATOM     20  F   UNL     1       8.215   7.700  16.663  0.00  0.00    +0.000 F 
ATOM     21  F   UNL     1       6.449   8.144  17.849  0.00  0.00    +0.000 F 
ENDBRANCH  15  18
ENDBRANCH   5   7
BRANCH   1  22
ATOM     22  C   UNL     1       1.214   8.470  20.819  0.00  0.00    +0.000 C 
BRANCH  22  23
ATOM     23  N   UNL     1       1.005   9.895  20.542  0.00  0.00    +0.000 NA
ATOM     24  H   UNL     1       1.582  10.414  21.215  0.00  0.00    +0.000 HD
BRANCH  23  25
ATOM     25  C   UNL     1      -0.387  10.336  20.753  0.00  0.00    +0.000 C 
BRANCH  25  31
ATOM     26  C   UNL     1      -2.544  12.544  20.353  0.00  0.00    +0.000 C 
ATOM     27  N   UNL     1      -2.008  11.677  19.335  0.00  0.00    +0.000 N 
ATOM     28  C   UNL     1      -2.337  11.692  18.013  0.00  0.00    +0.000 A 
ATOM     29  N   UNL     1      -1.671  10.757  17.379  0.00  0.00    +0.000 NA
ATOM     30  N   UNL     1      -0.882  10.114  18.303  0.00  0.00    +0.000 NA
ATOM     31  C   UNL     1      -1.075  10.683  19.475  0.00  0.00    +0.000 A 
ENDBRANCH  25  31
ENDBRANCH  23  25
ENDBRANCH  22  23
ENDBRANCH   1  22
TORSDOF 6
ENDMDL
MODEL 8
REMARK VINA RESULT:      -8.1      1.053      1.645
REMARK  Name = 
REMARK  7 active torsions:
REMARK  status: ('A' for Active; 'I' for Inactive)
REMARK    1  A    between atoms: C_1  and  N_2
REMARK    2  A    between atoms: C_6  and  C_7
REMARK    3  A    between atoms: C_7  and  N_8
REMARK    4  A    between atoms: N_8  and  C_9
REMARK    5  A    between atoms: C_9  and  C_10
REMARK    6  A    between atoms: C_14  and  N_15
REMARK    7  A    between atoms: C_23  and  C_24
REMARK                            x       y       z     vdW  Elec       q    Type
REMARK                         _______ _______ _______ _____ _____    ______ ____
ROOT
ATOM      1  C   UNL     1       7.866   7.704  17.898  0.00  0.00    +0.000 A 
ATOM      2  C   UNL     1       7.962   6.865  19.020  0.00  0.00    +0.000 A 
ATOM      3  C   UNL     1       7.824   5.490  18.884  0.00  0.00    +0.000 A 
ATOM      4  C   UNL     1       7.465   4.951  17.650  0.00  0.00    +0.000 A 
ATOM      5  C   UNL     1       7.130   5.805  16.589  0.00  0.00    +0.000 A 
ATOM      6  C   UNL     1       7.472   7.159  16.670  0.00  0.00    +0.000 A 
ENDROOT
BRANCH   5   7
ATOM      7  N   UNL     1       6.080   5.426  15.656  0.00  0.00    +0.000 N 
ATOM      8  C   UNL     1       4.885   6.278  15.864  0.00  0.00    +0.000 C 
ATOM      9  C   UNL     1       4.098   5.472  16.855  0.00  0.00    +0.000 A 
ATOM     10  C   UNL     1       4.441   4.128  16.661  0.00  0.00    +0.000 A 
ATOM     11  C   UNL     1       4.019   3.113  17.497  0.00  0.00    +0.000 A 
ATOM     12  C   UNL     1       3.237   3.489  18.579  0.00  0.00    +0.000 A 
ATOM     13  F   UNL     1       2.866   2.563  19.471  0.00  0.00    +0.000 F 
ATOM     14  C   UNL     1       2.900   4.832  18.813  0.00  0.00    +0.000 A 
ATOM     15  C   UNL     1       3.334   5.860  17.951  0.00  0.00    +0.000 A 
ATOM     16  C   UNL     1       5.621   4.090  15.767  0.00  0.00    +0.000 C 
ATOM     17  O   UNL     1       6.170   3.063  15.407  0.00  0.00    +0.000 OA
BRANCH  15  18
ATOM     18  C   UNL     1       3.052   7.296  18.318  0.00  0.00    +0.000 C 
ATOM     19  F   UNL     1       2.029   7.858  17.620  0.00  0.00    +0.000 F 
ATOM     20  F   UNL     1       2.732   7.439  19.629  0.00  0.00    +0.000 F 
ATOM     21  F   UNL     1       4.132   8.101  18.104  0.00  0.00    +0.000 F 
ENDBRANCH  15  18
ENDBRANCH   5   7
BRANCH   1  22
ATOM     22  C   UNL     1       8.143   9.182  18.033  0.00  0.00    +0.000 C 
BRANCH  22  23
ATOM     23  N   UNL     1       8.970   9.487  19.205  0.00  0.00    +0.000 NA
ATOM     24  H   UNL     1       8.334   9.830  19.934  0.00  0.00    +0.000 HD
BRANCH  23  25
ATOM     25  C   UNL     1       9.953  10.561  18.965  0.00  0.00    +0.000 C 
BRANCH  25  31
ATOM     26  C   UNL     1       9.421  12.285  21.501  0.00  0.00    +0.000 C 
ATOM     27  N   UNL     1       9.133  12.656  20.139  0.00  0.00    +0.000 N 
ATOM     28  C   UNL     1       8.599  13.838  19.725  0.00  0.00    +0.000 A 
ATOM     29  N   UNL     1       8.457  13.828  18.421  0.00  0.00    +0.000 NA
ATOM     30  N   UNL     1       8.912  12.614  17.966  0.00  0.00    +0.000 NA
ATOM     31  C   UNL     1       9.334  11.919  19.001  0.00  0.00    +0.000 A 
ENDBRANCH  25  31
ENDBRANCH  23  25
ENDBRANCH  22  23
ENDBRANCH   1  22
TORSDOF 6
ENDMDL
MODEL 9
REMARK VINA RESULT:      -8.1      4.755      7.186
REMARK  Name = 
REMARK  7 active torsions:
REMARK  status: ('A' for Active; 'I' for Inactive)
REMARK    1  A    between atoms: C_1  and  N_2
REMARK    2  A    between atoms: C_6  and  C_7
REMARK    3  A    between atoms: C_7  and  N_8
REMARK    4  A    between atoms: N_8  and  C_9
REMARK    5  A    between atoms: C_9  and  C_10
REMARK    6  A    between atoms: C_14  and  N_15
REMARK    7  A    between atoms: C_23  and  C_24
REMARK                            x       y       z     vdW  Elec       q    Type
REMARK                         _______ _______ _______ _____ _____    ______ ____
ROOT
ATOM      1  C   UNL     1       2.004   7.467  19.899  0.00  0.00    +0.000 A 
ATOM      2  C   UNL     1       2.353   8.265  18.798  0.00  0.00    +0.000 A 
ATOM      3  C   UNL     1       2.924   7.695  17.668  0.00  0.00    +0.000 A 
ATOM      4  C   UNL     1       3.267   6.344  17.676  0.00  0.00    +0.000 A 
ATOM      5  C   UNL     1       3.143   5.602  18.859  0.00  0.00    +0.000 A 
ATOM      6  C   UNL     1       2.382   6.119  19.912  0.00  0.00    +0.000 A 
ENDROOT
BRANCH   5   7
ATOM      7  N   UNL     1       4.118   4.567  19.171  0.00  0.00    +0.000 N 
ATOM      8  C   UNL     1       5.472   5.163  19.278  0.00  0.00    +0.000 C 
ATOM      9  C   UNL     1       5.985   5.022  17.876  0.00  0.00    +0.000 A 
ATOM     10  C   UNL     1       5.337   3.919  17.306  0.00  0.00    +0.000 A 
ATOM     11  C   UNL     1       5.453   3.580  15.973  0.00  0.00    +0.000 A 
ATOM     12  C   UNL     1       6.244   4.411  15.191  0.00  0.00    +0.000 A 
ATOM     13  F   UNL     1       6.330   4.183  13.875  0.00  0.00    +0.000 F 
ATOM     14  C   UNL     1       6.884   5.539  15.730  0.00  0.00    +0.000 A 
ATOM     15  C   UNL     1       6.761   5.874  17.094  0.00  0.00    +0.000 A 
ATOM     16  C   UNL     1       4.232   3.529  18.213  0.00  0.00    +0.000 C 
ATOM     17  O   UNL     1       3.470   2.603  18.000  0.00  0.00    +0.000 OA
BRANCH  15  18
ATOM     18  C   UNL     1       7.363   7.164  17.592  0.00  0.00    +0.000 C 
ATOM     19  F   UNL     1       8.230   7.745  16.722  0.00  0.00    +0.000 F 
ATOM     20  F   UNL     1       6.421   8.101  17.863  0.00  0.00    +0.000 F 
ATOM     21  F   UNL     1       8.063   6.987  18.750  0.00  0.00    +0.000 F 
ENDBRANCH  15  18
ENDBRANCH   5   7
BRANCH   1  22
ATOM     22  C   UNL     1       1.269   8.073  21.071  0.00  0.00    +0.000 C 
BRANCH  22  23
ATOM     23  N   UNL     1       1.056   9.515  20.906  0.00  0.00    +0.000 NA
ATOM     24  H   UNL     1       1.525   9.975  21.695  0.00  0.00    +0.000 HD
BRANCH  23  25
ATOM     25  C   UNL     1      -0.364   9.909  20.973  0.00  0.00    +0.000 C 
BRANCH  25  31
ATOM     26  C   UNL     1       0.001  13.000  20.934  0.00  0.00    +0.000 C 
ATOM     27  N   UNL     1      -0.557  12.191  19.881  0.00  0.00    +0.000 N 
ATOM     28  C   UNL     1      -0.999  12.640  18.673  0.00  0.00    +0.000 A 
ATOM     29  N   UNL     1      -1.458  11.634  17.967  0.00  0.00    +0.000 NA
ATOM     30  N   UNL     1      -1.310  10.497  18.725  0.00  0.00    +0.000 NA
ATOM     31  C   UNL     1      -0.752  10.834  19.868  0.00  0.00    +0.000 A 
ENDBRANCH  25  31
ENDBRANCH  23  25
ENDBRANCH  22  23
ENDBRANCH   1  22
TORSDOF 6
ENDMDL
