MODEL 1
REMARK VINA RESULT:      -7.4      0.000      0.000
REMARK  Name = 
REMARK  5 active torsions:
REMARK  status: ('A' for Active; 'I' for Inactive)
REMARK    1  A    between atoms: C_1  and  C_2
REMARK    2  A    between atoms: N_5  and  S_6
REMARK    3  A    between atoms: S_6  and  C_9
REMARK    4  A    between atoms: N_19  and  C_20
REMARK    5  A    between atoms: C_23  and  C_24
REMARK                            x       y       z     vdW  Elec       q    Type
REMARK                         _______ _______ _______ _____ _____    ______ ____
ROOT
ATOM      1  C   UNL     1       2.921  13.724  18.590  0.00  0.00    +0.000 C 
ATOM      2  C   UNL     1       1.916  12.808  19.171  0.00  0.00    +0.000 A 
ATOM      3  N   UNL     1       1.818  11.515  18.754  0.00  0.00    +0.000 NA
ATOM      4  C   UNL     1       0.818  11.036  19.455  0.00  0.00    +0.000 A 
ATOM      5  N   UNL     1       0.465   9.670  19.264  0.00  0.00    +0.000 N 
ATOM      6  N   UNL     1       0.297  12.035  20.283  0.00  0.00    +0.000 N 
ATOM      7  N   UNL     1       1.033  13.173  20.106  0.00  0.00    +0.000 NA
ATOM      8  H   UNL     1      -0.531   9.479  19.232  0.00  0.00    +0.000 HD
ENDROOT
BRANCH   6   9
ATOM      9  C   UNL     1      -0.789  12.004  21.207  0.00  0.00    +0.000 A 
ATOM     10  C   UNL     1      -1.984  12.674  20.896  0.00  0.00    +0.000 A 
ATOM     11  C   UNL     1      -3.026  12.743  21.834  0.00  0.00    +0.000 A 
ATOM     12  C   UNL     1      -2.898  12.122  23.079  0.00  0.00    +0.000 A 
ATOM     13  C   UNL     1      -1.735  11.407  23.367  0.00  0.00    +0.000 A 
ATOM     14  C   UNL     1      -0.694  11.341  22.436  0.00  0.00    +0.000 A 
BRANCH  12  15
ATOM     15  C   UNL     1      -3.945  12.215  24.057  0.00  0.00    +0.000 C 
ATOM     16  N   UNL     1      -4.789  12.305  24.845  0.00  0.00    +0.000 NA
ENDBRANCH  12  15
ENDBRANCH   6   9
BRANCH   5  17
ATOM     17  S   UNL     1       1.065   8.665  20.504  0.00  0.00    +0.000 S 
ATOM     18  O   UNL     1       1.954   9.403  21.371  0.00  0.00    +0.000 OA
ATOM     19  O   UNL     1      -0.131   8.040  21.025  0.00  0.00    +0.000 OA
BRANCH  17  20
ATOM     20  C   UNL     1       2.039   7.514  19.551  0.00  0.00    +0.000 A 
ATOM     21  C   UNL     1       2.638   8.086  18.411  0.00  0.00    +0.000 A 
ATOM     22  C   UNL     1       3.414   7.316  17.562  0.00  0.00    +0.000 A 
ATOM     23  C   UNL     1       3.625   5.976  17.861  0.00  0.00    +0.000 A 
ATOM     24  C   UNL     1       3.061   5.386  19.003  0.00  0.00    +0.000 A 
ATOM     25  C   UNL     1       3.345   4.036  19.261  0.00  0.00    +0.000 A 
ATOM     26  C   UNL     1       2.814   3.385  20.368  0.00  0.00    +0.000 A 
ATOM     27  C   UNL     1       1.972   4.076  21.222  0.00  0.00    +0.000 A 
ATOM     28  C   UNL     1       1.683   5.426  20.984  0.00  0.00    +0.000 A 
ATOM     29  C   UNL     1       2.228   6.137  19.877  0.00  0.00    +0.000 A 
ENDBRANCH  17  20
ENDBRANCH   5  17
TORSDOF 4
ENDMDL
MODEL 2
REMARK VINA RESULT:      -7.2      2.470      3.947
REMARK  Name = 
REMARK  5 active torsions:
REMARK  status: ('A' for Active; 'I' for Inactive)
REMARK    1  A    between atoms: C_1  and  C_2
REMARK    2  A    between atoms: N_5  and  S_6
REMARK    3  A    between atoms: S_6  and  C_9
REMARK    4  A    between atoms: N_19  and  C_20
REMARK    5  A    between atoms: C_23  and  C_24
REMARK                            x       y       z     vdW  Elec       q    Type
REMARK                         _______ _______ _______ _____ _____    ______ ____
ROOT
ATOM      1  C   UNL     1      -1.100  14.141  23.285  0.00  0.00    +0.000 C 
ATOM      2  C   UNL     1      -0.889  13.161  22.199  0.00  0.00    +0.000 A 
ATOM      3  N   UNL     1       0.253  12.422  22.131  0.00  0.00    +0.000 NA
ATOM      4  C   UNL     1       0.098  11.707  21.042  0.00  0.00    +0.000 A 
ATOM      5  N   UNL     1       1.133  10.794  20.691  0.00  0.00    +0.000 N 
ATOM      6  N   UNL     1      -1.125  12.019  20.440  0.00  0.00    +0.000 N 
ATOM      7  N   UNL     1      -1.765  12.946  21.213  0.00  0.00    +0.000 NA
ATOM      8  H   UNL     1       1.364  10.759  19.704  0.00  0.00    +0.000 HD
ENDROOT
BRANCH   6   9
ATOM      9  C   UNL     1      -1.726  11.522  19.246  0.00  0.00    +0.000 A 
ATOM     10  C   UNL     1      -0.963  10.754  18.352  0.00  0.00    +0.000 A 
ATOM     11  C   UNL     1      -1.506  10.343  17.124  0.00  0.00    +0.000 A 
ATOM     12  C   UNL     1      -2.822  10.671  16.787  0.00  0.00    +0.000 A 
ATOM     13  C   UNL     1      -3.599  11.385  17.700  0.00  0.00    +0.000 A 
ATOM     14  C   UNL     1      -3.060  11.798  18.922  0.00  0.00    +0.000 A 
BRANCH  12  15
ATOM     15  C   UNL     1      -3.374  10.285  15.520  0.00  0.00    +0.000 C 
ATOM     16  N   UNL     1      -3.830   9.983  14.499  0.00  0.00    +0.000 NA
ENDBRANCH  12  15
ENDBRANCH   6   9
BRANCH   5  17
ATOM     17  S   UNL     1       0.752   9.187  21.112  0.00  0.00    +0.000 S 
ATOM     18  O   UNL     1       1.342   8.842  22.386  0.00  0.00    +0.000 OA
ATOM     19  O   UNL     1      -0.680   9.129  20.918  0.00  0.00    +0.000 OA
BRANCH  17  20
ATOM     20  C   UNL     1       1.620   8.298  19.833  0.00  0.00    +0.000 A 
ATOM     21  C   UNL     1       1.950   9.089  18.715  0.00  0.00    +0.000 A 
ATOM     22  C   UNL     1       2.612   8.538  17.633  0.00  0.00    +0.000 A 
ATOM     23  C   UNL     1       2.981   7.200  17.670  0.00  0.00    +0.000 A 
ATOM     24  C   UNL     1       2.688   6.393  18.781  0.00  0.00    +0.000 A 
ATOM     25  C   UNL     1       3.122   5.058  18.765  0.00  0.00    +0.000 A 
ATOM     26  C   UNL     1       2.859   4.200  19.826  0.00  0.00    +0.000 A 
ATOM     27  C   UNL     1       2.138   4.666  20.913  0.00  0.00    +0.000 A 
ATOM     28  C   UNL     1       1.704   5.998  20.949  0.00  0.00    +0.000 A 
ATOM     29  C   UNL     1       1.976   6.916  19.895  0.00  0.00    +0.000 A 
ENDBRANCH  17  20
ENDBRANCH   5  17
TORSDOF 4
ENDMDL
MODEL 3
REMARK VINA RESULT:      -7.1      4.022      8.622
REMARK  Name = 
REMARK  5 active torsions:
REMARK  status: ('A' for Active; 'I' for Inactive)
REMARK    1  A    between atoms: C_1  and  C_2
REMARK    2  A    between atoms: N_5  and  S_6
REMARK    3  A    between atoms: S_6  and  C_9
REMARK    4  A    between atoms: N_19  and  C_20
REMARK    5  A    between atoms: C_23  and  C_24
REMARK                            x       y       z     vdW  Elec       q    Type
REMARK                         _______ _______ _______ _____ _____    ______ ____
ROOT
ATOM      1  C   UNL     1       3.707   0.988  18.130  0.00  0.00    +0.000 C 
ATOM      2  C   UNL     1       3.800   2.463  18.149  0.00  0.00    +0.000 A 
ATOM      3  N   UNL     1       2.685   3.237  18.269  0.00  0.00    +0.000 NA
ATOM      4  C   UNL     1       3.149   4.462  18.215  0.00  0.00    +0.000 A 
ATOM      5  N   UNL     1       2.217   5.533  18.335  0.00  0.00    +0.000 N 
ATOM      6  N   UNL     1       4.536   4.439  18.046  0.00  0.00    +0.000 N 
ATOM      7  N   UNL     1       4.948   3.136  18.028  0.00  0.00    +0.000 NA
ATOM      8  H   UNL     1       2.371   6.315  17.708  0.00  0.00    +0.000 HD
ENDROOT
BRANCH   6   9
ATOM      9  C   UNL     1       5.475   5.504  17.920  0.00  0.00    +0.000 A 
ATOM     10  C   UNL     1       6.700   5.434  18.603  0.00  0.00    +0.000 A 
ATOM     11  C   UNL     1       7.594   6.517  18.575  0.00  0.00    +0.000 A 
ATOM     12  C   UNL     1       7.288   7.667  17.844  0.00  0.00    +0.000 A 
ATOM     13  C   UNL     1       6.098   7.714  17.117  0.00  0.00    +0.000 A 
ATOM     14  C   UNL     1       5.205   6.639  17.147  0.00  0.00    +0.000 A 
BRANCH  12  15
ATOM     15  C   UNL     1       8.180   8.792  17.836  0.00  0.00    +0.000 C 
ATOM     16  N   UNL     1       8.912   9.689  17.827  0.00  0.00    +0.000 NA
ENDBRANCH  12  15
ENDBRANCH   6   9
BRANCH   5  17
ATOM     17  S   UNL     1       2.210   6.216  19.897  0.00  0.00    +0.000 S 
ATOM     18  O   UNL     1       1.149   5.648  20.696  0.00  0.00    +0.000 OA
ATOM     19  O   UNL     1       3.592   6.102  20.309  0.00  0.00    +0.000 OA
BRANCH  17  20
ATOM     20  C   UNL     1       1.781   7.905  19.515  0.00  0.00    +0.000 A 
ATOM     21  C   UNL     1       2.112   8.291  18.201  0.00  0.00    +0.000 A 
ATOM     22  C   UNL     1       1.854   9.577  17.759  0.00  0.00    +0.000 A 
ATOM     23  C   UNL     1       1.235  10.479  18.614  0.00  0.00    +0.000 A 
ATOM     24  C   UNL     1       0.871  10.114  19.920  0.00  0.00    +0.000 A 
ATOM     25  C   UNL     1       0.217  11.067  20.717  0.00  0.00    +0.000 A 
ATOM     26  C   UNL     1      -0.163  10.778  22.022  0.00  0.00    +0.000 A 
ATOM     27  C   UNL     1       0.127   9.533  22.554  0.00  0.00    +0.000 A 
ATOM     28  C   UNL     1       0.773   8.568  21.770  0.00  0.00    +0.000 A 
ATOM     29  C   UNL     1       1.155   8.814  20.421  0.00  0.00    +0.000 A 
ENDBRANCH  17  20
ENDBRANCH   5  17
TORSDOF 4
ENDMDL
MODEL 4
REMARK VINA RESULT:      -7.1      3.683      8.971
REMARK  Name = 
REMARK  5 active torsions:
REMARK  status: ('A' for Active; 'I' for Inactive)
REMARK    1  A    between atoms: C_1  and  C_2
REMARK    2  A    between atoms: N_5  and  S_6
REMARK    3  A    between atoms: S_6  and  C_9
REMARK    4  A    between atoms: N_19  and  C_20
REMARK    5  A    between atoms: C_23  and  C_24
REMARK                            x       y       z     vdW  Elec       q    Type
REMARK                         _______ _______ _______ _____ _____    ______ ____
ROOT
ATOM      1  C   UNL     1       1.888   2.808  21.573  0.00  0.00    +0.000 C 
ATOM      2  C   UNL     1       2.298   3.668  20.442  0.00  0.00    +0.000 A 
ATOM      3  N   UNL     1       1.549   4.742  20.068  0.00  0.00    +0.000 NA
ATOM      4  C   UNL     1       2.195   5.228  19.035  0.00  0.00    +0.000 A 
ATOM      5  N   UNL     1       1.670   6.394  18.408  0.00  0.00    +0.000 N 
ATOM      6  N   UNL     1       3.324   4.446  18.770  0.00  0.00    +0.000 N 
ATOM      7  N   UNL     1       3.391   3.451  19.705  0.00  0.00    +0.000 NA
ATOM      8  H   UNL     1       1.698   6.392  17.395  0.00  0.00    +0.000 HD
ENDROOT
BRANCH   6   9
ATOM      9  C   UNL     1       4.318   4.563  17.755  0.00  0.00    +0.000 A 
ATOM     10  C   UNL     1       5.354   5.499  17.901  0.00  0.00    +0.000 A 
ATOM     11  C   UNL     1       6.282   5.702  16.867  0.00  0.00    +0.000 A 
ATOM     12  C   UNL     1       6.204   4.954  15.690  0.00  0.00    +0.000 A 
ATOM     13  C   UNL     1       5.210   3.982  15.567  0.00  0.00    +0.000 A 
ATOM     14  C   UNL     1       4.282   3.782  16.593  0.00  0.00    +0.000 A 
BRANCH  12  15
ATOM     15  C   UNL     1       7.128   5.177  14.615  0.00  0.00    +0.000 C 
ATOM     16  N   UNL     1       7.883   5.346  13.753  0.00  0.00    +0.000 NA
ENDBRANCH  12  15
ENDBRANCH   6   9
BRANCH   5  17
ATOM     17  S   UNL     1       2.501   7.809  18.869  0.00  0.00    +0.000 S 
ATOM     18  O   UNL     1       3.187   7.610  20.126  0.00  0.00    +0.000 OA
ATOM     19  O   UNL     1       3.233   8.162  17.672  0.00  0.00    +0.000 OA
BRANCH  17  20
ATOM     20  C   UNL     1       1.133   8.918  19.146  0.00  0.00    +0.000 A 
ATOM     21  C   UNL     1       0.527   9.380  17.961  0.00  0.00    +0.000 A 
ATOM     22  C   UNL     1      -0.540  10.260  18.011  0.00  0.00    +0.000 A 
ATOM     23  C   UNL     1      -1.033  10.661  19.246  0.00  0.00    +0.000 A 
ATOM     24  C   UNL     1      -0.465  10.198  20.443  0.00  0.00    +0.000 A 
ATOM     25  C   UNL     1      -1.037  10.618  21.654  0.00  0.00    +0.000 A 
ATOM     26  C   UNL     1      -0.522  10.206  22.878  0.00  0.00    +0.000 A 
ATOM     27  C   UNL     1       0.590   9.381  22.903  0.00  0.00    +0.000 A 
ATOM     28  C   UNL     1       1.169   8.947  21.703  0.00  0.00    +0.000 A 
ATOM     29  C   UNL     1       0.655   9.323  20.430  0.00  0.00    +0.000 A 
ENDBRANCH  17  20
ENDBRANCH   5  17
TORSDOF 4
ENDMDL
MODEL 5
REMARK VINA RESULT:      -7.0      6.246      8.991
REMARK  Name = 
REMARK  5 active torsions:
REMARK  status: ('A' for Active; 'I' for Inactive)
REMARK    1  A    between atoms: C_1  and  C_2
REMARK    2  A    between atoms: N_5  and  S_6
REMARK    3  A    between atoms: S_6  and  C_9
REMARK    4  A    between atoms: N_19  and  C_20
REMARK    5  A    between atoms: C_23  and  C_24
REMARK                            x       y       z     vdW  Elec       q    Type
REMARK                         _______ _______ _______ _____ _____    ______ ____
ROOT
ATOM      1  C   UNL     1       7.055   3.970  12.150  0.00  0.00    +0.000 C 
ATOM      2  C   UNL     1       6.638   4.071  13.565  0.00  0.00    +0.000 A 
ATOM      3  N   UNL     1       7.469   4.597  14.507  0.00  0.00    +0.000 NA
ATOM      4  C   UNL     1       6.784   4.492  15.621  0.00  0.00    +0.000 A 
ATOM      5  N   UNL     1       7.380   4.982  16.818  0.00  0.00    +0.000 N 
ATOM      6  N   UNL     1       5.549   3.891  15.363  0.00  0.00    +0.000 N 
ATOM      7  N   UNL     1       5.457   3.644  14.023  0.00  0.00    +0.000 NA
ATOM      8  H   UNL     1       7.248   4.400  17.638  0.00  0.00    +0.000 HD
ENDROOT
BRANCH   6   9
ATOM      9  C   UNL     1       4.477   3.555  16.242  0.00  0.00    +0.000 A 
ATOM     10  C   UNL     1       4.584   2.424  17.067  0.00  0.00    +0.000 A 
ATOM     11  C   UNL     1       3.501   2.017  17.863  0.00  0.00    +0.000 A 
ATOM     12  C   UNL     1       2.311   2.749  17.865  0.00  0.00    +0.000 A 
ATOM     13  C   UNL     1       2.224   3.906  17.090  0.00  0.00    +0.000 A 
ATOM     14  C   UNL     1       3.300   4.311  16.294  0.00  0.00    +0.000 A 
BRANCH  12  15
ATOM     15  C   UNL     1       1.187   2.323  18.649  0.00  0.00    +0.000 C 
ATOM     16  N   UNL     1       0.274   1.974  19.269  0.00  0.00    +0.000 NA
ENDBRANCH  12  15
ENDBRANCH   6   9
BRANCH   5  17
ATOM     17  S   UNL     1       6.777   6.513  17.264  0.00  0.00    +0.000 S 
ATOM     18  O   UNL     1       7.761   7.244  18.029  0.00  0.00    +0.000 OA
ATOM     19  O   UNL     1       6.265   7.038  16.018  0.00  0.00    +0.000 OA
BRANCH  17  20
ATOM     20  C   UNL     1       5.454   6.038  18.362  0.00  0.00    +0.000 A 
ATOM     21  C   UNL     1       5.759   4.924  19.170  0.00  0.00    +0.000 A 
ATOM     22  C   UNL     1       4.827   4.427  20.064  0.00  0.00    +0.000 A 
ATOM     23  C   UNL     1       3.594   5.055  20.183  0.00  0.00    +0.000 A 
ATOM     24  C   UNL     1       3.272   6.181  19.408  0.00  0.00    +0.000 A 
ATOM     25  C   UNL     1       2.021   6.786  19.606  0.00  0.00    +0.000 A 
ATOM     26  C   UNL     1       1.632   7.898  18.869  0.00  0.00    +0.000 A 
ATOM     27  C   UNL     1       2.487   8.407  17.906  0.00  0.00    +0.000 A 
ATOM     28  C   UNL     1       3.743   7.820  17.701  0.00  0.00    +0.000 A 
ATOM     29  C   UNL     1       4.191   6.697  18.453  0.00  0.00    +0.000 A 
ENDBRANCH  17  20
ENDBRANCH   5  17
TORSDOF 4
ENDMDL
MODEL 6
REMARK VINA RESULT:      -6.8      1.021      1.122
REMARK  Name = 
REMARK  5 active torsions:
REMARK  status: ('A' for Active; 'I' for Inactive)
REMARK    1  A    between atoms: C_1  and  C_2
REMARK    2  A    between atoms: N_5  and  S_6
REMARK    3  A    between atoms: S_6  and  C_9
REMARK    4  A    between atoms: N_19  and  C_20
REMARK    5  A    between atoms: C_23  and  C_24
REMARK                            x       y       z     vdW  Elec       q    Type
REMARK                         _______ _______ _______ _____ _____    ______ ____
ROOT
ATOM      1  C   UNL     1       2.283  14.926  19.281  0.00  0.00    +0.000 C 
ATOM      2  C   UNL     1       1.296  13.893  19.660  0.00  0.00    +0.000 A 
ATOM      3  N   UNL     1       1.333  12.649  19.107  0.00  0.00    +0.000 NA
ATOM      4  C   UNL     1       0.308  12.036  19.649  0.00  0.00    +0.000 A 
ATOM      5  N   UNL     1       0.074  10.679  19.286  0.00  0.00    +0.000 N 
ATOM      6  N   UNL     1      -0.360  12.905  20.516  0.00  0.00    +0.000 N 
ATOM      7  N   UNL     1       0.305  14.099  20.532  0.00  0.00    +0.000 NA
ATOM      8  H   UNL     1      -0.897  10.431  19.132  0.00  0.00    +0.000 HD
ENDROOT
BRANCH   6   9
ATOM      9  C   UNL     1      -1.524  12.707  21.316  0.00  0.00    +0.000 A 
ATOM     10  C   UNL     1      -2.777  13.121  20.834  0.00  0.00    +0.000 A 
ATOM     11  C   UNL     1      -3.918  13.031  21.646  0.00  0.00    +0.000 A 
ATOM     12  C   UNL     1      -3.828  12.501  22.936  0.00  0.00    +0.000 A 
ATOM     13  C   UNL     1      -2.595  12.036  23.394  0.00  0.00    +0.000 A 
ATOM     14  C   UNL     1      -1.456  12.129  22.589  0.00  0.00    +0.000 A 
BRANCH  12  15
ATOM     15  C   UNL     1      -4.983  12.435  23.786  0.00  0.00    +0.000 C 
ATOM     16  N   UNL     1      -5.911  12.395  24.477  0.00  0.00    +0.000 NA
ENDBRANCH  12  15
ENDBRANCH   6   9
BRANCH   5  17
ATOM     17  S   UNL     1       0.625   9.585  20.472  0.00  0.00    +0.000 S 
ATOM     18  O   UNL     1       1.455  10.262  21.442  0.00  0.00    +0.000 OA
ATOM     19  O   UNL     1      -0.586   8.906  20.877  0.00  0.00    +0.000 OA
BRANCH  17  20
ATOM     20  C   UNL     1       1.666   8.526  19.484  0.00  0.00    +0.000 A 
ATOM     21  C   UNL     1       2.191   9.155  18.338  0.00  0.00    +0.000 A 
ATOM     22  C   UNL     1       3.006   8.459  17.463  0.00  0.00    +0.000 A 
ATOM     23  C   UNL     1       3.332   7.138  17.742  0.00  0.00    +0.000 A 
ATOM     24  C   UNL     1       2.844   6.493  18.889  0.00  0.00    +0.000 A 
ATOM     25  C   UNL     1       3.242   5.168  19.125  0.00  0.00    +0.000 A 
ATOM     26  C   UNL     1       2.791   4.465  20.236  0.00  0.00    +0.000 A 
ATOM     27  C   UNL     1       1.915   5.078  21.117  0.00  0.00    +0.000 A 
ATOM     28  C   UNL     1       1.513   6.402  20.901  0.00  0.00    +0.000 A 
ATOM     29  C   UNL     1       1.973   7.166  19.791  0.00  0.00    +0.000 A 
ENDBRANCH  17  20
ENDBRANCH   5  17
TORSDOF 4
ENDMDL
MODEL 7
REMARK VINA RESULT:      -6.8      2.950      8.408
REMARK  Name = 
REMARK  5 active torsions:
REMARK  status: ('A' for Active; 'I' for Inactive)
REMARK    1  A    between atoms: C_1  and  C_2
REMARK    2  A    between atoms: N_5  and  S_6
REMARK    3  A    between atoms: S_6  and  C_9
REMARK    4  A    between atoms: N_19  and  C_20
REMARK    5  A    between atoms: C_23  and  C_24
REMARK                            x       y       z     vdW  Elec       q    Type
REMARK                         _______ _______ _______ _____ _____    ______ ____
ROOT
ATOM      1  C   UNL     1      -1.783  11.549  23.111  0.00  0.00    +0.000 C 
ATOM      2  C   UNL     1      -0.935  11.336  21.919  0.00  0.00    +0.000 A 
ATOM      3  N   UNL     1      -0.705  12.341  21.030  0.00  0.00    +0.000 NA
ATOM      4  C   UNL     1       0.044  11.780  20.111  0.00  0.00    +0.000 A 
ATOM      5  N   UNL     1       0.484  12.590  19.025  0.00  0.00    +0.000 N 
ATOM      6  N   UNL     1       0.257  10.436  20.428  0.00  0.00    +0.000 N 
ATOM      7  N   UNL     1      -0.365  10.166  21.614  0.00  0.00    +0.000 NA
ATOM      8  H   UNL     1       0.454  12.146  18.113  0.00  0.00    +0.000 HD
ENDROOT
BRANCH   6   9
ATOM      9  C   UNL     1       0.984   9.422  19.737  0.00  0.00    +0.000 A 
ATOM     10  C   UNL     1       1.491   8.323  20.450  0.00  0.00    +0.000 A 
ATOM     11  C   UNL     1       2.297   7.369  19.809  0.00  0.00    +0.000 A 
ATOM     12  C   UNL     1       2.581   7.484  18.446  0.00  0.00    +0.000 A 
ATOM     13  C   UNL     1       2.029   8.542  17.724  0.00  0.00    +0.000 A 
ATOM     14  C   UNL     1       1.230   9.497  18.361  0.00  0.00    +0.000 A 
BRANCH  12  15
ATOM     15  C   UNL     1       3.430   6.531  17.789  0.00  0.00    +0.000 C 
ATOM     16  N   UNL     1       4.104   5.760  17.249  0.00  0.00    +0.000 NA
ENDBRANCH  12  15
ENDBRANCH   6   9
BRANCH   5  17
ATOM     17  S   UNL     1       2.099  13.104  19.211  0.00  0.00    +0.000 S 
ATOM     18  O   UNL     1       2.459  13.155  20.610  0.00  0.00    +0.000 OA
ATOM     19  O   UNL     1       2.821  12.254  18.290  0.00  0.00    +0.000 OA
BRANCH  17  20
ATOM     20  C   UNL     1       1.984  14.775  18.600  0.00  0.00    +0.000 A 
ATOM     21  C   UNL     1       3.082  15.169  17.811  0.00  0.00    +0.000 A 
ATOM     22  C   UNL     1       3.145  16.443  17.276  0.00  0.00    +0.000 A 
ATOM     23  C   UNL     1       2.097  17.327  17.497  0.00  0.00    +0.000 A 
ATOM     24  C   UNL     1       0.978  16.954  18.259  0.00  0.00    +0.000 A 
ATOM     25  C   UNL     1      -0.061  17.886  18.412  0.00  0.00    +0.000 A 
ATOM     26  C   UNL     1      -1.194  17.589  19.160  0.00  0.00    +0.000 A 
ATOM     27  C   UNL     1      -1.291  16.356  19.783  0.00  0.00    +0.000 A 
ATOM     28  C   UNL     1      -0.268  15.411  19.634  0.00  0.00    +0.000 A 
ATOM     29  C   UNL     1       0.896  15.665  18.855  0.00  0.00    +0.000 A 
ENDBRANCH  17  20
ENDBRANCH   5  17
TORSDOF 4
ENDMDL
MODEL 8
REMARK VINA RESULT:      -6.7      7.288     10.370
REMARK  Name = 
REMARK  5 active torsions:
REMARK  status: ('A' for Active; 'I' for Inactive)
REMARK    1  A    between atoms: C_1  and  C_2
REMARK    2  A    between atoms: N_5  and  S_6
REMARK    3  A    between atoms: S_6  and  C_9
REMARK    4  A    between atoms: N_19  and  C_20
REMARK    5  A    between atoms: C_23  and  C_24
REMARK                            x       y       z     vdW  Elec       q    Type
REMARK                         _______ _______ _______ _____ _____    ______ ____
ROOT
ATOM      1  C   UNL     1       1.999  15.085  21.779  0.00  0.00    +0.000 C 
ATOM      2  C   UNL     1       3.469  15.224  21.710  0.00  0.00    +0.000 A 
ATOM      3  N   UNL     1       4.229  15.225  22.839  0.00  0.00    +0.000 NA
ATOM      4  C   UNL     1       5.451  15.397  22.393  0.00  0.00    +0.000 A 
ATOM      5  N   UNL     1       6.510  15.425  23.345  0.00  0.00    +0.000 N 
ATOM      6  N   UNL     1       5.435  15.518  21.001  0.00  0.00    +0.000 N 
ATOM      7  N   UNL     1       4.146  15.380  20.568  0.00  0.00    +0.000 NA
ATOM      8  H   UNL     1       7.222  16.128  23.181  0.00  0.00    +0.000 HD
ENDROOT
BRANCH   6   9
ATOM      9  C   UNL     1       6.497  15.729  20.074  0.00  0.00    +0.000 A 
ATOM     10  C   UNL     1       6.922  14.673  19.251  0.00  0.00    +0.000 A 
ATOM     11  C   UNL     1       8.032  14.830  18.407  0.00  0.00    +0.000 A 
ATOM     12  C   UNL     1       8.713  16.049  18.353  0.00  0.00    +0.000 A 
ATOM     13  C   UNL     1       8.257  17.116  19.126  0.00  0.00    +0.000 A 
ATOM     14  C   UNL     1       7.154  16.961  19.972  0.00  0.00    +0.000 A 
BRANCH  12  15
ATOM     15  C   UNL     1       9.870  16.209  17.518  0.00  0.00    +0.000 C 
ATOM     16  N   UNL     1      10.811  16.334  16.856  0.00  0.00    +0.000 NA
ENDBRANCH  12  15
ENDBRANCH   6   9
BRANCH   5  17
ATOM     17  S   UNL     1       7.359  13.948  23.415  0.00  0.00    +0.000 S 
ATOM     18  O   UNL     1       7.787  13.672  24.767  0.00  0.00    +0.000 OA
ATOM     19  O   UNL     1       6.484  13.035  22.713  0.00  0.00    +0.000 OA
BRANCH  17  20
ATOM     20  C   UNL     1       8.798  14.349  22.442  0.00  0.00    +0.000 A 
ATOM     21  C   UNL     1       9.270  15.662  22.641  0.00  0.00    +0.000 A 
ATOM     22  C   UNL     1      10.372  16.127  21.946  0.00  0.00    +0.000 A 
ATOM     23  C   UNL     1      11.032  15.276  21.069  0.00  0.00    +0.000 A 
ATOM     24  C   UNL     1      10.599  13.956  20.869  0.00  0.00    +0.000 A 
ATOM     25  C   UNL     1      11.336  13.141  19.994  0.00  0.00    +0.000 A 
ATOM     26  C   UNL     1      10.959  11.827  19.742  0.00  0.00    +0.000 A 
ATOM     27  C   UNL     1       9.825  11.318  20.350  0.00  0.00    +0.000 A 
ATOM     28  C   UNL     1       9.082  12.114  21.232  0.00  0.00    +0.000 A 
ATOM     29  C   UNL     1       9.449  13.456  21.538  0.00  0.00    +0.000 A 
ENDBRANCH  17  20
ENDBRANCH   5  17
TORSDOF 4
ENDMDL
MODEL 9
REMARK VINA RESULT:      -6.7      2.983      7.748
REMARK  Name = 
REMARK  5 active torsions:
REMARK  status: ('A' for Active; 'I' for Inactive)
REMARK    1  A    between atoms: C_1  and  C_2
REMARK    2  A    between atoms: N_5  and  S_6
REMARK    3  A    between atoms: S_6  and  C_9
REMARK    4  A    between atoms: N_19  and  C_20
REMARK    5  A    between atoms: C_23  and  C_24
REMARK                            x       y       z     vdW  Elec       q    Type
REMARK                         _______ _______ _______ _____ _____    ______ ____
ROOT
ATOM      1  C   UNL     1       2.101   8.495  17.976  0.00  0.00    +0.000 C 
ATOM      2  C   UNL     1       1.454   9.723  18.485  0.00  0.00    +0.000 A 
ATOM      3  N   UNL     1       0.354   9.657  19.285  0.00  0.00    +0.000 NA
ATOM      4  C   UNL     1       0.051  10.915  19.503  0.00  0.00    +0.000 A 
ATOM      5  N   UNL     1      -1.067  11.196  20.340  0.00  0.00    +0.000 N 
ATOM      6  N   UNL     1       0.950  11.744  18.827  0.00  0.00    +0.000 N 
ATOM      7  N   UNL     1       1.869  10.958  18.189  0.00  0.00    +0.000 NA
ATOM      8  H   UNL     1      -1.665  11.952  20.026  0.00  0.00    +0.000 HD
ENDROOT
BRANCH   6   9
ATOM      9  C   UNL     1       1.024  13.165  18.746  0.00  0.00    +0.000 A 
ATOM     10  C   UNL     1       2.256  13.809  18.943  0.00  0.00    +0.000 A 
ATOM     11  C   UNL     1       2.330  15.211  18.970  0.00  0.00    +0.000 A 
ATOM     12  C   UNL     1       1.184  15.984  18.773  0.00  0.00    +0.000 A 
ATOM     13  C   UNL     1      -0.030  15.346  18.519  0.00  0.00    +0.000 A 
ATOM     14  C   UNL     1      -0.108  13.950  18.496  0.00  0.00    +0.000 A 
BRANCH  12  15
ATOM     15  C   UNL     1       1.244  17.417  18.832  0.00  0.00    +0.000 C 
ATOM     16  N   UNL     1       1.305  18.573  18.869  0.00  0.00    +0.000 NA
ENDBRANCH  12  15
ENDBRANCH   6   9
BRANCH   5  17
ATOM     17  S   UNL     1      -0.601  11.630  21.921  0.00  0.00    +0.000 S 
ATOM     18  O   UNL     1      -1.486  11.033  22.895  0.00  0.00    +0.000 OA
ATOM     19  O   UNL     1       0.817  11.345  21.934  0.00  0.00    +0.000 OA
BRANCH  17  20
ATOM     20  C   UNL     1      -0.912  13.386  21.884  0.00  0.00    +0.000 A 
ATOM     21  C   UNL     1       0.209  14.168  22.227  0.00  0.00    +0.000 A 
ATOM     22  C   UNL     1       0.121  15.549  22.257  0.00  0.00    +0.000 A 
ATOM     23  C   UNL     1      -1.077  16.163  21.915  0.00  0.00    +0.000 A 
ATOM     24  C   UNL     1      -2.202  15.410  21.545  0.00  0.00    +0.000 A 
ATOM     25  C   UNL     1      -3.369  16.098  21.178  0.00  0.00    +0.000 A 
ATOM     26  C   UNL     1      -4.524  15.417  20.809  0.00  0.00    +0.000 A 
ATOM     27  C   UNL     1      -4.529  14.032  20.824  0.00  0.00    +0.000 A 
ATOM     28  C   UNL     1      -3.371  13.329  21.182  0.00  0.00    +0.000 A 
ATOM     29  C   UNL     1      -2.160  13.988  21.539  0.00  0.00    +0.000 A 
ENDBRANCH  17  20
ENDBRANCH   5  17
TORSDOF 4
ENDMDL
