MODEL 1
REMARK VINA RESULT:      -9.1      0.000      0.000
REMARK  Name = 
REMARK  3 active torsions:
REMARK  status: ('A' for Active; 'I' for Inactive)
REMARK    1  A    between atoms: C_2  and  C_3
REMARK    2  A    between atoms: C_3  and  C_4
REMARK    3  A    between atoms: N_15  and  C_16
REMARK                            x       y       z     vdW  Elec       q    Type
REMARK                         _______ _______ _______ _____ _____    ______ ____
ROOT
ATOM      1  O   UNL     1       2.621   8.543  17.106  0.00  0.00    +0.000 OA
ATOM      2  C   UNL     1       2.754   7.730  18.014  0.00  0.00    +0.000 C 
ATOM      3  N   UNL     1       2.208   7.819  19.282  0.00  0.00    +0.000 N 
ATOM      4  H   UNL     1       2.493   7.122  19.959  0.00  0.00    +0.000 HD
ENDROOT
BRANCH   3   5
ATOM      5  C   UNL     1       1.339   8.828  19.749  0.00  0.00    +0.000 A 
ATOM      6  C   UNL     1       0.888   9.903  18.992  0.00  0.00    +0.000 A 
ATOM      7  N   UNL     1       0.077  10.886  19.459  0.00  0.00    +0.000 NA
ATOM      8  C   UNL     1      -0.323  10.819  20.737  0.00  0.00    +0.000 A 
ATOM      9  C   UNL     1      -1.127  11.828  21.251  0.00  0.00    +0.000 A 
ATOM     10  C   UNL     1      -1.575  11.810  22.574  0.00  0.00    +0.000 A 
ATOM     11  C   UNL     1      -1.220  10.758  23.410  0.00  0.00    +0.000 A 
ATOM     12  C   UNL     1      -0.414   9.730  22.920  0.00  0.00    +0.000 A 
ATOM     13  C   UNL     1       0.047   9.758  21.589  0.00  0.00    +0.000 A 
ATOM     14  C   UNL     1       0.890   8.755  21.072  0.00  0.00    +0.000 A 
ENDBRANCH   3   5
BRANCH   2  15
ATOM     15  C   UNL     1       3.577   6.476  17.807  0.00  0.00    +0.000 C 
BRANCH  15  16
ATOM     16  C   UNL     1       3.747   5.640  19.088  0.00  0.00    +0.000 C 
ATOM     17  C   UNL     1       5.225   5.275  19.266  0.00  0.00    +0.000 C 
ATOM     18  C   UNL     1       5.669   4.355  18.145  0.00  0.00    +0.000 C 
ATOM     19  O   UNL     1       6.765   4.450  17.596  0.00  0.00    +0.000 OA
ATOM     20  N   UNL     1       4.791   3.347  17.827  0.00  0.00    +0.000 N 
ATOM     21  C   UNL     1       3.532   3.224  18.423  0.00  0.00    +0.000 A 
ATOM     22  C   UNL     1       2.871   1.998  18.400  0.00  0.00    +0.000 A 
ATOM     23  C   UNL     1       1.685   1.851  19.118  0.00  0.00    +0.000 A 
ATOM     24  C   UNL     1       1.140   2.937  19.807  0.00  0.00    +0.000 A 
ATOM     25  C   UNL     1       1.774   4.182  19.775  0.00  0.00    +0.000 A 
ATOM     26  C   UNL     1       2.980   4.331  19.086  0.00  0.00    +0.000 A 
ATOM     27  H   UNL     1       5.145   2.628  17.209  0.00  0.00    +0.000 HD
ENDBRANCH  15  16
ENDBRANCH   2  15
TORSDOF 3
ENDMDL
MODEL 2
REMARK VINA RESULT:      -9.1      1.837      3.418
REMARK  Name = 
REMARK  3 active torsions:
REMARK  status: ('A' for Active; 'I' for Inactive)
REMARK    1  A    between atoms: C_2  and  C_3
REMARK    2  A    between atoms: C_3  and  C_4
REMARK    3  A    between atoms: N_15  and  C_16
REMARK                            x       y       z     vdW  Elec       q    Type
REMARK                         _______ _______ _______ _____ _____    ______ ____
ROOT
ATOM      1  O   UNL     1       2.328   7.983  18.763  0.00  0.00    +0.000 OA
ATOM      2  C   UNL     1       2.263   7.196  19.702  0.00  0.00    +0.000 C 
ATOM      3  N   UNL     1       1.694   7.440  20.938  0.00  0.00    +0.000 N 
ATOM      4  H   UNL     1       1.808   6.728  21.650  0.00  0.00    +0.000 HD
ENDROOT
BRANCH   3   5
ATOM      5  C   UNL     1       1.019   8.615  21.330  0.00  0.00    +0.000 A 
ATOM      6  C   UNL     1       0.999   9.128  22.622  0.00  0.00    +0.000 A 
ATOM      7  N   UNL     1       0.320  10.243  22.997  0.00  0.00    +0.000 NA
ATOM      8  C   UNL     1      -0.378  10.899  22.060  0.00  0.00    +0.000 A 
ATOM      9  C   UNL     1      -1.108  12.025  22.422  0.00  0.00    +0.000 A 
ATOM     10  C   UNL     1      -1.854  12.749  21.489  0.00  0.00    +0.000 A 
ATOM     11  C   UNL     1      -1.871  12.351  20.157  0.00  0.00    +0.000 A 
ATOM     12  C   UNL     1      -1.146  11.225  19.766  0.00  0.00    +0.000 A 
ATOM     13  C   UNL     1      -0.406  10.488  20.712  0.00  0.00    +0.000 A 
ATOM     14  C   UNL     1       0.309   9.327  20.357  0.00  0.00    +0.000 A 
ENDBRANCH   3   5
BRANCH   2  15
ATOM     15  C   UNL     1       2.834   5.800  19.574  0.00  0.00    +0.000 C 
BRANCH  15  16
ATOM     16  C   UNL     1       3.416   5.504  18.180  0.00  0.00    +0.000 C 
ATOM     17  C   UNL     1       3.266   4.011  17.871  0.00  0.00    +0.000 C 
ATOM     18  C   UNL     1       4.120   3.198  18.824  0.00  0.00    +0.000 C 
ATOM     19  O   UNL     1       3.744   2.137  19.319  0.00  0.00    +0.000 OA
ATOM     20  N   UNL     1       5.386   3.685  19.044  0.00  0.00    +0.000 N 
ATOM     21  C   UNL     1       5.834   4.895  18.507  0.00  0.00    +0.000 A 
ATOM     22  C   UNL     1       7.201   5.140  18.393  0.00  0.00    +0.000 A 
ATOM     23  C   UNL     1       7.635   6.285  17.729  0.00  0.00    +0.000 A 
ATOM     24  C   UNL     1       6.708   7.204  17.231  0.00  0.00    +0.000 A 
ATOM     25  C   UNL     1       5.338   6.987  17.405  0.00  0.00    +0.000 A 
ATOM     26  C   UNL     1       4.892   5.824  18.039  0.00  0.00    +0.000 A 
ATOM     27  H   UNL     1       6.021   3.067  19.533  0.00  0.00    +0.000 HD
ENDBRANCH  15  16
ENDBRANCH   2  15
TORSDOF 3
ENDMDL
MODEL 3
REMARK VINA RESULT:      -9.0      1.527      2.893
REMARK  Name = 
REMARK  3 active torsions:
REMARK  status: ('A' for Active; 'I' for Inactive)
REMARK    1  A    between atoms: C_2  and  C_3
REMARK    2  A    between atoms: C_3  and  C_4
REMARK    3  A    between atoms: N_15  and  C_16
REMARK                            x       y       z     vdW  Elec       q    Type
REMARK                         _______ _______ _______ _____ _____    ______ ____
ROOT
ATOM      1  O   UNL     1       2.381   7.520  18.142  0.00  0.00    +0.000 OA
ATOM      2  C   UNL     1       2.503   7.051  19.269  0.00  0.00    +0.000 C 
ATOM      3  N   UNL     1       1.980   7.576  20.436  0.00  0.00    +0.000 N 
ATOM      4  H   UNL     1       2.253   7.133  21.306  0.00  0.00    +0.000 HD
ENDROOT
BRANCH   3   5
ATOM      5  C   UNL     1       1.150   8.711  20.545  0.00  0.00    +0.000 A 
ATOM      6  C   UNL     1       0.925   9.633  19.529  0.00  0.00    +0.000 A 
ATOM      7  N   UNL     1       0.149  10.740  19.653  0.00  0.00    +0.000 NA
ATOM      8  C   UNL     1      -0.446  10.963  20.832  0.00  0.00    +0.000 A 
ATOM      9  C   UNL     1      -1.220  12.105  20.997  0.00  0.00    +0.000 A 
ATOM     10  C   UNL     1      -1.865  12.389  22.203  0.00  0.00    +0.000 A 
ATOM     11  C   UNL     1      -1.745  11.512  23.275  0.00  0.00    +0.000 A 
ATOM     12  C   UNL     1      -0.976  10.357  23.138  0.00  0.00    +0.000 A 
ATOM     13  C   UNL     1      -0.315  10.080  21.924  0.00  0.00    +0.000 A 
ATOM     14  C   UNL     1       0.498   8.941  21.761  0.00  0.00    +0.000 A 
ENDBRANCH   3   5
BRANCH   2  15
ATOM     15  C   UNL     1       3.283   5.772  19.487  0.00  0.00    +0.000 C 
BRANCH  15  16
ATOM     16  C   UNL     1       3.389   4.899  18.224  0.00  0.00    +0.000 C 
ATOM     17  C   UNL     1       3.272   3.422  18.614  0.00  0.00    +0.000 C 
ATOM     18  C   UNL     1       4.462   3.016  19.462  0.00  0.00    +0.000 C 
ATOM     19  O   UNL     1       4.366   2.275  20.438  0.00  0.00    +0.000 OA
ATOM     20  N   UNL     1       5.682   3.471  19.023  0.00  0.00    +0.000 N 
ATOM     21  C   UNL     1       5.819   4.328  17.927  0.00  0.00    +0.000 A 
ATOM     22  C   UNL     1       7.043   4.419  17.268  0.00  0.00    +0.000 A 
ATOM     23  C   UNL     1       7.130   5.165  16.094  0.00  0.00    +0.000 A 
ATOM     24  C   UNL     1       6.015   5.857  15.615  0.00  0.00    +0.000 A 
ATOM     25  C   UNL     1       4.806   5.815  16.315  0.00  0.00    +0.000 A 
ATOM     26  C   UNL     1       4.699   5.042  17.474  0.00  0.00    +0.000 A 
ATOM     27  H   UNL     1       6.494   3.068  19.472  0.00  0.00    +0.000 HD
ENDBRANCH  15  16
ENDBRANCH   2  15
TORSDOF 3
ENDMDL
MODEL 4
REMARK VINA RESULT:      -9.0      1.101      1.615
REMARK  Name = 
REMARK  3 active torsions:
REMARK  status: ('A' for Active; 'I' for Inactive)
REMARK    1  A    between atoms: C_2  and  C_3
REMARK    2  A    between atoms: C_3  and  C_4
REMARK    3  A    between atoms: N_15  and  C_16
REMARK                            x       y       z     vdW  Elec       q    Type
REMARK                         _______ _______ _______ _____ _____    ______ ____
ROOT
ATOM      1  O   UNL     1       2.158   9.136  17.938  0.00  0.00    +0.000 OA
ATOM      2  C   UNL     1       2.295   8.122  18.615  0.00  0.00    +0.000 C 
ATOM      3  N   UNL     1       1.875   7.944  19.920  0.00  0.00    +0.000 N 
ATOM      4  H   UNL     1       2.153   7.087  20.384  0.00  0.00    +0.000 HD
ENDROOT
BRANCH   3   5
ATOM      5  C   UNL     1       1.146   8.869  20.697  0.00  0.00    +0.000 A 
ATOM      6  C   UNL     1       1.220   8.979  22.081  0.00  0.00    +0.000 A 
ATOM      7  N   UNL     1       0.491   9.851  22.823  0.00  0.00    +0.000 NA
ATOM      8  C   UNL     1      -0.357  10.667  22.183  0.00  0.00    +0.000 A 
ATOM      9  C   UNL     1      -1.139  11.548  22.921  0.00  0.00    +0.000 A 
ATOM     10  C   UNL     1      -2.039  12.422  22.308  0.00  0.00    +0.000 A 
ATOM     11  C   UNL     1      -2.164  12.429  20.923  0.00  0.00    +0.000 A 
ATOM     12  C   UNL     1      -1.390  11.557  20.158  0.00  0.00    +0.000 A 
ATOM     13  C   UNL     1      -0.493  10.665  20.780  0.00  0.00    +0.000 A 
ATOM     14  C   UNL     1       0.278   9.748  20.040  0.00  0.00    +0.000 A 
ENDBRANCH   3   5
BRANCH   2  15
ATOM     15  C   UNL     1       2.978   6.901  18.037  0.00  0.00    +0.000 C 
BRANCH  15  16
ATOM     16  C   UNL     1       3.343   5.847  19.098  0.00  0.00    +0.000 C 
ATOM     17  C   UNL     1       4.807   5.429  18.920  0.00  0.00    +0.000 C 
ATOM     18  C   UNL     1       4.983   4.717  17.593  0.00  0.00    +0.000 C 
ATOM     19  O   UNL     1       5.960   4.889  16.867  0.00  0.00    +0.000 OA
ATOM     20  N   UNL     1       4.010   3.797  17.283  0.00  0.00    +0.000 N 
ATOM     21  C   UNL     1       2.881   3.593  18.082  0.00  0.00    +0.000 A 
ATOM     22  C   UNL     1       2.164   2.403  17.978  0.00  0.00    +0.000 A 
ATOM     23  C   UNL     1       1.128   2.151  18.875  0.00  0.00    +0.000 A 
ATOM     24  C   UNL     1       0.780   3.106  19.833  0.00  0.00    +0.000 A 
ATOM     25  C   UNL     1       1.460   4.326  19.893  0.00  0.00    +0.000 A 
ATOM     26  C   UNL     1       2.522   4.574  19.019  0.00  0.00    +0.000 A 
ATOM     27  H   UNL     1       4.204   3.193  16.495  0.00  0.00    +0.000 HD
ENDBRANCH  15  16
ENDBRANCH   2  15
TORSDOF 3
ENDMDL
MODEL 5
REMARK VINA RESULT:      -9.0      2.162      3.401
REMARK  Name = 
REMARK  3 active torsions:
REMARK  status: ('A' for Active; 'I' for Inactive)
REMARK    1  A    between atoms: C_2  and  C_3
REMARK    2  A    between atoms: C_3  and  C_4
REMARK    3  A    between atoms: N_15  and  C_16
REMARK                            x       y       z     vdW  Elec       q    Type
REMARK                         _______ _______ _______ _____ _____    ______ ____
ROOT
ATOM      1  O   UNL     1       1.083   5.770  20.898  0.00  0.00    +0.000 OA
ATOM      2  C   UNL     1       1.981   6.383  20.330  0.00  0.00    +0.000 C 
ATOM      3  N   UNL     1       2.137   7.756  20.288  0.00  0.00    +0.000 N 
ATOM      4  H   UNL     1       2.869   8.121  19.690  0.00  0.00    +0.000 HD
ENDROOT
BRANCH   3   5
ATOM      5  C   UNL     1       1.333   8.709  20.947  0.00  0.00    +0.000 A 
ATOM      6  C   UNL     1       1.269   8.881  22.325  0.00  0.00    +0.000 A 
ATOM      7  N   UNL     1       0.468   9.780  22.952  0.00  0.00    +0.000 NA
ATOM      8  C   UNL     1      -0.314  10.562  22.195  0.00  0.00    +0.000 A 
ATOM      9  C   UNL     1      -1.167  11.469  22.812  0.00  0.00    +0.000 A 
ATOM     10  C   UNL     1      -2.004  12.310  22.075  0.00  0.00    +0.000 A 
ATOM     11  C   UNL     1      -1.990  12.255  20.685  0.00  0.00    +0.000 A 
ATOM     12  C   UNL     1      -1.143  11.355  20.040  0.00  0.00    +0.000 A 
ATOM     13  C   UNL     1      -0.310  10.497  20.787  0.00  0.00    +0.000 A 
ATOM     14  C   UNL     1       0.533   9.553  20.169  0.00  0.00    +0.000 A 
ENDBRANCH   3   5
BRANCH   2  15
ATOM     15  C   UNL     1       3.066   5.636  19.583  0.00  0.00    +0.000 C 
BRANCH  15  16
ATOM     16  C   UNL     1       2.806   5.536  18.070  0.00  0.00    +0.000 C 
ATOM     17  C   UNL     1       1.835   4.382  17.795  0.00  0.00    +0.000 C 
ATOM     18  C   UNL     1       2.484   3.062  18.162  0.00  0.00    +0.000 C 
ATOM     19  O   UNL     1       1.876   2.151  18.721  0.00  0.00    +0.000 OA
ATOM     20  N   UNL     1       3.789   2.913  17.759  0.00  0.00    +0.000 N 
ATOM     21  C   UNL     1       4.509   3.938  17.137  0.00  0.00    +0.000 A 
ATOM     22  C   UNL     1       5.638   3.631  16.380  0.00  0.00    +0.000 A 
ATOM     23  C   UNL     1       6.263   4.640  15.650  0.00  0.00    +0.000 A 
ATOM     24  C   UNL     1       5.794   5.954  15.721  0.00  0.00    +0.000 A 
ATOM     25  C   UNL     1       4.700   6.269  16.532  0.00  0.00    +0.000 A 
ATOM     26  C   UNL     1       4.045   5.258  17.241  0.00  0.00    +0.000 A 
ATOM     27  H   UNL     1       4.176   1.982  17.840  0.00  0.00    +0.000 HD
ENDBRANCH  15  16
ENDBRANCH   2  15
TORSDOF 3
ENDMDL
MODEL 6
REMARK VINA RESULT:      -8.9      1.628      3.138
REMARK  Name = 
REMARK  3 active torsions:
REMARK  status: ('A' for Active; 'I' for Inactive)
REMARK    1  A    between atoms: C_2  and  C_3
REMARK    2  A    between atoms: C_3  and  C_4
REMARK    3  A    between atoms: N_15  and  C_16
REMARK                            x       y       z     vdW  Elec       q    Type
REMARK                         _______ _______ _______ _____ _____    ______ ____
ROOT
ATOM      1  O   UNL     1       2.099   7.603  17.931  0.00  0.00    +0.000 OA
ATOM      2  C   UNL     1       2.259   7.085  19.030  0.00  0.00    +0.000 C 
ATOM      3  N   UNL     1       1.878   7.614  20.250  0.00  0.00    +0.000 N 
ATOM      4  H   UNL     1       2.172   7.117  21.083  0.00  0.00    +0.000 HD
ENDROOT
BRANCH   3   5
ATOM      5  C   UNL     1       1.171   8.818  20.454  0.00  0.00    +0.000 A 
ATOM      6  C   UNL     1       1.140   9.884  19.563  0.00  0.00    +0.000 A 
ATOM      7  N   UNL     1       0.482  11.051  19.783  0.00  0.00    +0.000 NA
ATOM      8  C   UNL     1      -0.187  11.189  20.936  0.00  0.00    +0.000 A 
ATOM      9  C   UNL     1      -0.842  12.385  21.201  0.00  0.00    +0.000 A 
ATOM     10  C   UNL     1      -1.557  12.586  22.385  0.00  0.00    +0.000 A 
ATOM     11  C   UNL     1      -1.629  11.569  23.330  0.00  0.00    +0.000 A 
ATOM     12  C   UNL     1      -0.982  10.357  23.089  0.00  0.00    +0.000 A 
ATOM     13  C   UNL     1      -0.250  10.163  21.900  0.00  0.00    +0.000 A 
ATOM     14  C   UNL     1       0.444   8.965  21.640  0.00  0.00    +0.000 A 
ENDBRANCH   3   5
BRANCH   2  15
ATOM     15  C   UNL     1       2.927   5.731  19.151  0.00  0.00    +0.000 C 
BRANCH  15  16
ATOM     16  C   UNL     1       3.782   5.362  17.926  0.00  0.00    +0.000 C 
ATOM     17  C   UNL     1       3.862   3.836  17.801  0.00  0.00    +0.000 C 
ATOM     18  C   UNL     1       4.615   3.259  18.983  0.00  0.00    +0.000 C 
ATOM     19  O   UNL     1       4.279   2.220  19.548  0.00  0.00    +0.000 OA
ATOM     20  N   UNL     1       5.756   3.935  19.343  0.00  0.00    +0.000 N 
ATOM     21  C   UNL     1       6.154   5.127  18.730  0.00  0.00    +0.000 A 
ATOM     22  C   UNL     1       7.482   5.540  18.812  0.00  0.00    +0.000 A 
ATOM     23  C   UNL     1       7.896   6.651  18.080  0.00  0.00    +0.000 A 
ATOM     24  C   UNL     1       6.977   7.374  17.316  0.00  0.00    +0.000 A 
ATOM     25  C   UNL     1       5.632   6.994  17.288  0.00  0.00    +0.000 A 
ATOM     26  C   UNL     1       5.213   5.861  17.990  0.00  0.00    +0.000 A 
ATOM     27  H   UNL     1       6.358   3.469  20.009  0.00  0.00    +0.000 HD
ENDBRANCH  15  16
ENDBRANCH   2  15
TORSDOF 3
ENDMDL
MODEL 7
REMARK VINA RESULT:      -8.8      6.134      7.967
REMARK  Name = 
REMARK  3 active torsions:
REMARK  status: ('A' for Active; 'I' for Inactive)
REMARK    1  A    between atoms: C_2  and  C_3
REMARK    2  A    between atoms: C_3  and  C_4
REMARK    3  A    between atoms: N_15  and  C_16
REMARK                            x       y       z     vdW  Elec       q    Type
REMARK                         _______ _______ _______ _____ _____    ______ ____
ROOT
ATOM      1  O   UNL     1       8.698   7.328  19.080  0.00  0.00    +0.000 OA
ATOM      2  C   UNL     1       8.053   7.915  18.218  0.00  0.00    +0.000 C 
ATOM      3  N   UNL     1       8.130   9.261  17.910  0.00  0.00    +0.000 N 
ATOM      4  H   UNL     1       7.458   9.624  17.244  0.00  0.00    +0.000 HD
ENDROOT
BRANCH   3   5
ATOM      5  C   UNL     1       9.015  10.199  18.481  0.00  0.00    +0.000 A 
ATOM      6  C   UNL     1       9.182  10.410  19.845  0.00  0.00    +0.000 A 
ATOM      7  N   UNL     1      10.013  11.338  20.384  0.00  0.00    +0.000 NA
ATOM      8  C   UNL     1      10.728  12.104  19.549  0.00  0.00    +0.000 A 
ATOM      9  C   UNL     1      11.564  13.083  20.073  0.00  0.00    +0.000 A 
ATOM     10  C   UNL     1      12.333  13.910  19.251  0.00  0.00    +0.000 A 
ATOM     11  C   UNL     1      12.279  13.757  17.870  0.00  0.00    +0.000 A 
ATOM     12  C   UNL     1      11.450  12.782  17.317  0.00  0.00    +0.000 A 
ATOM     13  C   UNL     1      10.664  11.958  18.148  0.00  0.00    +0.000 A 
ATOM     14  C   UNL     1       9.791  10.986  17.622  0.00  0.00    +0.000 A 
ENDBRANCH   3   5
BRANCH   2  15
ATOM     15  C   UNL     1       7.055   7.164  17.361  0.00  0.00    +0.000 C 
BRANCH  15  16
ATOM     16  C   UNL     1       6.959   5.668  17.706  0.00  0.00    +0.000 C 
ATOM     17  C   UNL     1       7.471   4.838  16.524  0.00  0.00    +0.000 C 
ATOM     18  C   UNL     1       6.552   5.016  15.331  0.00  0.00    +0.000 C 
ATOM     19  O   UNL     1       6.967   5.122  14.178  0.00  0.00    +0.000 OA
ATOM     20  N   UNL     1       5.208   4.976  15.610  0.00  0.00    +0.000 N 
ATOM     21  C   UNL     1       4.709   4.874  16.912  0.00  0.00    +0.000 A 
ATOM     22  C   UNL     1       3.410   4.416  17.123  0.00  0.00    +0.000 A 
ATOM     23  C   UNL     1       2.973   4.184  18.426  0.00  0.00    +0.000 A 
ATOM     24  C   UNL     1       3.811   4.458  19.509  0.00  0.00    +0.000 A 
ATOM     25  C   UNL     1       5.091   4.978  19.296  0.00  0.00    +0.000 A 
ATOM     26  C   UNL     1       5.551   5.183  17.992  0.00  0.00    +0.000 A 
ATOM     27  H   UNL     1       4.589   4.918  14.812  0.00  0.00    +0.000 HD
ENDBRANCH  15  16
ENDBRANCH   2  15
TORSDOF 3
ENDMDL
MODEL 8
REMARK VINA RESULT:      -8.7      1.893      3.115
REMARK  Name = 
REMARK  3 active torsions:
REMARK  status: ('A' for Active; 'I' for Inactive)
REMARK    1  A    between atoms: C_2  and  C_3
REMARK    2  A    between atoms: C_3  and  C_4
REMARK    3  A    between atoms: N_15  and  C_16
REMARK                            x       y       z     vdW  Elec       q    Type
REMARK                         _______ _______ _______ _____ _____    ______ ____
ROOT
ATOM      1  O   UNL     1       1.645   5.881  20.840  0.00  0.00    +0.000 OA
ATOM      2  C   UNL     1       2.311   6.282  19.892  0.00  0.00    +0.000 C 
ATOM      3  N   UNL     1       2.240   7.534  19.311  0.00  0.00    +0.000 N 
ATOM      4  H   UNL     1       2.779   7.685  18.467  0.00  0.00    +0.000 HD
ENDROOT
BRANCH   3   5
ATOM      5  C   UNL     1       1.436   8.611  19.741  0.00  0.00    +0.000 A 
ATOM      6  C   UNL     1       1.130   9.731  18.978  0.00  0.00    +0.000 A 
ATOM      7  N   UNL     1       0.382  10.778  19.412  0.00  0.00    +0.000 NA
ATOM      8  C   UNL     1      -0.100  10.731  20.662  0.00  0.00    +0.000 A 
ATOM      9  C   UNL     1      -0.842  11.802  21.143  0.00  0.00    +0.000 A 
ATOM     10  C   UNL     1      -1.371  11.809  22.436  0.00  0.00    +0.000 A 
ATOM     11  C   UNL     1      -1.164  10.719  23.274  0.00  0.00    +0.000 A 
ATOM     12  C   UNL     1      -0.424   9.629  22.816  0.00  0.00    +0.000 A 
ATOM     13  C   UNL     1       0.120   9.631  21.516  0.00  0.00    +0.000 A 
ATOM     14  C   UNL     1       0.901   8.563  21.034  0.00  0.00    +0.000 A 
ENDBRANCH   3   5
BRANCH   2  15
ATOM     15  C   UNL     1       3.338   5.380  19.240  0.00  0.00    +0.000 C 
BRANCH  15  16
ATOM     16  C   UNL     1       3.126   5.210  17.725  0.00  0.00    +0.000 C 
ATOM     17  C   UNL     1       2.397   3.888  17.458  0.00  0.00    +0.000 C 
ATOM     18  C   UNL     1       3.280   2.721  17.856  0.00  0.00    +0.000 C 
ATOM     19  O   UNL     1       2.849   1.719  18.423  0.00  0.00    +0.000 OA
ATOM     20  N   UNL     1       4.596   2.819  17.472  0.00  0.00    +0.000 N 
ATOM     21  C   UNL     1       5.117   3.953  16.842  0.00  0.00    +0.000 A 
ATOM     22  C   UNL     1       6.296   3.856  16.105  0.00  0.00    +0.000 A 
ATOM     23  C   UNL     1       6.729   4.956  15.366  0.00  0.00    +0.000 A 
ATOM     24  C   UNL     1       6.017   6.157  15.408  0.00  0.00    +0.000 A 
ATOM     25  C   UNL     1       4.870   6.269  16.200  0.00  0.00    +0.000 A 
ATOM     26  C   UNL     1       4.409   5.162  16.917  0.00  0.00    +0.000 A 
ATOM     27  H   UNL     1       5.153   1.980  17.574  0.00  0.00    +0.000 HD
ENDBRANCH  15  16
ENDBRANCH   2  15
TORSDOF 3
ENDMDL
MODEL 9
REMARK VINA RESULT:      -8.6      2.218      2.865
REMARK  Name = 
REMARK  3 active torsions:
REMARK  status: ('A' for Active; 'I' for Inactive)
REMARK    1  A    between atoms: C_2  and  C_3
REMARK    2  A    between atoms: C_3  and  C_4
REMARK    3  A    between atoms: N_15  and  C_16
REMARK                            x       y       z     vdW  Elec       q    Type
REMARK                         _______ _______ _______ _____ _____    ______ ____
ROOT
ATOM      1  O   UNL     1       1.887   7.930  19.938  0.00  0.00    +0.000 OA
ATOM      2  C   UNL     1       2.287   8.000  18.781  0.00  0.00    +0.000 C 
ATOM      3  N   UNL     1       2.087   9.052  17.906  0.00  0.00    +0.000 N 
ATOM      4  H   UNL     1       2.388   8.922  16.947  0.00  0.00    +0.000 HD
ENDROOT
BRANCH   3   5
ATOM      5  C   UNL     1       1.444  10.273  18.200  0.00  0.00    +0.000 A 
ATOM      6  C   UNL     1       0.089  10.414  18.474  0.00  0.00    +0.000 A 
ATOM      7  N   UNL     1      -0.527  11.598  18.725  0.00  0.00    +0.000 NA
ATOM      8  C   UNL     1       0.220  12.711  18.713  0.00  0.00    +0.000 A 
ATOM      9  C   UNL     1      -0.389  13.939  18.935  0.00  0.00    +0.000 A 
ATOM     10  C   UNL     1       0.338  15.132  18.934  0.00  0.00    +0.000 A 
ATOM     11  C   UNL     1       1.711  15.105  18.714  0.00  0.00    +0.000 A 
ATOM     12  C   UNL     1       2.349  13.886  18.490  0.00  0.00    +0.000 A 
ATOM     13  C   UNL     1       1.610  12.685  18.477  0.00  0.00    +0.000 A 
ATOM     14  C   UNL     1       2.216  11.440  18.220  0.00  0.00    +0.000 A 
ENDBRANCH   3   5
BRANCH   2  15
ATOM     15  C   UNL     1       3.090   6.868  18.176  0.00  0.00    +0.000 C 
BRANCH  15  16
ATOM     16  C   UNL     1       3.442   5.762  19.188  0.00  0.00    +0.000 C 
ATOM     17  C   UNL     1       4.883   5.295  18.951  0.00  0.00    +0.000 C 
ATOM     18  C   UNL     1       4.992   4.624  17.596  0.00  0.00    +0.000 C 
ATOM     19  O   UNL     1       5.954   4.784  16.846  0.00  0.00    +0.000 OA
ATOM     20  N   UNL     1       3.974   3.756  17.283  0.00  0.00    +0.000 N 
ATOM     21  C   UNL     1       2.861   3.567  18.108  0.00  0.00    +0.000 A 
ATOM     22  C   UNL     1       2.094   2.411  17.984  0.00  0.00    +0.000 A 
ATOM     23  C   UNL     1       1.075   2.167  18.903  0.00  0.00    +0.000 A 
ATOM     24  C   UNL     1       0.793   3.100  19.904  0.00  0.00    +0.000 A 
ATOM     25  C   UNL     1       1.523   4.289  19.986  0.00  0.00    +0.000 A 
ATOM     26  C   UNL     1       2.569   4.526  19.090  0.00  0.00    +0.000 A 
ATOM     27  H   UNL     1       4.120   3.174  16.468  0.00  0.00    +0.000 HD
ENDBRANCH  15  16
ENDBRANCH   2  15
TORSDOF 3
ENDMDL
