MODEL 1
REMARK VINA RESULT:      -8.2      0.000      0.000
REMARK  Name = 
REMARK  5 active torsions:
REMARK  status: ('A' for Active; 'I' for Inactive)
REMARK    1  A    between atoms: C_2  and  C_18
REMARK    2  A    between atoms: N_3  and  C_4
REMARK    3  A    between atoms: C_4  and  C_5
REMARK    4  A    between atoms: C_5  and  C_6
REMARK    5  A    between atoms: C_8  and  C_9
REMARK                            x       y       z     vdW  Elec       q    Type
REMARK                         _______ _______ _______ _____ _____    ______ ____
ROOT
ATOM      1  O   UNL     1       2.238   4.299  21.633  0.00  0.00    +0.000 OA
ATOM      2  C   UNL     1       2.095   4.604  20.456  0.00  0.00    +0.000 C 
ATOM      3  N   UNL     1       2.107   3.686  19.426  0.00  0.00    +0.000 N 
ATOM      4  H   UNL     1       2.112   4.004  18.465  0.00  0.00    +0.000 HD
ENDROOT
BRANCH   2   5
ATOM      5  C   UNL     1       1.928   6.032  20.077  0.00  0.00    +0.000 A 
ATOM      6  C   UNL     1       2.453   6.457  18.859  0.00  0.00    +0.000 A 
ATOM      7  C   UNL     1       2.322   7.793  18.481  0.00  0.00    +0.000 A 
ATOM      8  F   UNL     1       2.830   8.154  17.290  0.00  0.00    +0.000 F 
ATOM      9  C   UNL     1       1.695   8.748  19.283  0.00  0.00    +0.000 A 
ATOM     10  N   UNL     1       1.585  10.034  18.885  0.00  0.00    +0.000 NA
ATOM     11  C   UNL     1       0.986  10.919  19.709  0.00  0.00    +0.000 A 
ATOM     12  C   UNL     1       0.475  10.585  20.947  0.00  0.00    +0.000 A 
ATOM     13  C   UNL     1       0.582   9.263  21.362  0.00  0.00    +0.000 A 
ATOM     14  C   UNL     1       1.190   8.311  20.530  0.00  0.00    +0.000 A 
ATOM     15  C   UNL     1       1.305   6.959  20.919  0.00  0.00    +0.000 A 
ENDBRANCH   2   5
BRANCH   3  16
ATOM     16  C   UNL     1       2.315   2.267  19.689  0.00  0.00    +0.000 C 
BRANCH  16  17
ATOM     17  C   UNL     1       3.594   1.750  19.039  0.00  0.00    +0.000 C 
BRANCH  17  18
ATOM     18  C   UNL     1       4.340   2.823  18.341  0.00  0.00    +0.000 A 
ATOM     19  N   UNL     1       5.188   3.701  18.822  0.00  0.00    +0.000 NA
ATOM     20  C   UNL     1       5.437   4.512  17.730  0.00  0.00    +0.000 A 
ATOM     21  N   UNL     1       4.798   4.123  16.614  0.00  0.00    +0.000 NA
ATOM     22  O   UNL     1       4.068   3.006  17.018  0.00  0.00    +0.000 OA
BRANCH  20  23
ATOM     23  C   UNL     1       6.280   5.703  17.819  0.00  0.00    +0.000 A 
ATOM     24  C   UNL     1       7.388   5.718  18.680  0.00  0.00    +0.000 A 
ATOM     25  C   UNL     1       8.182   6.863  18.805  0.00  0.00    +0.000 A 
ATOM     26  C   UNL     1       7.873   8.003  18.069  0.00  0.00    +0.000 A 
ATOM     27 CL   UNL     1       8.840   9.417  18.235  0.00  0.00    +0.000 Cl
ATOM     28  C   UNL     1       6.782   8.007  17.203  0.00  0.00    +0.000 A 
ATOM     29  C   UNL     1       5.989   6.860  17.077  0.00  0.00    +0.000 A 
ENDBRANCH  20  23
ENDBRANCH  17  18
ENDBRANCH  16  17
ENDBRANCH   3  16
TORSDOF 5
ENDMDL
MODEL 2
REMARK VINA RESULT:      -7.9      3.183      6.709
REMARK  Name = 
REMARK  5 active torsions:
REMARK  status: ('A' for Active; 'I' for Inactive)
REMARK    1  A    between atoms: C_2  and  C_18
REMARK    2  A    between atoms: N_3  and  C_4
REMARK    3  A    between atoms: C_4  and  C_5
REMARK    4  A    between atoms: C_5  and  C_6
REMARK    5  A    between atoms: C_8  and  C_9
REMARK                            x       y       z     vdW  Elec       q    Type
REMARK                         _______ _______ _______ _____ _____    ______ ____
ROOT
ATOM      1  O   UNL     1       2.525   3.391  16.719  0.00  0.00    +0.000 OA
ATOM      2  C   UNL     1       3.684   3.231  17.079  0.00  0.00    +0.000 C 
ATOM      3  N   UNL     1       4.035   2.565  18.235  0.00  0.00    +0.000 N 
ATOM      4  H   UNL     1       4.997   2.572  18.551  0.00  0.00    +0.000 HD
ENDROOT
BRANCH   2   5
ATOM      5  C   UNL     1       4.795   3.795  16.269  0.00  0.00    +0.000 A 
ATOM      6  C   UNL     1       5.666   4.694  16.880  0.00  0.00    +0.000 A 
ATOM      7  C   UNL     1       6.712   5.250  16.144  0.00  0.00    +0.000 A 
ATOM      8  F   UNL     1       7.537   6.099  16.779  0.00  0.00    +0.000 F 
ATOM      9  C   UNL     1       6.924   4.960  14.795  0.00  0.00    +0.000 A 
ATOM     10  N   UNL     1       7.948   5.516  14.112  0.00  0.00    +0.000 NA
ATOM     11  C   UNL     1       8.094   5.214  12.804  0.00  0.00    +0.000 A 
ATOM     12  C   UNL     1       7.252   4.364  12.117  0.00  0.00    +0.000 A 
ATOM     13  C   UNL     1       6.198   3.786  12.815  0.00  0.00    +0.000 A 
ATOM     14  C   UNL     1       6.017   4.068  14.178  0.00  0.00    +0.000 A 
ATOM     15  C   UNL     1       4.962   3.489  14.915  0.00  0.00    +0.000 A 
ENDBRANCH   2   5
BRANCH   3  16
ATOM     16  C   UNL     1       3.016   2.017  19.125  0.00  0.00    +0.000 C 
BRANCH  16  17
ATOM     17  C   UNL     1       2.896   2.822  20.415  0.00  0.00    +0.000 C 
BRANCH  17  18
ATOM     18  C   UNL     1       2.997   4.281  20.175  0.00  0.00    +0.000 A 
ATOM     19  N   UNL     1       2.051   5.190  20.139  0.00  0.00    +0.000 NA
ATOM     20  C   UNL     1       2.735   6.323  19.742  0.00  0.00    +0.000 A 
ATOM     21  N   UNL     1       4.055   6.127  19.580  0.00  0.00    +0.000 NA
ATOM     22  O   UNL     1       4.228   4.773  19.863  0.00  0.00    +0.000 OA
BRANCH  20  23
ATOM     23  C   UNL     1       2.057   7.592  19.481  0.00  0.00    +0.000 A 
ATOM     24  C   UNL     1       2.120   8.174  18.204  0.00  0.00    +0.000 A 
ATOM     25  C   UNL     1       1.508   9.406  17.949  0.00  0.00    +0.000 A 
ATOM     26  C   UNL     1       0.829  10.067  18.969  0.00  0.00    +0.000 A 
ATOM     27 CL   UNL     1       0.092  11.590  18.659  0.00  0.00    +0.000 Cl
ATOM     28  C   UNL     1       0.750   9.504  20.240  0.00  0.00    +0.000 A 
ATOM     29  C   UNL     1       1.360   8.270  20.495  0.00  0.00    +0.000 A 
ENDBRANCH  20  23
ENDBRANCH  17  18
ENDBRANCH  16  17
ENDBRANCH   3  16
TORSDOF 5
ENDMDL
MODEL 3
REMARK VINA RESULT:      -7.8      2.734      3.873
REMARK  Name = 
REMARK  5 active torsions:
REMARK  status: ('A' for Active; 'I' for Inactive)
REMARK    1  A    between atoms: C_2  and  C_18
REMARK    2  A    between atoms: N_3  and  C_4
REMARK    3  A    between atoms: C_4  and  C_5
REMARK    4  A    between atoms: C_5  and  C_6
REMARK    5  A    between atoms: C_8  and  C_9
REMARK                            x       y       z     vdW  Elec       q    Type
REMARK                         _______ _______ _______ _____ _____    ______ ____
ROOT
ATOM      1  O   UNL     1       3.101   4.696  17.952  0.00  0.00    +0.000 OA
ATOM      2  C   UNL     1       3.644   5.722  18.342  0.00  0.00    +0.000 C 
ATOM      3  N   UNL     1       5.012   5.860  18.456  0.00  0.00    +0.000 N 
ATOM      4  H   UNL     1       5.402   6.681  18.902  0.00  0.00    +0.000 HD
ENDROOT
BRANCH   2   5
ATOM      5  C   UNL     1       2.817   6.888  18.750  0.00  0.00    +0.000 A 
ATOM      6  C   UNL     1       2.658   7.933  17.843  0.00  0.00    +0.000 A 
ATOM      7  C   UNL     1       1.897   9.045  18.201  0.00  0.00    +0.000 A 
ATOM      8  F   UNL     1       1.757  10.022  17.289  0.00  0.00    +0.000 F 
ATOM      9  C   UNL     1       1.291   9.177  19.452  0.00  0.00    +0.000 A 
ATOM     10  N   UNL     1       0.560  10.269  19.765  0.00  0.00    +0.000 NA
ATOM     11  C   UNL     1       0.013  10.351  20.996  0.00  0.00    +0.000 A 
ATOM     12  C   UNL     1       0.158   9.377  21.963  0.00  0.00    +0.000 A 
ATOM     13  C   UNL     1       0.905   8.249  21.647  0.00  0.00    +0.000 A 
ATOM     14  C   UNL     1       1.484   8.122  20.375  0.00  0.00    +0.000 A 
ATOM     15  C   UNL     1       2.240   6.985  20.020  0.00  0.00    +0.000 A 
ENDBRANCH   2   5
BRANCH   3  16
ATOM     16  C   UNL     1       5.908   4.757  18.127  0.00  0.00    +0.000 C 
BRANCH  16  17
ATOM     17  C   UNL     1       7.366   5.107  18.408  0.00  0.00    +0.000 C 
BRANCH  17  18
ATOM     18  C   UNL     1       7.675   6.518  18.081  0.00  0.00    +0.000 A 
ATOM     19  N   UNL     1       8.342   7.411  18.775  0.00  0.00    +0.000 NA
ATOM     20  C   UNL     1       8.176   8.562  18.026  0.00  0.00    +0.000 A 
ATOM     21  N   UNL     1       7.471   8.373  16.898  0.00  0.00    +0.000 NA
ATOM     22  O   UNL     1       7.136   7.021  16.935  0.00  0.00    +0.000 OA
BRANCH  20  23
ATOM     23  C   UNL     1       8.687   9.859  18.467  0.00  0.00    +0.000 A 
ATOM     24  C   UNL     1       8.409  11.015  17.722  0.00  0.00    +0.000 A 
ATOM     25  C   UNL     1       8.922  12.258  18.109  0.00  0.00    +0.000 A 
ATOM     26  C   UNL     1       9.719  12.353  19.247  0.00  0.00    +0.000 A 
ATOM     27 CL   UNL     1      10.364  13.878  19.713  0.00  0.00    +0.000 Cl
ATOM     28  C   UNL     1      10.002  11.219  20.004  0.00  0.00    +0.000 A 
ATOM     29  C   UNL     1       9.487   9.976  19.617  0.00  0.00    +0.000 A 
ENDBRANCH  20  23
ENDBRANCH  17  18
ENDBRANCH  16  17
ENDBRANCH   3  16
TORSDOF 5
ENDMDL
MODEL 4
REMARK VINA RESULT:      -7.7      1.263      1.796
REMARK  Name = 
REMARK  5 active torsions:
REMARK  status: ('A' for Active; 'I' for Inactive)
REMARK    1  A    between atoms: C_2  and  C_18
REMARK    2  A    between atoms: N_3  and  C_4
REMARK    3  A    between atoms: C_4  and  C_5
REMARK    4  A    between atoms: C_5  and  C_6
REMARK    5  A    between atoms: C_8  and  C_9
REMARK                            x       y       z     vdW  Elec       q    Type
REMARK                         _______ _______ _______ _____ _____    ______ ____
ROOT
ATOM      1  O   UNL     1       2.766   4.066  21.379  0.00  0.00    +0.000 OA
ATOM      2  C   UNL     1       2.200   4.460  20.368  0.00  0.00    +0.000 C 
ATOM      3  N   UNL     1       1.804   3.624  19.344  0.00  0.00    +0.000 N 
ATOM      4  H   UNL     1       1.456   4.015  18.478  0.00  0.00    +0.000 HD
ENDROOT
BRANCH   2   5
ATOM      5  C   UNL     1       1.935   5.911  20.186  0.00  0.00    +0.000 A 
ATOM      6  C   UNL     1       1.192   6.573  21.161  0.00  0.00    +0.000 A 
ATOM      7  C   UNL     1       0.918   7.933  21.013  0.00  0.00    +0.000 A 
ATOM      8  F   UNL     1       0.211   8.533  21.986  0.00  0.00    +0.000 F 
ATOM      9  C   UNL     1       1.342   8.674  19.909  0.00  0.00    +0.000 A 
ATOM     10  N   UNL     1       1.059   9.990  19.799  0.00  0.00    +0.000 NA
ATOM     11  C   UNL     1       1.478  10.654  18.701  0.00  0.00    +0.000 A 
ATOM     12  C   UNL     1       2.185  10.062  17.674  0.00  0.00    +0.000 A 
ATOM     13  C   UNL     1       2.483   8.709  17.782  0.00  0.00    +0.000 A 
ATOM     14  C   UNL     1       2.071   7.985  18.913  0.00  0.00    +0.000 A 
ATOM     15  C   UNL     1       2.367   6.613  19.056  0.00  0.00    +0.000 A 
ENDBRANCH   2   5
BRANCH   3  16
ATOM     16  C   UNL     1       2.062   2.190  19.404  0.00  0.00    +0.000 C 
BRANCH  16  17
ATOM     17  C   UNL     1       3.151   1.767  18.422  0.00  0.00    +0.000 C 
BRANCH  17  18
ATOM     18  C   UNL     1       3.897   2.927  17.882  0.00  0.00    +0.000 A 
ATOM     19  N   UNL     1       4.898   3.595  18.405  0.00  0.00    +0.000 NA
ATOM     20  C   UNL     1       5.069   4.635  17.510  0.00  0.00    +0.000 A 
ATOM     21  N   UNL     1       4.233   4.584  16.459  0.00  0.00    +0.000 NA
ATOM     22  O   UNL     1       3.454   3.455  16.706  0.00  0.00    +0.000 OA
BRANCH  20  23
ATOM     23  C   UNL     1       6.041   5.704  17.733  0.00  0.00    +0.000 A 
ATOM     24  C   UNL     1       7.117   5.504  18.613  0.00  0.00    +0.000 A 
ATOM     25  C   UNL     1       8.034   6.530  18.866  0.00  0.00    +0.000 A 
ATOM     26  C   UNL     1       7.880   7.765  18.242  0.00  0.00    +0.000 A 
ATOM     27 CL   UNL     1       8.999   9.032  18.567  0.00  0.00    +0.000 Cl
ATOM     28  C   UNL     1       6.824   7.982  17.361  0.00  0.00    +0.000 A 
ATOM     29  C   UNL     1       5.908   6.954  17.106  0.00  0.00    +0.000 A 
ENDBRANCH  20  23
ENDBRANCH  17  18
ENDBRANCH  16  17
ENDBRANCH   3  16
TORSDOF 5
ENDMDL
MODEL 5
REMARK VINA RESULT:      -7.7      3.535      7.619
REMARK  Name = 
REMARK  5 active torsions:
REMARK  status: ('A' for Active; 'I' for Inactive)
REMARK    1  A    between atoms: C_2  and  C_18
REMARK    2  A    between atoms: N_3  and  C_4
REMARK    3  A    between atoms: C_4  and  C_5
REMARK    4  A    between atoms: C_5  and  C_6
REMARK    5  A    between atoms: C_8  and  C_9
REMARK                            x       y       z     vdW  Elec       q    Type
REMARK                         _______ _______ _______ _____ _____    ______ ____
ROOT
ATOM      1  O   UNL     1       4.522   3.514  19.379  0.00  0.00    +0.000 OA
ATOM      2  C   UNL     1       4.135   4.165  18.417  0.00  0.00    +0.000 C 
ATOM      3  N   UNL     1       2.835   4.600  18.269  0.00  0.00    +0.000 N 
ATOM      4  H   UNL     1       2.539   5.023  17.397  0.00  0.00    +0.000 HD
ENDROOT
BRANCH   2   5
ATOM      5  C   UNL     1       5.080   4.497  17.319  0.00  0.00    +0.000 A 
ATOM      6  C   UNL     1       6.062   5.455  17.561  0.00  0.00    +0.000 A 
ATOM      7  C   UNL     1       6.957   5.795  16.547  0.00  0.00    +0.000 A 
ATOM      8  F   UNL     1       7.898   6.712  16.831  0.00  0.00    +0.000 F 
ATOM      9  C   UNL     1       6.907   5.228  15.272  0.00  0.00    +0.000 A 
ATOM     10  N   UNL     1       7.791   5.582  14.314  0.00  0.00    +0.000 NA
ATOM     11  C   UNL     1       7.684   5.015  13.093  0.00  0.00    +0.000 A 
ATOM     12  C   UNL     1       6.716   4.089  12.763  0.00  0.00    +0.000 A 
ATOM     13  C   UNL     1       5.806   3.718  13.746  0.00  0.00    +0.000 A 
ATOM     14  C   UNL     1       5.888   4.278  15.030  0.00  0.00    +0.000 A 
ATOM     15  C   UNL     1       4.985   3.915  16.051  0.00  0.00    +0.000 A 
ENDBRANCH   2   5
BRANCH   3  16
ATOM     16  C   UNL     1       1.819   4.284  19.267  0.00  0.00    +0.000 C 
BRANCH  16  17
ATOM     17  C   UNL     1       2.096   4.973  20.599  0.00  0.00    +0.000 C 
BRANCH  17  18
ATOM     18  C   UNL     1       1.781   6.421  20.555  0.00  0.00    +0.000 A 
ATOM     19  N   UNL     1       1.063   7.145  21.381  0.00  0.00    +0.000 NA
ATOM     20  C   UNL     1       1.020   8.373  20.747  0.00  0.00    +0.000 A 
ATOM     21  N   UNL     1       1.718   8.411  19.599  0.00  0.00    +0.000 NA
ATOM     22  O   UNL     1       2.220   7.117  19.470  0.00  0.00    +0.000 OA
BRANCH  20  23
ATOM     23  C   UNL     1       0.241   9.494  21.270  0.00  0.00    +0.000 A 
ATOM     24  C   UNL     1      -0.082   9.550  22.635  0.00  0.00    +0.000 A 
ATOM     25  C   UNL     1      -0.859  10.596  23.145  0.00  0.00    +0.000 A 
ATOM     26  C   UNL     1      -1.320  11.595  22.291  0.00  0.00    +0.000 A 
ATOM     27 CL   UNL     1      -2.290  12.872  22.915  0.00  0.00    +0.000 Cl
ATOM     28  C   UNL     1      -1.006  11.562  20.935  0.00  0.00    +0.000 A 
ATOM     29  C   UNL     1      -0.226  10.516  20.426  0.00  0.00    +0.000 A 
ENDBRANCH  20  23
ENDBRANCH  17  18
ENDBRANCH  16  17
ENDBRANCH   3  16
TORSDOF 5
ENDMDL
MODEL 6
REMARK VINA RESULT:      -7.7      1.228      1.995
REMARK  Name = 
REMARK  5 active torsions:
REMARK  status: ('A' for Active; 'I' for Inactive)
REMARK    1  A    between atoms: C_2  and  C_18
REMARK    2  A    between atoms: N_3  and  C_4
REMARK    3  A    between atoms: C_4  and  C_5
REMARK    4  A    between atoms: C_5  and  C_6
REMARK    5  A    between atoms: C_8  and  C_9
REMARK                            x       y       z     vdW  Elec       q    Type
REMARK                         _______ _______ _______ _____ _____    ______ ____
ROOT
ATOM      1  O   UNL     1       2.446   4.109  21.605  0.00  0.00    +0.000 OA
ATOM      2  C   UNL     1       2.076   4.522  20.514  0.00  0.00    +0.000 C 
ATOM      3  N   UNL     1       1.866   3.704  19.423  0.00  0.00    +0.000 N 
ATOM      4  H   UNL     1       1.685   4.110  18.514  0.00  0.00    +0.000 HD
ENDROOT
BRANCH   2   5
ATOM      5  C   UNL     1       1.861   5.978  20.308  0.00  0.00    +0.000 A 
ATOM      6  C   UNL     1       1.192   6.693  21.299  0.00  0.00    +0.000 A 
ATOM      7  C   UNL     1       0.965   8.058  21.131  0.00  0.00    +0.000 A 
ATOM      8  F   UNL     1       0.331   8.709  22.120  0.00  0.00    +0.000 F 
ATOM      9  C   UNL     1       1.366   8.756  19.990  0.00  0.00    +0.000 A 
ATOM     10  N   UNL     1       1.130  10.080  19.860  0.00  0.00    +0.000 NA
ATOM     11  C   UNL     1       1.522  10.699  18.727  0.00  0.00    +0.000 A 
ATOM     12  C   UNL     1       2.155  10.055  17.683  0.00  0.00    +0.000 A 
ATOM     13  C   UNL     1       2.404   8.694  17.812  0.00  0.00    +0.000 A 
ATOM     14  C   UNL     1       2.019   8.015  18.978  0.00  0.00    +0.000 A 
ATOM     15  C   UNL     1       2.266   6.635  19.142  0.00  0.00    +0.000 A 
ENDBRANCH   2   5
BRANCH   3  16
ATOM     16  C   UNL     1       2.097   2.266  19.508  0.00  0.00    +0.000 C 
BRANCH  16  17
ATOM     17  C   UNL     1       3.582   1.924  19.442  0.00  0.00    +0.000 C 
BRANCH  17  18
ATOM     18  C   UNL     1       4.357   2.939  18.690  0.00  0.00    +0.000 A 
ATOM     19  N   UNL     1       5.149   3.885  19.136  0.00  0.00    +0.000 NA
ATOM     20  C   UNL     1       5.463   4.584  17.985  0.00  0.00    +0.000 A 
ATOM     21  N   UNL     1       4.918   4.063  16.873  0.00  0.00    +0.000 NA
ATOM     22  O   UNL     1       4.182   2.975  17.339  0.00  0.00    +0.000 OA
BRANCH  20  23
ATOM     23  C   UNL     1       6.273   5.801  18.008  0.00  0.00    +0.000 A 
ATOM     24  C   UNL     1       5.879   6.924  17.262  0.00  0.00    +0.000 A 
ATOM     25  C   UNL     1       6.662   8.082  17.244  0.00  0.00    +0.000 A 
ATOM     26  C   UNL     1       7.848   8.127  17.972  0.00  0.00    +0.000 A 
ATOM     27 CL   UNL     1       8.821   9.546  17.936  0.00  0.00    +0.000 Cl
ATOM     28  C   UNL     1       8.254   7.028  18.724  0.00  0.00    +0.000 A 
ATOM     29  C   UNL     1       7.468   5.868  18.743  0.00  0.00    +0.000 A 
ENDBRANCH  20  23
ENDBRANCH  17  18
ENDBRANCH  16  17
ENDBRANCH   3  16
TORSDOF 5
ENDMDL
MODEL 7
REMARK VINA RESULT:      -7.7      2.605      3.908
REMARK  Name = 
REMARK  5 active torsions:
REMARK  status: ('A' for Active; 'I' for Inactive)
REMARK    1  A    between atoms: C_2  and  C_18
REMARK    2  A    between atoms: N_3  and  C_4
REMARK    3  A    between atoms: C_4  and  C_5
REMARK    4  A    between atoms: C_5  and  C_6
REMARK    5  A    between atoms: C_8  and  C_9
REMARK                            x       y       z     vdW  Elec       q    Type
REMARK                         _______ _______ _______ _____ _____    ______ ____
ROOT
ATOM      1  O   UNL     1       3.164   4.630  17.771  0.00  0.00    +0.000 OA
ATOM      2  C   UNL     1       3.562   5.777  17.611  0.00  0.00    +0.000 C 
ATOM      3  N   UNL     1       4.689   6.094  16.881  0.00  0.00    +0.000 N 
ATOM      4  H   UNL     1       5.045   7.042  16.887  0.00  0.00    +0.000 HD
ENDROOT
BRANCH   2   5
ATOM      5  C   UNL     1       2.836   6.907  18.246  0.00  0.00    +0.000 A 
ATOM      6  C   UNL     1       2.673   8.081  17.514  0.00  0.00    +0.000 A 
ATOM      7  C   UNL     1       2.006   9.163  18.086  0.00  0.00    +0.000 A 
ATOM      8  F   UNL     1       1.858  10.269  17.336  0.00  0.00    +0.000 F 
ATOM      9  C   UNL     1       1.499   9.138  19.387  0.00  0.00    +0.000 A 
ATOM     10  N   UNL     1       0.858  10.205  19.910  0.00  0.00    +0.000 NA
ATOM     11  C   UNL     1       0.406  10.131  21.179  0.00  0.00    +0.000 A 
ATOM     12  C   UNL     1       0.562   9.020  21.982  0.00  0.00    +0.000 A 
ATOM     13  C   UNL     1       1.218   7.917  21.450  0.00  0.00    +0.000 A 
ATOM     14  C   UNL     1       1.696   7.951  20.131  0.00  0.00    +0.000 A 
ATOM     15  C   UNL     1       2.358   6.844  19.559  0.00  0.00    +0.000 A 
ENDBRANCH   2   5
BRANCH   3  16
ATOM     16  C   UNL     1       5.499   5.053  16.260  0.00  0.00    +0.000 C 
BRANCH  16  17
ATOM     17  C   UNL     1       6.926   5.524  15.996  0.00  0.00    +0.000 C 
BRANCH  17  18
ATOM     18  C   UNL     1       7.385   6.508  17.004  0.00  0.00    +0.000 A 
ATOM     19  N   UNL     1       7.533   7.807  16.897  0.00  0.00    +0.000 NA
ATOM     20  C   UNL     1       8.115   8.146  18.105  0.00  0.00    +0.000 A 
ATOM     21  N   UNL     1       8.279   7.102  18.935  0.00  0.00    +0.000 NA
ATOM     22  O   UNL     1       7.800   6.016  18.205  0.00  0.00    +0.000 OA
BRANCH  20  23
ATOM     23  C   UNL     1       8.546   9.510  18.408  0.00  0.00    +0.000 A 
ATOM     24  C   UNL     1       8.225  10.560  17.533  0.00  0.00    +0.000 A 
ATOM     25  C   UNL     1       8.663  11.864  17.789  0.00  0.00    +0.000 A 
ATOM     26  C   UNL     1       9.427  12.127  18.923  0.00  0.00    +0.000 A 
ATOM     27 CL   UNL     1       9.979  13.728  19.228  0.00  0.00    +0.000 Cl
ATOM     28  C   UNL     1       9.751  11.101  19.807  0.00  0.00    +0.000 A 
ATOM     29  C   UNL     1       9.311   9.797  19.551  0.00  0.00    +0.000 A 
ENDBRANCH  20  23
ENDBRANCH  17  18
ENDBRANCH  16  17
ENDBRANCH   3  16
TORSDOF 5
ENDMDL
MODEL 8
REMARK VINA RESULT:      -7.6      3.467      7.465
REMARK  Name = 
REMARK  5 active torsions:
REMARK  status: ('A' for Active; 'I' for Inactive)
REMARK    1  A    between atoms: C_2  and  C_18
REMARK    2  A    between atoms: N_3  and  C_4
REMARK    3  A    between atoms: C_4  and  C_5
REMARK    4  A    between atoms: C_5  and  C_6
REMARK    5  A    between atoms: C_8  and  C_9
REMARK                            x       y       z     vdW  Elec       q    Type
REMARK                         _______ _______ _______ _____ _____    ______ ____
ROOT
ATOM      1  O   UNL     1       4.443   3.011  18.863  0.00  0.00    +0.000 OA
ATOM      2  C   UNL     1       4.068   3.735  17.949  0.00  0.00    +0.000 C 
ATOM      3  N   UNL     1       2.764   4.162  17.805  0.00  0.00    +0.000 N 
ATOM      4  H   UNL     1       2.482   4.652  16.965  0.00  0.00    +0.000 HD
ENDROOT
BRANCH   2   5
ATOM      5  C   UNL     1       5.034   4.172  16.908  0.00  0.00    +0.000 A 
ATOM      6  C   UNL     1       5.967   5.151  17.243  0.00  0.00    +0.000 A 
ATOM      7  C   UNL     1       6.880   5.590  16.284  0.00  0.00    +0.000 A 
ATOM      8  F   UNL     1       7.772   6.522  16.657  0.00  0.00    +0.000 F 
ATOM      9  C   UNL     1       6.895   5.103  14.975  0.00  0.00    +0.000 A 
ATOM     10  N   UNL     1       7.794   5.551  14.072  0.00  0.00    +0.000 NA
ATOM     11  C   UNL     1       7.750   5.060  12.816  0.00  0.00    +0.000 A 
ATOM     12  C   UNL     1       6.832   4.119  12.395  0.00  0.00    +0.000 A 
ATOM     13  C   UNL     1       5.906   3.651  13.320  0.00  0.00    +0.000 A 
ATOM     14  C   UNL     1       5.924   4.131  14.639  0.00  0.00    +0.000 A 
ATOM     15  C   UNL     1       5.004   3.669  15.603  0.00  0.00    +0.000 A 
ENDBRANCH   2   5
BRANCH   3  16
ATOM     16  C   UNL     1       1.730   3.747  18.746  0.00  0.00    +0.000 C 
BRANCH  16  17
ATOM     17  C   UNL     1       2.022   4.233  20.162  0.00  0.00    +0.000 C 
BRANCH  17  18
ATOM     18  C   UNL     1       1.901   5.705  20.285  0.00  0.00    +0.000 A 
ATOM     19  N   UNL     1       1.087   6.417  21.028  0.00  0.00    +0.000 NA
ATOM     20  C   UNL     1       1.351   7.709  20.611  0.00  0.00    +0.000 A 
ATOM     21  N   UNL     1       2.315   7.789  19.679  0.00  0.00    +0.000 NA
ATOM     22  O   UNL     1       2.678   6.461  19.460  0.00  0.00    +0.000 OA
BRANCH  20  23
ATOM     23  C   UNL     1       0.602   8.859  21.116  0.00  0.00    +0.000 A 
ATOM     24  C   UNL     1       0.076   9.805  20.221  0.00  0.00    +0.000 A 
ATOM     25  C   UNL     1      -0.610  10.930  20.689  0.00  0.00    +0.000 A 
ATOM     26  C   UNL     1      -0.776  11.119  22.059  0.00  0.00    +0.000 A 
ATOM     27 CL   UNL     1      -1.605  12.512  22.636  0.00  0.00    +0.000 Cl
ATOM     28  C   UNL     1      -0.269  10.189  22.964  0.00  0.00    +0.000 A 
ATOM     29  C   UNL     1       0.416   9.062  22.494  0.00  0.00    +0.000 A 
ENDBRANCH  20  23
ENDBRANCH  17  18
ENDBRANCH  16  17
ENDBRANCH   3  16
TORSDOF 5
ENDMDL
MODEL 9
REMARK VINA RESULT:      -7.6      2.163      5.432
REMARK  Name = 
REMARK  5 active torsions:
REMARK  status: ('A' for Active; 'I' for Inactive)
REMARK    1  A    between atoms: C_2  and  C_18
REMARK    2  A    between atoms: N_3  and  C_4
REMARK    3  A    between atoms: C_4  and  C_5
REMARK    4  A    between atoms: C_5  and  C_6
REMARK    5  A    between atoms: C_8  and  C_9
REMARK                            x       y       z     vdW  Elec       q    Type
REMARK                         _______ _______ _______ _____ _____    ______ ____
ROOT
ATOM      1  O   UNL     1       3.098   2.951  16.707  0.00  0.00    +0.000 OA
ATOM      2  C   UNL     1       3.912   3.231  17.578  0.00  0.00    +0.000 C 
ATOM      3  N   UNL     1       4.084   2.483  18.724  0.00  0.00    +0.000 N 
ATOM      4  H   UNL     1       4.678   2.827  19.468  0.00  0.00    +0.000 HD
ENDROOT
BRANCH   2   5
ATOM      5  C   UNL     1       4.753   4.448  17.441  0.00  0.00    +0.000 A 
ATOM      6  C   UNL     1       4.499   5.309  16.376  0.00  0.00    +0.000 A 
ATOM      7  C   UNL     1       5.278   6.454  16.214  0.00  0.00    +0.000 A 
ATOM      8  F   UNL     1       4.987   7.263  15.182  0.00  0.00    +0.000 F 
ATOM      9  C   UNL     1       6.332   6.779  17.070  0.00  0.00    +0.000 A 
ATOM     10  N   UNL     1       7.066   7.897  16.884  0.00  0.00    +0.000 NA
ATOM     11  C   UNL     1       8.085   8.151  17.732  0.00  0.00    +0.000 A 
ATOM     12  C   UNL     1       8.425   7.329  18.787  0.00  0.00    +0.000 A 
ATOM     13  C   UNL     1       7.672   6.179  18.986  0.00  0.00    +0.000 A 
ATOM     14  C   UNL     1       6.599   5.883  18.131  0.00  0.00    +0.000 A 
ATOM     15  C   UNL     1       5.809   4.728  18.314  0.00  0.00    +0.000 A 
ENDBRANCH   2   5
BRANCH   3  16
ATOM     16  C   UNL     1       3.273   1.297  18.976  0.00  0.00    +0.000 C 
BRANCH  16  17
ATOM     17  C   UNL     1       1.983   1.638  19.716  0.00  0.00    +0.000 C 
BRANCH  17  18
ATOM     18  C   UNL     1       1.944   3.055  20.148  0.00  0.00    +0.000 A 
ATOM     19  N   UNL     1       1.592   4.125  19.475  0.00  0.00    +0.000 NA
ATOM     20  C   UNL     1       1.896   5.148  20.354  0.00  0.00    +0.000 A 
ATOM     21  N   UNL     1       2.377   4.721  21.534  0.00  0.00    +0.000 NA
ATOM     22  O   UNL     1       2.412   3.334  21.397  0.00  0.00    +0.000 OA
BRANCH  20  23
ATOM     23  C   UNL     1       1.746   6.557  19.993  0.00  0.00    +0.000 A 
ATOM     24  C   UNL     1       2.211   7.018  18.751  0.00  0.00    +0.000 A 
ATOM     25  C   UNL     1       2.110   8.370  18.406  0.00  0.00    +0.000 A 
ATOM     26  C   UNL     1       1.541   9.272  19.301  0.00  0.00    +0.000 A 
ATOM     27 CL   UNL     1       1.431  10.938  18.882  0.00  0.00    +0.000 Cl
ATOM     28  C   UNL     1       1.066   8.834  20.534  0.00  0.00    +0.000 A 
ATOM     29  C   UNL     1       1.166   7.480  20.879  0.00  0.00    +0.000 A 
ENDBRANCH  20  23
ENDBRANCH  17  18
ENDBRANCH  16  17
ENDBRANCH   3  16
TORSDOF 5
ENDMDL
