MODEL 1
REMARK VINA RESULT:      -8.3      0.000      0.000
REMARK  Name = 
REMARK  4 active torsions:
REMARK  status: ('A' for Active; 'I' for Inactive)
REMARK    1  A    between atoms: C_1  and  C_2
REMARK    2  A    between atoms: C_4  and  N_5
REMARK    3  A    between atoms: C_13  and  C_14
REMARK    4  A    between atoms: C_14  and  C_15
REMARK                            x       y       z     vdW  Elec       q    Type
REMARK                         _______ _______ _______ _____ _____    ______ ____
ROOT
ATOM      1  N   UNL     1       2.214   7.256  19.399  0.00  0.00    +0.000 N 
ATOM      2  C   UNL     1       1.593   7.816  18.169  0.00  0.00    +0.000 C 
ATOM      3  C   UNL     1       1.673   9.356  18.190  0.00  0.00    +0.000 C 
ATOM      4  N   UNL     1       1.126   9.946  19.422  0.00  0.00    +0.000 N 
ATOM      5  C   UNL     1      -0.123  10.553  19.363  0.00  0.00    +0.000 A 
ATOM      6  C   UNL     1      -0.430  11.550  20.273  0.00  0.00    +0.000 A 
ATOM      7  C   UNL     1      -1.647  12.174  20.145  0.00  0.00    +0.000 A 
ATOM      8  N   UNL     1      -2.544  11.850  19.205  0.00  0.00    +0.000 NA
ATOM      9  C   UNL     1      -2.176  10.878  18.349  0.00  0.00    +0.000 A 
ATOM     10  N   UNL     1      -0.991  10.221  18.390  0.00  0.00    +0.000 NA
ATOM     11  C   UNL     1       1.545   9.303  20.681  0.00  0.00    +0.000 C 
ATOM     12  C   UNL     1       1.521   7.756  20.611  0.00  0.00    +0.000 C 
ENDROOT
BRANCH   1  16
ATOM     13  C   UNL     1       6.235   4.582  18.199  0.00  0.00    +0.000 C 
ATOM     14  C   UNL     1       4.872   4.653  18.845  0.00  0.00    +0.000 A 
ATOM     15  C   UNL     1       4.201   5.989  18.882  0.00  0.00    +0.000 A 
ATOM     16  C   UNL     1       2.957   6.052  19.399  0.00  0.00    +0.000 A 
ATOM     17  N   UNL     1       2.406   4.841  19.908  0.00  0.00    +0.000 N 
ATOM     18  N   UNL     1       1.206   4.609  20.517  0.00  0.00    +0.000 NA
ATOM     19  C   UNL     1       1.264   3.304  20.770  0.00  0.00    +0.000 A 
ATOM     20  N   UNL     1       2.402   2.672  20.388  0.00  0.00    +0.000 NA
ATOM     21  C   UNL     1       3.124   3.633  19.855  0.00  0.00    +0.000 A 
ATOM     22  N   UNL     1       4.369   3.549  19.305  0.00  0.00    +0.000 NA
ENDBRANCH   1  16
BRANCH   9  23
ATOM     23  C   UNL     1      -3.190  10.457  17.312  0.00  0.00    +0.000 C 
BRANCH  23  24
ATOM     24  C   UNL     1      -4.593  10.972  17.547  0.00  0.00    +0.000 A 
ATOM     25  C   UNL     1      -5.442  10.326  18.453  0.00  0.00    +0.000 A 
ATOM     26  C   UNL     1      -6.727  10.815  18.696  0.00  0.00    +0.000 A 
ATOM     27  C   UNL     1      -7.178  11.953  18.028  0.00  0.00    +0.000 A 
ATOM     28  C   UNL     1      -6.350  12.596  17.110  0.00  0.00    +0.000 A 
ATOM     29  C   UNL     1      -5.065  12.106  16.866  0.00  0.00    +0.000 A 
ENDBRANCH  23  24
ENDBRANCH   9  23
TORSDOF 3
ENDMDL
MODEL 2
REMARK VINA RESULT:      -8.2      3.764      9.706
REMARK  Name = 
REMARK  4 active torsions:
REMARK  status: ('A' for Active; 'I' for Inactive)
REMARK    1  A    between atoms: C_1  and  C_2
REMARK    2  A    between atoms: C_4  and  N_5
REMARK    3  A    between atoms: C_13  and  C_14
REMARK    4  A    between atoms: C_14  and  C_15
REMARK                            x       y       z     vdW  Elec       q    Type
REMARK                         _______ _______ _______ _____ _____    ______ ____
ROOT
ATOM      1  N   UNL     1       0.786  13.572  19.263  0.00  0.00    +0.000 N 
ATOM      2  C   UNL     1       0.685  12.490  18.246  0.00  0.00    +0.000 C 
ATOM      3  C   UNL     1      -0.236  11.365  18.759  0.00  0.00    +0.000 C 
ATOM      4  N   UNL     1       0.152  10.862  20.087  0.00  0.00    +0.000 N 
ATOM      5  C   UNL     1       0.793   9.632  20.162  0.00  0.00    +0.000 A 
ATOM      6  C   UNL     1       0.689   8.889  21.326  0.00  0.00    +0.000 A 
ATOM      7  C   UNL     1       1.279   7.648  21.343  0.00  0.00    +0.000 A 
ATOM      8  N   UNL     1       1.958   7.143  20.306  0.00  0.00    +0.000 NA
ATOM      9  C   UNL     1       2.013   7.915  19.204  0.00  0.00    +0.000 A 
ATOM     10  N   UNL     1       1.447   9.142  19.093  0.00  0.00    +0.000 NA
ATOM     11  C   UNL     1       0.468  11.891  21.095  0.00  0.00    +0.000 C 
ATOM     12  C   UNL     1       1.336  13.044  20.535  0.00  0.00    +0.000 C 
ENDROOT
BRANCH   1  16
ATOM     13  C   UNL     1      -1.298  17.982  18.285  0.00  0.00    +0.000 C 
ATOM     14  C   UNL     1      -0.054  17.135  18.404  0.00  0.00    +0.000 A 
ATOM     15  C   UNL     1      -0.228  15.725  18.868  0.00  0.00    +0.000 A 
ATOM     16  C   UNL     1       0.869  14.940  18.917  0.00  0.00    +0.000 A 
ATOM     17  N   UNL     1       2.110  15.542  18.562  0.00  0.00    +0.000 N 
ATOM     18  N   UNL     1       3.371  15.017  18.556  0.00  0.00    +0.000 NA
ATOM     19  C   UNL     1       4.105  16.048  18.145  0.00  0.00    +0.000 A 
ATOM     20  N   UNL     1       3.432  17.199  17.894  0.00  0.00    +0.000 NA
ATOM     21  C   UNL     1       2.182  16.888  18.163  0.00  0.00    +0.000 A 
ATOM     22  N   UNL     1       1.077  17.683  18.077  0.00  0.00    +0.000 NA
ENDBRANCH   1  16
BRANCH   9  23
ATOM     23  C   UNL     1       2.818   7.392  18.038  0.00  0.00    +0.000 C 
BRANCH  23  24
ATOM     24  C   UNL     1       3.026   5.894  18.030  0.00  0.00    +0.000 A 
ATOM     25  C   UNL     1       4.293   5.354  18.277  0.00  0.00    +0.000 A 
ATOM     26  C   UNL     1       4.484   3.971  18.299  0.00  0.00    +0.000 A 
ATOM     27  C   UNL     1       3.409   3.114  18.067  0.00  0.00    +0.000 A 
ATOM     28  C   UNL     1       2.145   3.638  17.803  0.00  0.00    +0.000 A 
ATOM     29  C   UNL     1       1.955   5.021  17.779  0.00  0.00    +0.000 A 
ENDBRANCH  23  24
ENDBRANCH   9  23
TORSDOF 3
ENDMDL
MODEL 3
REMARK VINA RESULT:      -8.1      1.096      2.197
REMARK  Name = 
REMARK  4 active torsions:
REMARK  status: ('A' for Active; 'I' for Inactive)
REMARK    1  A    between atoms: C_1  and  C_2
REMARK    2  A    between atoms: C_4  and  N_5
REMARK    3  A    between atoms: C_13  and  C_14
REMARK    4  A    between atoms: C_14  and  C_15
REMARK                            x       y       z     vdW  Elec       q    Type
REMARK                         _______ _______ _______ _____ _____    ______ ____
ROOT
ATOM      1  N   UNL     1       2.236   7.376  19.192  0.00  0.00    +0.000 N 
ATOM      2  C   UNL     1       1.630   8.025  17.998  0.00  0.00    +0.000 C 
ATOM      3  C   UNL     1       1.686   9.558  18.142  0.00  0.00    +0.000 C 
ATOM      4  N   UNL     1       1.106  10.041  19.406  0.00  0.00    +0.000 N 
ATOM      5  C   UNL     1      -0.150  10.633  19.369  0.00  0.00    +0.000 A 
ATOM      6  C   UNL     1      -0.491  11.550  20.349  0.00  0.00    +0.000 A 
ATOM      7  C   UNL     1      -1.715  12.165  20.245  0.00  0.00    +0.000 A 
ATOM      8  N   UNL     1      -2.587  11.906  19.264  0.00  0.00    +0.000 NA
ATOM      9  C   UNL     1      -2.188  11.010  18.341  0.00  0.00    +0.000 A 
ATOM     10  N   UNL     1      -0.994  10.368  18.355  0.00  0.00    +0.000 NA
ATOM     11  C   UNL     1       1.510   9.305  20.618  0.00  0.00    +0.000 C 
ATOM     12  C   UNL     1       1.512   7.769  20.424  0.00  0.00    +0.000 C 
ENDROOT
BRANCH   1  16
ATOM     13  C   UNL     1       3.250   2.713  20.599  0.00  0.00    +0.000 C 
ATOM     14  C   UNL     1       3.587   3.910  19.743  0.00  0.00    +0.000 A 
ATOM     15  C   UNL     1       2.671   5.089  19.823  0.00  0.00    +0.000 A 
ATOM     16  C   UNL     1       2.997   6.187  19.112  0.00  0.00    +0.000 A 
ATOM     17  N   UNL     1       4.170   6.110  18.306  0.00  0.00    +0.000 N 
ATOM     18  N   UNL     1       4.717   7.032  17.460  0.00  0.00    +0.000 NA
ATOM     19  C   UNL     1       5.786   6.391  16.994  0.00  0.00    +0.000 A 
ATOM     20  N   UNL     1       5.973   5.129  17.456  0.00  0.00    +0.000 NA
ATOM     21  C   UNL     1       4.957   4.946  18.271  0.00  0.00    +0.000 A 
ATOM     22  N   UNL     1       4.657   3.841  19.011  0.00  0.00    +0.000 NA
ENDBRANCH   1  16
BRANCH   9  23
ATOM     23  C   UNL     1      -3.175  10.659  17.253  0.00  0.00    +0.000 C 
BRANCH  23  24
ATOM     24  C   UNL     1      -4.599  11.090  17.522  0.00  0.00    +0.000 A 
ATOM     25  C   UNL     1      -5.403  10.365  18.410  0.00  0.00    +0.000 A 
ATOM     26  C   UNL     1      -6.709  10.776  18.684  0.00  0.00    +0.000 A 
ATOM     27  C   UNL     1      -7.226  11.914  18.067  0.00  0.00    +0.000 A 
ATOM     28  C   UNL     1      -6.444  12.636  17.168  0.00  0.00    +0.000 A 
ATOM     29  C   UNL     1      -5.138  12.223  16.892  0.00  0.00    +0.000 A 
ENDBRANCH  23  24
ENDBRANCH   9  23
TORSDOF 3
ENDMDL
MODEL 4
REMARK VINA RESULT:      -8.0      3.793      9.906
REMARK  Name = 
REMARK  4 active torsions:
REMARK  status: ('A' for Active; 'I' for Inactive)
REMARK    1  A    between atoms: C_1  and  C_2
REMARK    2  A    between atoms: C_4  and  N_5
REMARK    3  A    between atoms: C_13  and  C_14
REMARK    4  A    between atoms: C_14  and  C_15
REMARK                            x       y       z     vdW  Elec       q    Type
REMARK                         _______ _______ _______ _____ _____    ______ ____
ROOT
ATOM      1  N   UNL     1       0.169  14.018  19.446  0.00  0.00    +0.000 N 
ATOM      2  C   UNL     1       0.078  12.946  18.419  0.00  0.00    +0.000 C 
ATOM      3  C   UNL     1      -0.715  11.746  18.973  0.00  0.00    +0.000 C 
ATOM      4  N   UNL     1      -0.196  11.256  20.260  0.00  0.00    +0.000 N 
ATOM      5  C   UNL     1       0.540  10.078  20.267  0.00  0.00    +0.000 A 
ATOM      6  C   UNL     1       0.576   9.313  21.421  0.00  0.00    +0.000 A 
ATOM      7  C   UNL     1       1.259   8.123  21.372  0.00  0.00    +0.000 A 
ATOM      8  N   UNL     1       1.899   7.685  20.280  0.00  0.00    +0.000 NA
ATOM      9  C   UNL     1       1.816   8.475  19.193  0.00  0.00    +0.000 A 
ATOM     10  N   UNL     1       1.152   9.656  19.145  0.00  0.00    +0.000 NA
ATOM     11  C   UNL     1       0.111  12.293  21.264  0.00  0.00    +0.000 C 
ATOM     12  C   UNL     1       0.847  13.517  20.666  0.00  0.00    +0.000 C 
ENDROOT
BRANCH   1  16
ATOM     13  C   UNL     1      -2.252  18.343  19.017  0.00  0.00    +0.000 C 
ATOM     14  C   UNL     1      -0.976  17.552  18.859  0.00  0.00    +0.000 A 
ATOM     15  C   UNL     1      -0.992  16.129  19.317  0.00  0.00    +0.000 A 
ATOM     16  C   UNL     1       0.122  15.393  19.122  0.00  0.00    +0.000 A 
ATOM     17  N   UNL     1       1.238  16.055  18.533  0.00  0.00    +0.000 N 
ATOM     18  N   UNL     1       2.491  15.588  18.257  0.00  0.00    +0.000 NA
ATOM     19  C   UNL     1       3.082  16.656  17.727  0.00  0.00    +0.000 A 
ATOM     20  N   UNL     1       2.324  17.778  17.646  0.00  0.00    +0.000 NA
ATOM     21  C   UNL     1       1.170  17.409  18.159  0.00  0.00    +0.000 A 
ATOM     22  N   UNL     1       0.040  18.154  18.320  0.00  0.00    +0.000 NA
ENDBRANCH   1  16
BRANCH   9  23
ATOM     23  C   UNL     1       2.573   8.032  17.963  0.00  0.00    +0.000 C 
BRANCH  23  24
ATOM     24  C   UNL     1       2.933   6.563  17.933  0.00  0.00    +0.000 A 
ATOM     25  C   UNL     1       1.929   5.588  17.926  0.00  0.00    +0.000 A 
ATOM     26  C   UNL     1       2.256   4.231  17.868  0.00  0.00    +0.000 A 
ATOM     27  C   UNL     1       3.593   3.837  17.822  0.00  0.00    +0.000 A 
ATOM     28  C   UNL     1       4.603   4.796  17.846  0.00  0.00    +0.000 A 
ATOM     29  C   UNL     1       4.276   6.153  17.906  0.00  0.00    +0.000 A 
ENDBRANCH  23  24
ENDBRANCH   9  23
TORSDOF 3
ENDMDL
MODEL 5
REMARK VINA RESULT:      -8.0      2.642      8.600
REMARK  Name = 
REMARK  4 active torsions:
REMARK  status: ('A' for Active; 'I' for Inactive)
REMARK    1  A    between atoms: C_1  and  C_2
REMARK    2  A    between atoms: C_4  and  N_5
REMARK    3  A    between atoms: C_13  and  C_14
REMARK    4  A    between atoms: C_14  and  C_15
REMARK                            x       y       z     vdW  Elec       q    Type
REMARK                         _______ _______ _______ _____ _____    ______ ____
ROOT
ATOM      1  N   UNL     1       1.570   8.698  19.180  0.00  0.00    +0.000 N 
ATOM      2  C   UNL     1       2.003   7.419  19.804  0.00  0.00    +0.000 C 
ATOM      3  C   UNL     1       3.505   7.185  19.545  0.00  0.00    +0.000 C 
ATOM      4  N   UNL     1       3.866   7.274  18.121  0.00  0.00    +0.000 N 
ATOM      5  C   UNL     1       4.118   6.094  17.431  0.00  0.00    +0.000 A 
ATOM      6  C   UNL     1       4.951   6.126  16.325  0.00  0.00    +0.000 A 
ATOM      7  C   UNL     1       5.231   4.932  15.707  0.00  0.00    +0.000 A 
ATOM      8  N   UNL     1       4.726   3.759  16.109  0.00  0.00    +0.000 NA
ATOM      9  C   UNL     1       3.931   3.801  17.195  0.00  0.00    +0.000 A 
ATOM     10  N   UNL     1       3.614   4.929  17.877  0.00  0.00    +0.000 NA
ATOM     11  C   UNL     1       3.297   8.419  17.386  0.00  0.00    +0.000 C 
ATOM     12  C   UNL     1       1.806   8.674  17.717  0.00  0.00    +0.000 C 
ENDROOT
BRANCH   1  16
ATOM     13  C   UNL     1      -1.961  12.192  18.907  0.00  0.00    +0.000 C 
ATOM     14  C   UNL     1      -1.115  11.269  19.750  0.00  0.00    +0.000 A 
ATOM     15  C   UNL     1      -0.196  10.335  19.030  0.00  0.00    +0.000 A 
ATOM     16  C   UNL     1       0.611   9.551  19.774  0.00  0.00    +0.000 A 
ATOM     17  N   UNL     1       0.483   9.651  21.190  0.00  0.00    +0.000 N 
ATOM     18  N   UNL     1       1.126   8.966  22.181  0.00  0.00    +0.000 NA
ATOM     19  C   UNL     1       0.588   9.485  23.280  0.00  0.00    +0.000 A 
ATOM     20  N   UNL     1      -0.357  10.441  23.089  0.00  0.00    +0.000 NA
ATOM     21  C   UNL     1      -0.431  10.541  21.780  0.00  0.00    +0.000 A 
ATOM     22  N   UNL     1      -1.228  11.363  21.040  0.00  0.00    +0.000 NA
ENDBRANCH   1  16
BRANCH   9  23
ATOM     23  C   UNL     1       3.305   2.499  17.638  0.00  0.00    +0.000 C 
BRANCH  23  24
ATOM     24  C   UNL     1       2.613   2.551  18.982  0.00  0.00    +0.000 A 
ATOM     25  C   UNL     1       3.354   2.442  20.165  0.00  0.00    +0.000 A 
ATOM     26  C   UNL     1       2.724   2.518  21.408  0.00  0.00    +0.000 A 
ATOM     27  C   UNL     1       1.343   2.698  21.480  0.00  0.00    +0.000 A 
ATOM     28  C   UNL     1       0.590   2.790  20.311  0.00  0.00    +0.000 A 
ATOM     29  C   UNL     1       1.221   2.712  19.068  0.00  0.00    +0.000 A 
ENDBRANCH  23  24
ENDBRANCH   9  23
TORSDOF 3
ENDMDL
MODEL 6
REMARK VINA RESULT:      -8.0      0.930      2.271
REMARK  Name = 
REMARK  4 active torsions:
REMARK  status: ('A' for Active; 'I' for Inactive)
REMARK    1  A    between atoms: C_1  and  C_2
REMARK    2  A    between atoms: C_4  and  N_5
REMARK    3  A    between atoms: C_13  and  C_14
REMARK    4  A    between atoms: C_14  and  C_15
REMARK                            x       y       z     vdW  Elec       q    Type
REMARK                         _______ _______ _______ _____ _____    ______ ____
ROOT
ATOM      1  N   UNL     1       2.010   7.045  19.521  0.00  0.00    +0.000 N 
ATOM      2  C   UNL     1       1.471   7.533  18.223  0.00  0.00    +0.000 C 
ATOM      3  C   UNL     1       1.753   9.040  18.066  0.00  0.00    +0.000 C 
ATOM      4  N   UNL     1       1.286   9.838  19.211  0.00  0.00    +0.000 N 
ATOM      5  C   UNL     1       0.128  10.591  19.060  0.00  0.00    +0.000 A 
ATOM      6  C   UNL     1      -0.047  11.720  19.842  0.00  0.00    +0.000 A 
ATOM      7  C   UNL     1      -1.171  12.478  19.620  0.00  0.00    +0.000 A 
ATOM      8  N   UNL     1      -2.100  12.166  18.708  0.00  0.00    +0.000 NA
ATOM      9  C   UNL     1      -1.862  11.060  17.978  0.00  0.00    +0.000 A 
ATOM     10  N   UNL     1      -0.774  10.263  18.117  0.00  0.00    +0.000 NA
ATOM     11  C   UNL     1       1.613   9.298  20.544  0.00  0.00    +0.000 C 
ATOM     12  C   UNL     1       1.386   7.770  20.653  0.00  0.00    +0.000 C 
ENDROOT
BRANCH   1  16
ATOM     13  C   UNL     1       2.018   2.430  21.380  0.00  0.00    +0.000 C 
ATOM     14  C   UNL     1       2.695   3.492  20.547  0.00  0.00    +0.000 A 
ATOM     15  C   UNL     1       1.966   4.784  20.362  0.00  0.00    +0.000 A 
ATOM     16  C   UNL     1       2.588   5.763  19.674  0.00  0.00    +0.000 A 
ATOM     17  N   UNL     1       3.875   5.461  19.143  0.00  0.00    +0.000 N 
ATOM     18  N   UNL     1       4.713   6.226  18.382  0.00  0.00    +0.000 NA
ATOM     19  C   UNL     1       5.747   5.411  18.192  0.00  0.00    +0.000 A 
ATOM     20  N   UNL     1       5.648   4.180  18.755  0.00  0.00    +0.000 NA
ATOM     21  C   UNL     1       4.473   4.205  19.344  0.00  0.00    +0.000 A 
ATOM     22  N   UNL     1       3.869   3.219  20.066  0.00  0.00    +0.000 NA
ENDBRANCH   1  16
BRANCH   9  23
ATOM     23  C   UNL     1      -2.920  10.656  16.978  0.00  0.00    +0.000 C 
BRANCH  23  24
ATOM     24  C   UNL     1      -4.338  10.996  17.380  0.00  0.00    +0.000 A 
ATOM     25  C   UNL     1      -5.002  12.077  16.789  0.00  0.00    +0.000 A 
ATOM     26  C   UNL     1      -6.321  12.377  17.135  0.00  0.00    +0.000 A 
ATOM     27  C   UNL     1      -6.987  11.600  18.082  0.00  0.00    +0.000 A 
ATOM     28  C   UNL     1      -6.333  10.531  18.692  0.00  0.00    +0.000 A 
ATOM     29  C   UNL     1      -5.013  10.233  18.347  0.00  0.00    +0.000 A 
ENDBRANCH  23  24
ENDBRANCH   9  23
TORSDOF 3
ENDMDL
MODEL 7
REMARK VINA RESULT:      -7.9      3.040      9.640
REMARK  Name = 
REMARK  4 active torsions:
REMARK  status: ('A' for Active; 'I' for Inactive)
REMARK    1  A    between atoms: C_1  and  C_2
REMARK    2  A    between atoms: C_4  and  N_5
REMARK    3  A    between atoms: C_13  and  C_14
REMARK    4  A    between atoms: C_14  and  C_15
REMARK                            x       y       z     vdW  Elec       q    Type
REMARK                         _______ _______ _______ _____ _____    ______ ____
ROOT
ATOM      1  N   UNL     1      -1.276  11.915  21.272  0.00  0.00    +0.000 N 
ATOM      2  C   UNL     1      -0.209  11.124  21.942  0.00  0.00    +0.000 C 
ATOM      3  C   UNL     1       1.090  11.179  21.115  0.00  0.00    +0.000 C 
ATOM      4  N   UNL     1       0.896  10.792  19.708  0.00  0.00    +0.000 N 
ATOM      5  C   UNL     1       1.333   9.537  19.305  0.00  0.00    +0.000 A 
ATOM      6  C   UNL     1       1.672   9.336  17.977  0.00  0.00    +0.000 A 
ATOM      7  C   UNL     1       2.163   8.102  17.627  0.00  0.00    +0.000 A 
ATOM      8  N   UNL     1       2.306   7.093  18.495  0.00  0.00    +0.000 NA
ATOM      9  C   UNL     1       1.963   7.360  19.770  0.00  0.00    +0.000 A 
ATOM     10  N   UNL     1       1.487   8.551  20.208  0.00  0.00    +0.000 NA
ATOM     11  C   UNL     1      -0.274  11.388  19.036  0.00  0.00    +0.000 C 
ATOM     12  C   UNL     1      -1.548  11.382  19.915  0.00  0.00    +0.000 C 
ENDROOT
BRANCH   1  16
ATOM     13  C   UNL     1      -4.753  12.381  24.799  0.00  0.00    +0.000 C 
ATOM     14  C   UNL     1      -3.958  12.999  23.675  0.00  0.00    +0.000 A 
ATOM     15  C   UNL     1      -2.904  12.153  23.036  0.00  0.00    +0.000 A 
ATOM     16  C   UNL     1      -2.231  12.673  21.989  0.00  0.00    +0.000 A 
ATOM     17  N   UNL     1      -2.555  14.007  21.611  0.00  0.00    +0.000 N 
ATOM     18  N   UNL     1      -2.022  14.798  20.633  0.00  0.00    +0.000 NA
ATOM     19  C   UNL     1      -2.719  15.923  20.766  0.00  0.00    +0.000 A 
ATOM     20  N   UNL     1      -3.651  15.935  21.752  0.00  0.00    +0.000 NA
ATOM     21  C   UNL     1      -3.545  14.739  22.290  0.00  0.00    +0.000 A 
ATOM     22  N   UNL     1      -4.256  14.214  23.328  0.00  0.00    +0.000 NA
ENDBRANCH   1  16
BRANCH   9  23
ATOM     23  C   UNL     1       2.064   6.224  20.760  0.00  0.00    +0.000 C 
BRANCH  23  24
ATOM     24  C   UNL     1       2.059   4.842  20.145  0.00  0.00    +0.000 A 
ATOM     25  C   UNL     1       3.239   4.291  19.632  0.00  0.00    +0.000 A 
ATOM     26  C   UNL     1       3.246   3.004  19.090  0.00  0.00    +0.000 A 
ATOM     27  C   UNL     1       2.069   2.257  19.051  0.00  0.00    +0.000 A 
ATOM     28  C   UNL     1       0.883   2.800  19.542  0.00  0.00    +0.000 A 
ATOM     29  C   UNL     1       0.876   4.088  20.082  0.00  0.00    +0.000 A 
ENDBRANCH  23  24
ENDBRANCH   9  23
TORSDOF 3
ENDMDL
MODEL 8
REMARK VINA RESULT:      -7.9      3.552      9.476
REMARK  Name = 
REMARK  4 active torsions:
REMARK  status: ('A' for Active; 'I' for Inactive)
REMARK    1  A    between atoms: C_1  and  C_2
REMARK    2  A    between atoms: C_4  and  N_5
REMARK    3  A    between atoms: C_13  and  C_14
REMARK    4  A    between atoms: C_14  and  C_15
REMARK                            x       y       z     vdW  Elec       q    Type
REMARK                         _______ _______ _______ _____ _____    ______ ____
ROOT
ATOM      1  N   UNL     1       1.450   8.518  19.896  0.00  0.00    +0.000 N 
ATOM      2  C   UNL     1       2.222   8.105  18.693  0.00  0.00    +0.000 C 
ATOM      3  C   UNL     1       1.874   6.652  18.314  0.00  0.00    +0.000 C 
ATOM      4  N   UNL     1       2.023   5.711  19.435  0.00  0.00    +0.000 N 
ATOM      5  C   UNL     1       3.129   4.870  19.445  0.00  0.00    +0.000 A 
ATOM      6  C   UNL     1       3.050   3.661  20.116  0.00  0.00    +0.000 A 
ATOM      7  C   UNL     1       4.138   2.826  20.051  0.00  0.00    +0.000 A 
ATOM      8  N   UNL     1       5.263   3.133  19.393  0.00  0.00    +0.000 NA
ATOM      9  C   UNL     1       5.268   4.320  18.757  0.00  0.00    +0.000 A 
ATOM     10  N   UNL     1       4.236   5.199  18.754  0.00  0.00    +0.000 NA
ATOM     11  C   UNL     1       1.454   6.152  20.722  0.00  0.00    +0.000 C 
ATOM     12  C   UNL     1       1.760   7.635  21.046  0.00  0.00    +0.000 C 
ENDROOT
BRANCH   1  16
ATOM     13  C   UNL     1       0.986  13.261  18.468  0.00  0.00    +0.000 C 
ATOM     14  C   UNL     1       0.671  12.172  19.465  0.00  0.00    +0.000 A 
ATOM     15  C   UNL     1       1.166  10.796  19.154  0.00  0.00    +0.000 A 
ATOM     16  C   UNL     1       0.946   9.828  20.068  0.00  0.00    +0.000 A 
ATOM     17  N   UNL     1       0.219  10.196  21.236  0.00  0.00    +0.000 N 
ATOM     18  N   UNL     1      -0.183   9.436  22.296  0.00  0.00    +0.000 NA
ATOM     19  C   UNL     1      -0.820  10.323  23.057  0.00  0.00    +0.000 A 
ATOM     20  N   UNL     1      -0.875  11.590  22.576  0.00  0.00    +0.000 NA
ATOM     21  C   UNL     1      -0.233  11.513  21.431  0.00  0.00    +0.000 A 
ATOM     22  N   UNL     1       0.011  12.508  20.531  0.00  0.00    +0.000 NA
ENDBRANCH   1  16
BRANCH   9  23
ATOM     23  C   UNL     1       6.544   4.715  18.052  0.00  0.00    +0.000 C 
BRANCH  23  24
ATOM     24  C   UNL     1       6.503   4.592  16.545  0.00  0.00    +0.000 A 
ATOM     25  C   UNL     1       7.427   5.283  15.753  0.00  0.00    +0.000 A 
ATOM     26  C   UNL     1       7.412   5.150  14.363  0.00  0.00    +0.000 A 
ATOM     27  C   UNL     1       6.467   4.327  13.751  0.00  0.00    +0.000 A 
ATOM     28  C   UNL     1       5.530   3.646  14.526  0.00  0.00    +0.000 A 
ATOM     29  C   UNL     1       5.544   3.781  15.916  0.00  0.00    +0.000 A 
ENDBRANCH  23  24
ENDBRANCH   9  23
TORSDOF 3
ENDMDL
MODEL 9
REMARK VINA RESULT:      -7.9      1.654      2.484
REMARK  Name = 
REMARK  4 active torsions:
REMARK  status: ('A' for Active; 'I' for Inactive)
REMARK    1  A    between atoms: C_1  and  C_2
REMARK    2  A    between atoms: C_4  and  N_5
REMARK    3  A    between atoms: C_13  and  C_14
REMARK    4  A    between atoms: C_14  and  C_15
REMARK                            x       y       z     vdW  Elec       q    Type
REMARK                         _______ _______ _______ _____ _____    ______ ____
ROOT
ATOM      1  N   UNL     1       1.703   8.608  19.483  0.00  0.00    +0.000 N 
ATOM      2  C   UNL     1       0.961   9.528  18.578  0.00  0.00    +0.000 C 
ATOM      3  C   UNL     1       1.005  10.966  19.132  0.00  0.00    +0.000 C 
ATOM      4  N   UNL     1       0.557  11.061  20.530  0.00  0.00    +0.000 N 
ATOM      5  C   UNL     1      -0.706  11.582  20.782  0.00  0.00    +0.000 A 
ATOM      6  C   UNL     1      -0.955  12.182  22.005  0.00  0.00    +0.000 A 
ATOM      7  C   UNL     1      -2.193  12.745  22.196  0.00  0.00    +0.000 A 
ATOM      8  N   UNL     1      -3.162  12.722  21.272  0.00  0.00    +0.000 NA
ATOM      9  C   UNL     1      -2.849  12.129  20.104  0.00  0.00    +0.000 A 
ATOM     10  N   UNL     1      -1.650  11.563  19.823  0.00  0.00    +0.000 NA
ATOM     11  C   UNL     1       1.102  10.043  21.448  0.00  0.00    +0.000 C 
ATOM     12  C   UNL     1       1.109   8.618  20.841  0.00  0.00    +0.000 C 
ENDROOT
BRANCH   1  16
ATOM     13  C   UNL     1       4.878   6.573  16.238  0.00  0.00    +0.000 C 
ATOM     14  C   UNL     1       4.005   6.428  17.461  0.00  0.00    +0.000 A 
ATOM     15  C   UNL     1       3.304   7.654  17.951  0.00  0.00    +0.000 A 
ATOM     16  C   UNL     1       2.471   7.522  19.004  0.00  0.00    +0.000 A 
ATOM     17  N   UNL     1       2.368   6.227  19.588  0.00  0.00    +0.000 N 
ATOM     18  N   UNL     1       1.649   5.805  20.670  0.00  0.00    +0.000 NA
ATOM     19  C   UNL     1       1.958   4.513  20.731  0.00  0.00    +0.000 A 
ATOM     20  N   UNL     1       2.824   4.062  19.788  0.00  0.00    +0.000 NA
ATOM     21  C   UNL     1       3.090   5.134  19.075  0.00  0.00    +0.000 A 
ATOM     22  N   UNL     1       3.908   5.247  17.991  0.00  0.00    +0.000 NA
ENDBRANCH   1  16
BRANCH   9  23
ATOM     23  C   UNL     1      -3.942  12.041  19.065  0.00  0.00    +0.000 C 
BRANCH  23  24
ATOM     24  C   UNL     1      -3.570  11.276  17.814  0.00  0.00    +0.000 A 
ATOM     25  C   UNL     1      -4.167  11.590  16.588  0.00  0.00    +0.000 A 
ATOM     26  C   UNL     1      -3.806  10.907  15.425  0.00  0.00    +0.000 A 
ATOM     27  C   UNL     1      -2.847   9.896  15.479  0.00  0.00    +0.000 A 
ATOM     28  C   UNL     1      -2.257   9.560  16.696  0.00  0.00    +0.000 A 
ATOM     29  C   UNL     1      -2.620  10.243  17.859  0.00  0.00    +0.000 A 
ENDBRANCH  23  24
ENDBRANCH   9  23
TORSDOF 3
ENDMDL
