MODEL 1
REMARK VINA RESULT:      -8.9      0.000      0.000
REMARK  Name = 
REMARK  5 active torsions:
REMARK  status: ('A' for Active; 'I' for Inactive)
REMARK    1  A    between atoms: C_2  and  C_19
REMARK    2  A    between atoms: N_3  and  C_4
REMARK    3  A    between atoms: C_4  and  C_5
REMARK    4  A    between atoms: C_9  and  O_10
REMARK    5  A    between atoms: O_10  and  C_11
REMARK                            x       y       z     vdW  Elec       q    Type
REMARK                         _______ _______ _______ _____ _____    ______ ____
ROOT
ATOM      1  C   UNL     1       7.686   8.729  17.566  0.00  0.00    +0.000 C 
ENDROOT
BRANCH   1   2
ATOM      2  C   UNL     1       7.382   7.279  17.806  0.00  0.00    +0.000 A 
ATOM      3  C   UNL     1       8.038   6.580  18.824  0.00  0.00    +0.000 A 
ATOM      4  C   UNL     1       7.749   5.238  19.000  0.00  0.00    +0.000 A 
ATOM      5  N   UNL     1       6.866   4.560  18.243  0.00  0.00    +0.000 NA
ATOM      6  C   UNL     1       6.207   5.256  17.288  0.00  0.00    +0.000 A 
ATOM      7  C   UNL     1       6.453   6.593  17.010  0.00  0.00    +0.000 A 
BRANCH   6   8
ATOM      8  O   UNL     1       5.221   4.618  16.537  0.00  0.00    +0.000 OA
BRANCH   8   9
ATOM      9  C   UNL     1       4.105   4.164  17.205  0.00  0.00    +0.000 A 
ATOM     10  C   UNL     1       3.872   2.810  17.475  0.00  0.00    +0.000 A 
ATOM     11  C   UNL     1       2.702   2.411  18.119  0.00  0.00    +0.000 A 
ATOM     12  C   UNL     1       1.794   3.374  18.541  0.00  0.00    +0.000 A 
ATOM     13  F   UNL     1       0.666   2.990  19.152  0.00  0.00    +0.000 F 
ATOM     14  C   UNL     1       2.041   4.728  18.339  0.00  0.00    +0.000 A 
ATOM     15  C   UNL     1       3.203   5.128  17.673  0.00  0.00    +0.000 A 
ENDBRANCH   8   9
ENDBRANCH   6   8
ENDBRANCH   1   2
BRANCH   1  18
ATOM     16  O   UNL     1       8.455  11.349  17.740  0.00  0.00    +0.000 OA
ATOM     17  C   UNL     1       9.070  10.542  18.438  0.00  0.00    +0.000 C 
ATOM     18  N   UNL     1       8.713   9.210  18.462  0.00  0.00    +0.000 N 
ATOM     19  H   UNL     1       9.370   8.533  18.828  0.00  0.00    +0.000 HD
BRANCH  17  20
ATOM     20  C   UNL     1      10.185  10.989  19.404  0.00  0.00    +0.000 C 
ATOM     21  C   UNL     1       9.598  11.223  20.827  0.00  0.00    +0.000 C 
ATOM     22  C   UNL     1       8.797  12.545  20.906  0.00  0.00    +0.000 C 
ATOM     23  C   UNL     1       9.653  13.789  20.585  0.00  0.00    +0.000 C 
ATOM     24  C   UNL     1      10.626  13.473  19.512  0.00  0.00    +0.000 A 
ATOM     25  N   UNL     1      11.497  14.345  18.930  0.00  0.00    +0.000 N 
ATOM     26  N   UNL     1      12.333  13.742  18.064  0.00  0.00    +0.000 NA
ATOM     27  C   UNL     1      11.995  12.451  18.126  0.00  0.00    +0.000 A 
ATOM     28  C   UNL     1      10.904  12.230  18.985  0.00  0.00    +0.000 A 
ATOM     29  H   UNL     1      11.600  15.342  19.088  0.00  0.00    +0.000 HD
ENDBRANCH  17  20
ENDBRANCH   1  18
TORSDOF 5
ENDMDL
MODEL 2
REMARK VINA RESULT:      -8.7      7.081      9.948
REMARK  Name = 
REMARK  5 active torsions:
REMARK  status: ('A' for Active; 'I' for Inactive)
REMARK    1  A    between atoms: C_2  and  C_19
REMARK    2  A    between atoms: N_3  and  C_4
REMARK    3  A    between atoms: C_4  and  C_5
REMARK    4  A    between atoms: C_9  and  O_10
REMARK    5  A    between atoms: O_10  and  C_11
REMARK                            x       y       z     vdW  Elec       q    Type
REMARK                         _______ _______ _______ _____ _____    ______ ____
ROOT
ATOM      1  C   UNL     1       3.027   6.529  17.895  0.00  0.00    +0.000 C 
ENDROOT
BRANCH   1   2
ATOM      2  C   UNL     1       2.268   7.519  18.730  0.00  0.00    +0.000 A 
ATOM      3  C   UNL     1       2.130   7.320  20.108  0.00  0.00    +0.000 A 
ATOM      4  C   UNL     1       1.404   8.242  20.842  0.00  0.00    +0.000 A 
ATOM      5  N   UNL     1       0.819   9.329  20.304  0.00  0.00    +0.000 NA
ATOM      6  C   UNL     1       0.994   9.533  18.978  0.00  0.00    +0.000 A 
ATOM      7  C   UNL     1       1.672   8.649  18.152  0.00  0.00    +0.000 A 
BRANCH   6   8
ATOM      8  O   UNL     1       0.480  10.690  18.393  0.00  0.00    +0.000 OA
BRANCH   8   9
ATOM      9  C   UNL     1      -0.886  10.775  18.244  0.00  0.00    +0.000 A 
ATOM     10  C   UNL     1      -1.667  11.744  18.886  0.00  0.00    +0.000 A 
ATOM     11  C   UNL     1      -3.052  11.752  18.725  0.00  0.00    +0.000 A 
ATOM     12  C   UNL     1      -3.646  10.825  17.877  0.00  0.00    +0.000 A 
ATOM     13  F   UNL     1      -4.976  10.828  17.730  0.00  0.00    +0.000 F 
ATOM     14  C   UNL     1      -2.878   9.898  17.181  0.00  0.00    +0.000 A 
ATOM     15  C   UNL     1      -1.492   9.873  17.359  0.00  0.00    +0.000 A 
ENDBRANCH   8   9
ENDBRANCH   6   8
ENDBRANCH   1   2
BRANCH   1  18
ATOM     16  O   UNL     1       1.127   4.728  17.102  0.00  0.00    +0.000 OA
ATOM     17  C   UNL     1       1.887   4.373  18.005  0.00  0.00    +0.000 C 
ATOM     18  N   UNL     1       2.914   5.191  18.428  0.00  0.00    +0.000 N 
ATOM     19  H   UNL     1       3.355   5.002  19.318  0.00  0.00    +0.000 HD
BRANCH  17  20
ATOM     20  C   UNL     1       1.809   2.964  18.624  0.00  0.00    +0.000 C 
ATOM     21  C   UNL     1       0.655   2.901  19.666  0.00  0.00    +0.000 C 
ATOM     22  C   UNL     1       1.033   3.618  20.985  0.00  0.00    +0.000 C 
ATOM     23  C   UNL     1       2.268   3.001  21.675  0.00  0.00    +0.000 C 
ATOM     24  C   UNL     1       3.254   2.565  20.656  0.00  0.00    +0.000 A 
ATOM     25  N   UNL     1       4.486   2.038  20.900  0.00  0.00    +0.000 N 
ATOM     26  N   UNL     1       5.109   1.633  19.777  0.00  0.00    +0.000 NA
ATOM     27  C   UNL     1       4.229   1.890  18.804  0.00  0.00    +0.000 A 
ATOM     28  C   UNL     1       3.067   2.512  19.292  0.00  0.00    +0.000 A 
ATOM     29  H   UNL     1       4.953   1.896  21.789  0.00  0.00    +0.000 HD
ENDBRANCH  17  20
ENDBRANCH   1  18
TORSDOF 5
ENDMDL
MODEL 3
REMARK VINA RESULT:      -8.7      6.800     10.102
REMARK  Name = 
REMARK  5 active torsions:
REMARK  status: ('A' for Active; 'I' for Inactive)
REMARK    1  A    between atoms: C_2  and  C_19
REMARK    2  A    between atoms: N_3  and  C_4
REMARK    3  A    between atoms: C_4  and  C_5
REMARK    4  A    between atoms: C_9  and  O_10
REMARK    5  A    between atoms: O_10  and  C_11
REMARK                            x       y       z     vdW  Elec       q    Type
REMARK                         _______ _______ _______ _____ _____    ______ ____
ROOT
ATOM      1  C   UNL     1       3.194   6.981  18.410  0.00  0.00    +0.000 C 
ENDROOT
BRANCH   1   2
ATOM      2  C   UNL     1       2.212   7.890  19.090  0.00  0.00    +0.000 A 
ATOM      3  C   UNL     1       1.878   7.689  20.433  0.00  0.00    +0.000 A 
ATOM      4  C   UNL     1       0.950   8.533  21.020  0.00  0.00    +0.000 A 
ATOM      5  N   UNL     1       0.347   9.544  20.369  0.00  0.00    +0.000 NA
ATOM      6  C   UNL     1       0.708   9.756  19.082  0.00  0.00    +0.000 A 
ATOM      7  C   UNL     1       1.599   8.943  18.396  0.00  0.00    +0.000 A 
BRANCH   6   8
ATOM      8  O   UNL     1       0.174  10.844  18.393  0.00  0.00    +0.000 OA
BRANCH   8   9
ATOM      9  C   UNL     1      -1.189  10.869  18.199  0.00  0.00    +0.000 A 
ATOM     10  C   UNL     1      -2.034  11.797  18.820  0.00  0.00    +0.000 A 
ATOM     11  C   UNL     1      -3.412  11.745  18.613  0.00  0.00    +0.000 A 
ATOM     12  C   UNL     1      -3.935  10.797  17.742  0.00  0.00    +0.000 A 
ATOM     13  F   UNL     1      -5.258  10.740  17.551  0.00  0.00    +0.000 F 
ATOM     14  C   UNL     1      -3.103   9.909  17.068  0.00  0.00    +0.000 A 
ATOM     15  C   UNL     1      -1.724   9.946  17.291  0.00  0.00    +0.000 A 
ENDBRANCH   8   9
ENDBRANCH   6   8
ENDBRANCH   1   2
BRANCH   1  18
ATOM     16  O   UNL     1       5.261   5.192  18.498  0.00  0.00    +0.000 OA
ATOM     17  C   UNL     1       4.150   4.774  18.827  0.00  0.00    +0.000 C 
ATOM     18  N   UNL     1       3.061   5.618  18.872  0.00  0.00    +0.000 N 
ATOM     19  H   UNL     1       2.132   5.219  18.892  0.00  0.00    +0.000 HD
BRANCH  17  20
ATOM     20  C   UNL     1       3.940   3.327  19.316  0.00  0.00    +0.000 C 
ATOM     21  C   UNL     1       3.714   2.380  18.102  0.00  0.00    +0.000 C 
ATOM     22  C   UNL     1       2.294   2.540  17.506  0.00  0.00    +0.000 C 
ATOM     23  C   UNL     1       1.174   2.215  18.518  0.00  0.00    +0.000 C 
ATOM     24  C   UNL     1       1.563   2.680  19.871  0.00  0.00    +0.000 A 
ATOM     25  N   UNL     1       0.796   2.620  20.996  0.00  0.00    +0.000 N 
ATOM     26  N   UNL     1       1.459   3.017  22.098  0.00  0.00    +0.000 NA
ATOM     27  C   UNL     1       2.686   3.307  21.655  0.00  0.00    +0.000 A 
ATOM     28  C   UNL     1       2.796   3.155  20.262  0.00  0.00    +0.000 A 
ATOM     29  H   UNL     1      -0.162   2.300  21.096  0.00  0.00    +0.000 HD
ENDBRANCH  17  20
ENDBRANCH   1  18
TORSDOF 5
ENDMDL
MODEL 4
REMARK VINA RESULT:      -8.6      6.373      9.789
REMARK  Name = 
REMARK  5 active torsions:
REMARK  status: ('A' for Active; 'I' for Inactive)
REMARK    1  A    between atoms: C_2  and  C_19
REMARK    2  A    between atoms: N_3  and  C_4
REMARK    3  A    between atoms: C_4  and  C_5
REMARK    4  A    between atoms: C_9  and  O_10
REMARK    5  A    between atoms: O_10  and  C_11
REMARK                            x       y       z     vdW  Elec       q    Type
REMARK                         _______ _______ _______ _____ _____    ______ ____
ROOT
ATOM      1  C   UNL     1       1.061   7.660  21.724  0.00  0.00    +0.000 C 
ENDROOT
BRANCH   1   2
ATOM      2  C   UNL     1       0.330   8.971  21.734  0.00  0.00    +0.000 A 
ATOM      3  C   UNL     1      -0.202   9.473  22.926  0.00  0.00    +0.000 A 
ATOM      4  C   UNL     1      -0.890  10.674  22.892  0.00  0.00    +0.000 A 
ATOM      5  N   UNL     1      -1.077  11.394  21.771  0.00  0.00    +0.000 NA
ATOM      6  C   UNL     1      -0.523  10.920  20.631  0.00  0.00    +0.000 A 
ATOM      7  C   UNL     1       0.152   9.710  20.556  0.00  0.00    +0.000 A 
BRANCH   6   8
ATOM      8  O   UNL     1      -0.617  11.674  19.462  0.00  0.00    +0.000 OA
BRANCH   8   9
ATOM      9  C   UNL     1      -1.548  11.285  18.526  0.00  0.00    +0.000 A 
ATOM     10  C   UNL     1      -1.285  10.332  17.534  0.00  0.00    +0.000 A 
ATOM     11  C   UNL     1      -2.258  10.011  16.589  0.00  0.00    +0.000 A 
ATOM     12  C   UNL     1      -3.512  10.604  16.673  0.00  0.00    +0.000 A 
ATOM     13  F   UNL     1      -4.444  10.302  15.761  0.00  0.00    +0.000 F 
ATOM     14  C   UNL     1      -3.811  11.503  17.691  0.00  0.00    +0.000 A 
ATOM     15  C   UNL     1      -2.829  11.844  18.625  0.00  0.00    +0.000 A 
ENDBRANCH   8   9
ENDBRANCH   6   8
ENDBRANCH   1   2
BRANCH   1  18
ATOM     16  O   UNL     1       2.015   5.231  20.904  0.00  0.00    +0.000 OA
ATOM     17  C   UNL     1       2.238   6.193  20.167  0.00  0.00    +0.000 C 
ATOM     18  N   UNL     1       1.744   7.445  20.469  0.00  0.00    +0.000 N 
ATOM     19  H   UNL     1       2.141   8.252  20.006  0.00  0.00    +0.000 HD
BRANCH  17  20
ATOM     20  C   UNL     1       2.973   6.032  18.822  0.00  0.00    +0.000 C 
ATOM     21  C   UNL     1       2.013   5.426  17.758  0.00  0.00    +0.000 C 
ATOM     22  C   UNL     1       1.789   3.910  17.984  0.00  0.00    +0.000 C 
ATOM     23  C   UNL     1       3.093   3.089  17.903  0.00  0.00    +0.000 C 
ATOM     24  C   UNL     1       4.216   3.858  18.493  0.00  0.00    +0.000 A 
ATOM     25  N   UNL     1       5.497   3.422  18.651  0.00  0.00    +0.000 N 
ATOM     26  N   UNL     1       6.318   4.383  19.114  0.00  0.00    +0.000 NA
ATOM     27  C   UNL     1       5.534   5.461  19.222  0.00  0.00    +0.000 A 
ATOM     28  C   UNL     1       4.198   5.179  18.886  0.00  0.00    +0.000 A 
ATOM     29  H   UNL     1       5.888   2.509  18.444  0.00  0.00    +0.000 HD
ENDBRANCH  17  20
ENDBRANCH   1  18
TORSDOF 5
ENDMDL
MODEL 5
REMARK VINA RESULT:      -8.4      5.709      7.551
REMARK  Name = 
REMARK  5 active torsions:
REMARK  status: ('A' for Active; 'I' for Inactive)
REMARK    1  A    between atoms: C_2  and  C_19
REMARK    2  A    between atoms: N_3  and  C_4
REMARK    3  A    between atoms: C_4  and  C_5
REMARK    4  A    between atoms: C_9  and  O_10
REMARK    5  A    between atoms: O_10  and  C_11
REMARK                            x       y       z     vdW  Elec       q    Type
REMARK                         _______ _______ _______ _____ _____    ______ ____
ROOT
ATOM      1  C   UNL     1       4.752   2.910  19.570  0.00  0.00    +0.000 C 
ENDROOT
BRANCH   1   2
ATOM      2  C   UNL     1       3.378   3.467  19.805  0.00  0.00    +0.000 A 
ATOM      3  C   UNL     1       2.247   2.702  19.502  0.00  0.00    +0.000 A 
ATOM      4  C   UNL     1       0.996   3.258  19.710  0.00  0.00    +0.000 A 
ATOM      5  N   UNL     1       0.803   4.500  20.191  0.00  0.00    +0.000 NA
ATOM      6  C   UNL     1       1.903   5.215  20.520  0.00  0.00    +0.000 A 
ATOM      7  C   UNL     1       3.198   4.761  20.314  0.00  0.00    +0.000 A 
BRANCH   6   8
ATOM      8  O   UNL     1       1.751   6.472  21.102  0.00  0.00    +0.000 OA
BRANCH   8   9
ATOM      9  C   UNL     1       1.654   7.557  20.260  0.00  0.00    +0.000 A 
ATOM     10  C   UNL     1       2.194   7.575  18.968  0.00  0.00    +0.000 A 
ATOM     11  C   UNL     1       2.097   8.721  18.179  0.00  0.00    +0.000 A 
ATOM     12  C   UNL     1       1.411   9.827  18.665  0.00  0.00    +0.000 A 
ATOM     13  F   UNL     1       1.326  10.930  17.911  0.00  0.00    +0.000 F 
ATOM     14  C   UNL     1       0.814   9.803  19.920  0.00  0.00    +0.000 A 
ATOM     15  C   UNL     1       0.930   8.664  20.722  0.00  0.00    +0.000 A 
ENDBRANCH   8   9
ENDBRANCH   6   8
ENDBRANCH   1   2
BRANCH   1  18
ATOM     16  O   UNL     1       6.668   4.838  19.883  0.00  0.00    +0.000 OA
ATOM     17  C   UNL     1       6.326   4.576  18.728  0.00  0.00    +0.000 C 
ATOM     18  N   UNL     1       5.412   3.577  18.470  0.00  0.00    +0.000 N 
ATOM     19  H   UNL     1       4.960   3.549  17.566  0.00  0.00    +0.000 HD
BRANCH  17  20
ATOM     20  C   UNL     1       6.982   5.261  17.513  0.00  0.00    +0.000 C 
ATOM     21  C   UNL     1       6.802   6.804  17.608  0.00  0.00    +0.000 C 
ATOM     22  C   UNL     1       5.357   7.236  17.256  0.00  0.00    +0.000 C 
ATOM     23  C   UNL     1       4.942   6.843  15.823  0.00  0.00    +0.000 C 
ATOM     24  C   UNL     1       5.523   5.524  15.469  0.00  0.00    +0.000 A 
ATOM     25  N   UNL     1       5.315   4.836  14.312  0.00  0.00    +0.000 N 
ATOM     26  N   UNL     1       6.065   3.721  14.231  0.00  0.00    +0.000 NA
ATOM     27  C   UNL     1       6.783   3.726  15.358  0.00  0.00    +0.000 A 
ATOM     28  C   UNL     1       6.454   4.810  16.190  0.00  0.00    +0.000 A 
ATOM     29  H   UNL     1       4.711   5.071  13.531  0.00  0.00    +0.000 HD
ENDBRANCH  17  20
ENDBRANCH   1  18
TORSDOF 5
ENDMDL
MODEL 6
REMARK VINA RESULT:      -8.2      6.380      9.829
REMARK  Name = 
REMARK  5 active torsions:
REMARK  status: ('A' for Active; 'I' for Inactive)
REMARK    1  A    between atoms: C_2  and  C_19
REMARK    2  A    between atoms: N_3  and  C_4
REMARK    3  A    between atoms: C_4  and  C_5
REMARK    4  A    between atoms: C_9  and  O_10
REMARK    5  A    between atoms: O_10  and  C_11
REMARK                            x       y       z     vdW  Elec       q    Type
REMARK                         _______ _______ _______ _____ _____    ______ ____
ROOT
ATOM      1  C   UNL     1       1.427   8.604  20.558  0.00  0.00    +0.000 C 
ENDROOT
BRANCH   1   2
ATOM      2  C   UNL     1       0.810   9.883  20.070  0.00  0.00    +0.000 A 
ATOM      3  C   UNL     1       1.605  11.013  19.855  0.00  0.00    +0.000 A 
ATOM      4  C   UNL     1       0.997  12.180  19.428  0.00  0.00    +0.000 A 
ATOM      5  N   UNL     1      -0.325  12.293  19.203  0.00  0.00    +0.000 NA
ATOM      6  C   UNL     1      -1.079  11.183  19.374  0.00  0.00    +0.000 A 
ATOM      7  C   UNL     1      -0.570   9.978  19.835  0.00  0.00    +0.000 A 
BRANCH   6   8
ATOM      8  O   UNL     1      -2.439  11.228  19.071  0.00  0.00    +0.000 OA
BRANCH   8   9
ATOM      9  C   UNL     1      -2.815  10.921  17.782  0.00  0.00    +0.000 A 
ATOM     10  C   UNL     1      -2.109  10.025  16.971  0.00  0.00    +0.000 A 
ATOM     11  C   UNL     1      -2.519   9.787  15.660  0.00  0.00    +0.000 A 
ATOM     12  C   UNL     1      -3.669  10.405  15.183  0.00  0.00    +0.000 A 
ATOM     13  F   UNL     1      -4.058  10.184  13.921  0.00  0.00    +0.000 F 
ATOM     14  C   UNL     1      -4.418  11.247  15.996  0.00  0.00    +0.000 A 
ATOM     15  C   UNL     1      -3.996  11.505  17.303  0.00  0.00    +0.000 A 
ENDBRANCH   8   9
ENDBRANCH   6   8
ENDBRANCH   1   2
BRANCH   1  18
ATOM     16  O   UNL     1       1.812   5.897  20.633  0.00  0.00    +0.000 OA
ATOM     17  C   UNL     1       2.199   6.486  19.623  0.00  0.00    +0.000 C 
ATOM     18  N   UNL     1       1.993   7.841  19.470  0.00  0.00    +0.000 N 
ATOM     19  H   UNL     1       2.529   8.342  18.774  0.00  0.00    +0.000 HD
BRANCH  17  20
ATOM     20  C   UNL     1       2.823   5.730  18.432  0.00  0.00    +0.000 C 
ATOM     21  C   UNL     1       1.789   4.735  17.830  0.00  0.00    +0.000 C 
ATOM     22  C   UNL     1       1.613   3.482  18.721  0.00  0.00    +0.000 C 
ATOM     23  C   UNL     1       2.920   2.683  18.906  0.00  0.00    +0.000 C 
ATOM     24  C   UNL     1       4.074   3.611  18.999  0.00  0.00    +0.000 A 
ATOM     25  N   UNL     1       5.371   3.264  19.229  0.00  0.00    +0.000 N 
ATOM     26  N   UNL     1       6.210   4.314  19.148  0.00  0.00    +0.000 NA
ATOM     27  C   UNL     1       5.418   5.343  18.832  0.00  0.00    +0.000 A 
ATOM     28  C   UNL     1       4.065   4.969  18.767  0.00  0.00    +0.000 A 
ATOM     29  H   UNL     1       5.761   2.346  19.416  0.00  0.00    +0.000 HD
ENDBRANCH  17  20
ENDBRANCH   1  18
TORSDOF 5
ENDMDL
MODEL 7
REMARK VINA RESULT:      -8.1      6.308     10.236
REMARK  Name = 
REMARK  5 active torsions:
REMARK  status: ('A' for Active; 'I' for Inactive)
REMARK    1  A    between atoms: C_2  and  C_19
REMARK    2  A    between atoms: N_3  and  C_4
REMARK    3  A    between atoms: C_4  and  C_5
REMARK    4  A    between atoms: C_9  and  O_10
REMARK    5  A    between atoms: O_10  and  C_11
REMARK                            x       y       z     vdW  Elec       q    Type
REMARK                         _______ _______ _______ _____ _____    ______ ____
ROOT
ATOM      1  C   UNL     1       1.387   7.956  21.520  0.00  0.00    +0.000 C 
ENDROOT
BRANCH   1   2
ATOM      2  C   UNL     1       0.642   9.246  21.330  0.00  0.00    +0.000 A 
ATOM      3  C   UNL     1      -0.067   9.814  22.394  0.00  0.00    +0.000 A 
ATOM      4  C   UNL     1      -0.761  10.990  22.175  0.00  0.00    +0.000 A 
ATOM      5  N   UNL     1      -0.794  11.627  20.989  0.00  0.00    +0.000 NA
ATOM      6  C   UNL     1      -0.071  11.091  19.979  0.00  0.00    +0.000 A 
ATOM      7  C   UNL     1       0.626   9.897  20.089  0.00  0.00    +0.000 A 
BRANCH   6   8
ATOM      8  O   UNL     1      -0.005  11.761  18.758  0.00  0.00    +0.000 OA
BRANCH   8   9
ATOM      9  C   UNL     1       0.848  12.838  18.667  0.00  0.00    +0.000 A 
ATOM     10  C   UNL     1       2.209  12.713  18.362  0.00  0.00    +0.000 A 
ATOM     11  C   UNL     1       3.029  13.840  18.324  0.00  0.00    +0.000 A 
ATOM     12  C   UNL     1       2.473  15.095  18.537  0.00  0.00    +0.000 A 
ATOM     13  F   UNL     1       3.262  16.176  18.510  0.00  0.00    +0.000 F 
ATOM     14  C   UNL     1       1.111  15.243  18.778  0.00  0.00    +0.000 A 
ATOM     15  C   UNL     1       0.292  14.112  18.839  0.00  0.00    +0.000 A 
ENDBRANCH   8   9
ENDBRANCH   6   8
ENDBRANCH   1   2
BRANCH   1  18
ATOM     16  O   UNL     1       1.596   5.337  20.760  0.00  0.00    +0.000 OA
ATOM     17  C   UNL     1       2.119   6.173  20.022  0.00  0.00    +0.000 C 
ATOM     18  N   UNL     1       2.012   7.521  20.292  0.00  0.00    +0.000 N 
ATOM     19  H   UNL     1       2.646   8.164  19.835  0.00  0.00    +0.000 HD
BRANCH  17  20
ATOM     20  C   UNL     1       2.812   5.772  18.704  0.00  0.00    +0.000 C 
ATOM     21  C   UNL     1       1.847   4.919  17.831  0.00  0.00    +0.000 C 
ATOM     22  C   UNL     1       1.711   3.474  18.370  0.00  0.00    +0.000 C 
ATOM     23  C   UNL     1       3.053   2.711  18.397  0.00  0.00    +0.000 C 
ATOM     24  C   UNL     1       4.154   3.634  18.766  0.00  0.00    +0.000 A 
ATOM     25  N   UNL     1       5.461   3.296  18.951  0.00  0.00    +0.000 N 
ATOM     26  N   UNL     1       6.247   4.367  19.170  0.00  0.00    +0.000 NA
ATOM     27  C   UNL     1       5.412   5.408  19.093  0.00  0.00    +0.000 A 
ATOM     28  C   UNL     1       4.081   5.005  18.884  0.00  0.00    +0.000 A 
ATOM     29  H   UNL     1       5.892   2.379  18.916  0.00  0.00    +0.000 HD
ENDBRANCH  17  20
ENDBRANCH   1  18
TORSDOF 5
ENDMDL
MODEL 8
REMARK VINA RESULT:      -8.1      6.401      9.899
REMARK  Name = 
REMARK  5 active torsions:
REMARK  status: ('A' for Active; 'I' for Inactive)
REMARK    1  A    between atoms: C_2  and  C_19
REMARK    2  A    between atoms: N_3  and  C_4
REMARK    3  A    between atoms: C_4  and  C_5
REMARK    4  A    between atoms: C_9  and  O_10
REMARK    5  A    between atoms: O_10  and  C_11
REMARK                            x       y       z     vdW  Elec       q    Type
REMARK                         _______ _______ _______ _____ _____    ______ ____
ROOT
ATOM      1  C   UNL     1       1.833   7.593  21.418  0.00  0.00    +0.000 C 
ENDROOT
BRANCH   1   2
ATOM      2  C   UNL     1       0.932   8.793  21.478  0.00  0.00    +0.000 A 
ATOM      3  C   UNL     1       0.459   9.259  22.709  0.00  0.00    +0.000 A 
ATOM      4  C   UNL     1      -0.388  10.353  22.722  0.00  0.00    +0.000 A 
ATOM      5  N   UNL     1      -0.787  11.001  21.612  0.00  0.00    +0.000 NA
ATOM      6  C   UNL     1      -0.291  10.567  20.430  0.00  0.00    +0.000 A 
ATOM      7  C   UNL     1       0.533   9.458  20.309  0.00  0.00    +0.000 A 
BRANCH   6   8
ATOM      8  O   UNL     1      -0.607  11.260  19.263  0.00  0.00    +0.000 OA
BRANCH   8   9
ATOM      9  C   UNL     1      -1.908  11.196  18.816  0.00  0.00    +0.000 A 
ATOM     10  C   UNL     1      -2.898  12.105  19.209  0.00  0.00    +0.000 A 
ATOM     11  C   UNL     1      -4.208  11.963  18.752  0.00  0.00    +0.000 A 
ATOM     12  C   UNL     1      -4.511  10.942  17.859  0.00  0.00    +0.000 A 
ATOM     13  F   UNL     1      -5.770  10.800  17.428  0.00  0.00    +0.000 F 
ATOM     14  C   UNL     1      -3.526  10.070  17.408  0.00  0.00    +0.000 A 
ATOM     15  C   UNL     1      -2.218  10.198  17.883  0.00  0.00    +0.000 A 
ENDBRANCH   8   9
ENDBRANCH   6   8
ENDBRANCH   1   2
BRANCH   1  18
ATOM     16  O   UNL     1       1.786   5.024  20.480  0.00  0.00    +0.000 OA
ATOM     17  C   UNL     1       2.141   5.899  19.688  0.00  0.00    +0.000 C 
ATOM     18  N   UNL     1       2.137   7.228  20.053  0.00  0.00    +0.000 N 
ATOM     19  H   UNL     1       2.661   7.890  19.496  0.00  0.00    +0.000 HD
BRANCH  17  20
ATOM     20  C   UNL     1       2.492   5.572  18.222  0.00  0.00    +0.000 C 
ATOM     21  C   UNL     1       1.518   4.493  17.667  0.00  0.00    +0.000 C 
ATOM     22  C   UNL     1       1.851   3.083  18.214  0.00  0.00    +0.000 C 
ATOM     23  C   UNL     1       3.272   2.611  17.840  0.00  0.00    +0.000 C 
ATOM     24  C   UNL     1       4.213   3.757  17.873  0.00  0.00    +0.000 A 
ATOM     25  N   UNL     1       5.558   3.703  17.663  0.00  0.00    +0.000 N 
ATOM     26  N   UNL     1       6.130   4.922  17.647  0.00  0.00    +0.000 NA
ATOM     27  C   UNL     1       5.109   5.766  17.826  0.00  0.00    +0.000 A 
ATOM     28  C   UNL     1       3.891   5.090  18.015  0.00  0.00    +0.000 A 
ATOM     29  H   UNL     1       6.144   2.891  17.497  0.00  0.00    +0.000 HD
ENDBRANCH  17  20
ENDBRANCH   1  18
TORSDOF 5
ENDMDL
MODEL 9
REMARK VINA RESULT:      -8.0      7.188     10.722
REMARK  Name = 
REMARK  5 active torsions:
REMARK  status: ('A' for Active; 'I' for Inactive)
REMARK    1  A    between atoms: C_2  and  C_19
REMARK    2  A    between atoms: N_3  and  C_4
REMARK    3  A    between atoms: C_4  and  C_5
REMARK    4  A    between atoms: C_9  and  O_10
REMARK    5  A    between atoms: O_10  and  C_11
REMARK                            x       y       z     vdW  Elec       q    Type
REMARK                         _______ _______ _______ _____ _____    ______ ____
ROOT
ATOM      1  C   UNL     1       1.355   8.215  20.995  0.00  0.00    +0.000 C 
ENDROOT
BRANCH   1   2
ATOM      2  C   UNL     1       0.766   9.557  20.671  0.00  0.00    +0.000 A 
ATOM      3  C   UNL     1       0.275   9.820  19.388  0.00  0.00    +0.000 A 
ATOM      4  C   UNL     1      -0.239  11.077  19.119  0.00  0.00    +0.000 A 
ATOM      5  N   UNL     1      -0.296  12.068  20.027  0.00  0.00    +0.000 NA
ATOM      6  C   UNL     1       0.144  11.790  21.276  0.00  0.00    +0.000 A 
ATOM      7  C   UNL     1       0.710  10.575  21.634  0.00  0.00    +0.000 A 
BRANCH   6   8
ATOM      8  O   UNL     1       0.025  12.758  22.273  0.00  0.00    +0.000 OA
BRANCH   8   9
ATOM      9  C   UNL     1      -1.231  12.999  22.781  0.00  0.00    +0.000 A 
ATOM     10  C   UNL     1      -2.120  11.979  23.144  0.00  0.00    +0.000 A 
ATOM     11  C   UNL     1      -3.394  12.288  23.615  0.00  0.00    +0.000 A 
ATOM     12  C   UNL     1      -3.757  13.620  23.776  0.00  0.00    +0.000 A 
ATOM     13  F   UNL     1      -4.984  13.917  24.220  0.00  0.00    +0.000 F 
ATOM     14  C   UNL     1      -2.864  14.645  23.482  0.00  0.00    +0.000 A 
ATOM     15  C   UNL     1      -1.594  14.336  22.987  0.00  0.00    +0.000 A 
ENDBRANCH   8   9
ENDBRANCH   6   8
ENDBRANCH   1   2
BRANCH   1  18
ATOM     16  O   UNL     1       1.679   5.516  20.683  0.00  0.00    +0.000 OA
ATOM     17  C   UNL     1       2.126   6.237  19.789  0.00  0.00    +0.000 C 
ATOM     18  N   UNL     1       1.955   7.605  19.831  0.00  0.00    +0.000 N 
ATOM     19  H   UNL     1       2.535   8.188  19.242  0.00  0.00    +0.000 HD
BRANCH  17  20
ATOM     20  C   UNL     1       2.789   5.648  18.527  0.00  0.00    +0.000 C 
ATOM     21  C   UNL     1       1.803   4.684  17.806  0.00  0.00    +0.000 C 
ATOM     22  C   UNL     1       1.676   3.332  18.548  0.00  0.00    +0.000 C 
ATOM     23  C   UNL     1       3.016   2.574  18.655  0.00  0.00    +0.000 C 
ATOM     24  C   UNL     1       4.127   3.534  18.864  0.00  0.00    +0.000 A 
ATOM     25  N   UNL     1       5.437   3.220  19.067  0.00  0.00    +0.000 N 
ATOM     26  N   UNL     1       6.230   4.307  19.114  0.00  0.00    +0.000 NA
ATOM     27  C   UNL     1       5.396   5.330  18.908  0.00  0.00    +0.000 A 
ATOM     28  C   UNL     1       4.060   4.908  18.787  0.00  0.00    +0.000 A 
ATOM     29  H   UNL     1       5.866   2.304  19.154  0.00  0.00    +0.000 HD
ENDBRANCH  17  20
ENDBRANCH   1  18
TORSDOF 5
ENDMDL
