MODEL 1
REMARK VINA RESULT:      -9.0      0.000      0.000
REMARK  Name = 
REMARK  5 active torsions:
REMARK  status: ('A' for Active; 'I' for Inactive)
REMARK    1  A    between atoms: C_2  and  C_3
REMARK    2  A    between atoms: C_3  and  O_4
REMARK    3  A    between atoms: O_4  and  C_5
REMARK    4  A    between atoms: C_10  and  C_11
REMARK    5  A    between atoms: C_21  and  C_22
REMARK                            x       y       z     vdW  Elec       q    Type
REMARK                         _______ _______ _______ _____ _____    ______ ____
ROOT
ATOM      1  O   UNL     1       2.049   9.670  17.514  0.00  0.00    +0.000 OA
ATOM      2  C   UNL     1       1.849   8.843  18.409  0.00  0.00    +0.000 C 
ATOM      3  N   UNL     1       1.437   9.243  19.674  0.00  0.00    +0.000 N 
ATOM      4  C   UNL     1       1.166   8.359  20.801  0.00  0.00    +0.000 C 
ATOM      5  C   UNL     1      -0.194   8.806  21.297  0.00  0.00    +0.000 C 
ATOM      6  C   UNL     1      -0.126  10.314  21.121  0.00  0.00    +0.000 C 
ATOM      7  C   UNL     1       0.690  10.497  19.828  0.00  0.00    +0.000 C 
ENDROOT
BRANCH   7   8
ATOM      8  C   UNL     1       1.536  11.740  19.868  0.00  0.00    +0.000 A 
ATOM      9  N   UNL     1       1.783  12.513  20.909  0.00  0.00    +0.000 NA
ATOM     10  C   UNL     1       2.278  13.686  20.396  0.00  0.00    +0.000 A 
ATOM     11  C   UNL     1       2.614  14.888  21.049  0.00  0.00    +0.000 A 
ATOM     12  C   UNL     1       3.011  15.986  20.277  0.00  0.00    +0.000 A 
ATOM     13  C   UNL     1       3.091  15.888  18.886  0.00  0.00    +0.000 A 
ATOM     14  C   UNL     1       2.796  14.689  18.221  0.00  0.00    +0.000 A 
ATOM     15  C   UNL     1       2.390  13.614  19.015  0.00  0.00    +0.000 A 
ATOM     16  N   UNL     1       1.997  12.334  18.712  0.00  0.00    +0.000 N 
ATOM     17  H   UNL     1       1.938  11.912  17.791  0.00  0.00    +0.000 HD
ENDBRANCH   7   8
BRANCH   2  18
ATOM     18  C   UNL     1       1.981   7.338  18.134  0.00  0.00    +0.000 C 
BRANCH  18  19
ATOM     19  O   UNL     1       3.352   7.003  18.358  0.00  0.00    +0.000 OA
BRANCH  19  20
ATOM     20  C   UNL     1       4.004   6.149  17.503  0.00  0.00    +0.000 A 
ATOM     21  C   UNL     1       4.821   6.609  16.456  0.00  0.00    +0.000 A 
ATOM     22  C   UNL     1       5.485   5.711  15.620  0.00  0.00    +0.000 A 
ATOM     23  C   UNL     1       5.359   4.345  15.828  0.00  0.00    +0.000 A 
ATOM     24  C   UNL     1       4.543   3.875  16.857  0.00  0.00    +0.000 A 
ATOM     25  C   UNL     1       3.817   4.750  17.701  0.00  0.00    +0.000 A 
BRANCH  25  26
ATOM     26  C   UNL     1       2.868   4.169  18.698  0.00  0.00    +0.000 A 
ATOM     27  C   UNL     1       1.651   3.571  18.330  0.00  0.00    +0.000 A 
ATOM     28  C   UNL     1       0.817   2.949  19.268  0.00  0.00    +0.000 A 
ATOM     29  C   UNL     1       1.161   2.945  20.615  0.00  0.00    +0.000 A 
ATOM     30  C   UNL     1       2.332   3.571  21.023  0.00  0.00    +0.000 A 
ATOM     31  C   UNL     1       3.174   4.169  20.076  0.00  0.00    +0.000 A 
ENDBRANCH  25  26
ENDBRANCH  19  20
ENDBRANCH  18  19
ENDBRANCH   2  18
TORSDOF 5
ENDMDL
MODEL 2
REMARK VINA RESULT:      -9.0      1.454      3.451
REMARK  Name = 
REMARK  5 active torsions:
REMARK  status: ('A' for Active; 'I' for Inactive)
REMARK    1  A    between atoms: C_2  and  C_3
REMARK    2  A    between atoms: C_3  and  O_4
REMARK    3  A    between atoms: O_4  and  C_5
REMARK    4  A    between atoms: C_10  and  C_11
REMARK    5  A    between atoms: C_21  and  C_22
REMARK                            x       y       z     vdW  Elec       q    Type
REMARK                         _______ _______ _______ _____ _____    ______ ____
ROOT
ATOM      1  O   UNL     1       2.231   8.618  17.450  0.00  0.00    +0.000 OA
ATOM      2  C   UNL     1       2.216   8.179  18.605  0.00  0.00    +0.000 C 
ATOM      3  N   UNL     1       1.554   8.857  19.619  0.00  0.00    +0.000 N 
ATOM      4  C   UNL     1       1.466   8.433  21.011  0.00  0.00    +0.000 C 
ATOM      5  C   UNL     1      -0.013   8.528  21.329  0.00  0.00    +0.000 C 
ATOM      6  C   UNL     1      -0.429   9.777  20.570  0.00  0.00    +0.000 C 
ATOM      7  C   UNL     1       0.420   9.729  19.287  0.00  0.00    +0.000 C 
ENDROOT
BRANCH   7   8
ATOM      8  C   UNL     1       0.795  11.104  18.808  0.00  0.00    +0.000 A 
ATOM      9  N   UNL     1       2.001  11.550  18.505  0.00  0.00    +0.000 NA
ATOM     10  C   UNL     1       1.900  12.919  18.480  0.00  0.00    +0.000 A 
ATOM     11  C   UNL     1       2.898  13.896  18.306  0.00  0.00    +0.000 A 
ATOM     12  C   UNL     1       2.546  15.247  18.419  0.00  0.00    +0.000 A 
ATOM     13  C   UNL     1       1.226  15.620  18.682  0.00  0.00    +0.000 A 
ATOM     14  C   UNL     1       0.211  14.662  18.822  0.00  0.00    +0.000 A 
ATOM     15  C   UNL     1       0.593  13.322  18.717  0.00  0.00    +0.000 A 
ATOM     16  N   UNL     1      -0.106  12.147  18.833  0.00  0.00    +0.000 N 
ATOM     17  H   UNL     1      -1.098  12.039  19.020  0.00  0.00    +0.000 HD
ENDBRANCH   7   8
BRANCH   2  18
ATOM     18  C   UNL     1       2.871   6.832  18.943  0.00  0.00    +0.000 C 
BRANCH  18  19
ATOM     19  O   UNL     1       2.588   5.957  17.850  0.00  0.00    +0.000 OA
BRANCH  19  20
ATOM     20  C   UNL     1       2.404   4.614  18.069  0.00  0.00    +0.000 A 
ATOM     21  C   UNL     1       1.257   4.102  18.699  0.00  0.00    +0.000 A 
ATOM     22  C   UNL     1       1.096   2.729  18.885  0.00  0.00    +0.000 A 
ATOM     23  C   UNL     1       2.065   1.847  18.428  0.00  0.00    +0.000 A 
ATOM     24  C   UNL     1       3.214   2.343  17.811  0.00  0.00    +0.000 A 
ATOM     25  C   UNL     1       3.438   3.731  17.641  0.00  0.00    +0.000 A 
BRANCH  25  26
ATOM     26  C   UNL     1       4.747   4.187  17.084  0.00  0.00    +0.000 A 
ATOM     27  C   UNL     1       5.857   4.479  17.894  0.00  0.00    +0.000 A 
ATOM     28  C   UNL     1       7.103   4.816  17.350  0.00  0.00    +0.000 A 
ATOM     29  C   UNL     1       7.262   4.911  15.972  0.00  0.00    +0.000 A 
ATOM     30  C   UNL     1       6.173   4.680  15.142  0.00  0.00    +0.000 A 
ATOM     31  C   UNL     1       4.936   4.318  15.691  0.00  0.00    +0.000 A 
ENDBRANCH  25  26
ENDBRANCH  19  20
ENDBRANCH  18  19
ENDBRANCH   2  18
TORSDOF 5
ENDMDL
MODEL 3
REMARK VINA RESULT:      -9.0      1.586      3.217
REMARK  Name = 
REMARK  5 active torsions:
REMARK  status: ('A' for Active; 'I' for Inactive)
REMARK    1  A    between atoms: C_2  and  C_3
REMARK    2  A    between atoms: C_3  and  O_4
REMARK    3  A    between atoms: O_4  and  C_5
REMARK    4  A    between atoms: C_10  and  C_11
REMARK    5  A    between atoms: C_21  and  C_22
REMARK                            x       y       z     vdW  Elec       q    Type
REMARK                         _______ _______ _______ _____ _____    ______ ____
ROOT
ATOM      1  O   UNL     1       1.980   8.690  17.635  0.00  0.00    +0.000 OA
ATOM      2  C   UNL     1       1.978   8.286  18.803  0.00  0.00    +0.000 C 
ATOM      3  N   UNL     1       1.370   9.020  19.812  0.00  0.00    +0.000 N 
ATOM      4  C   UNL     1       1.302   8.641  21.218  0.00  0.00    +0.000 C 
ATOM      5  C   UNL     1      -0.163   8.807  21.570  0.00  0.00    +0.000 C 
ATOM      6  C   UNL     1      -0.549  10.049  20.784  0.00  0.00    +0.000 C 
ATOM      7  C   UNL     1       0.264   9.928  19.482  0.00  0.00    +0.000 C 
ENDROOT
BRANCH   7   8
ATOM      8  C   UNL     1       0.683  11.272  18.953  0.00  0.00    +0.000 A 
ATOM      9  N   UNL     1       1.901  11.667  18.629  0.00  0.00    +0.000 NA
ATOM     10  C   UNL     1       1.845  13.036  18.554  0.00  0.00    +0.000 A 
ATOM     11  C   UNL     1       2.875  13.972  18.341  0.00  0.00    +0.000 A 
ATOM     12  C   UNL     1       2.568  15.337  18.408  0.00  0.00    +0.000 A 
ATOM     13  C   UNL     1       1.263  15.763  18.664  0.00  0.00    +0.000 A 
ATOM     14  C   UNL     1       0.218  14.846  18.842  0.00  0.00    +0.000 A 
ATOM     15  C   UNL     1       0.553  13.491  18.784  0.00  0.00    +0.000 A 
ATOM     16  N   UNL     1      -0.183  12.345  18.945  0.00  0.00    +0.000 N 
ATOM     17  H   UNL     1      -1.177  12.276  19.140  0.00  0.00    +0.000 HD
ENDBRANCH   7   8
BRANCH   2  18
ATOM     18  C   UNL     1       2.586   6.924  19.165  0.00  0.00    +0.000 C 
BRANCH  18  19
ATOM     19  O   UNL     1       2.644   6.170  17.953  0.00  0.00    +0.000 OA
BRANCH  19  20
ATOM     20  C   UNL     1       2.681   4.797  17.993  0.00  0.00    +0.000 A 
ATOM     21  C   UNL     1       1.519   4.014  18.099  0.00  0.00    +0.000 A 
ATOM     22  C   UNL     1       1.595   2.621  18.115  0.00  0.00    +0.000 A 
ATOM     23  C   UNL     1       2.826   1.991  18.007  0.00  0.00    +0.000 A 
ATOM     24  C   UNL     1       3.988   2.757  17.913  0.00  0.00    +0.000 A 
ATOM     25  C   UNL     1       3.961   4.172  17.935  0.00  0.00    +0.000 A 
BRANCH  25  26
ATOM     26  C   UNL     1       5.255   4.919  17.956  0.00  0.00    +0.000 A 
ATOM     27  C   UNL     1       5.765   5.588  16.831  0.00  0.00    +0.000 A 
ATOM     28  C   UNL     1       6.933   6.359  16.894  0.00  0.00    +0.000 A 
ATOM     29  C   UNL     1       7.648   6.448  18.082  0.00  0.00    +0.000 A 
ATOM     30  C   UNL     1       7.203   5.759  19.202  0.00  0.00    +0.000 A 
ATOM     31  C   UNL     1       6.020   5.010  19.140  0.00  0.00    +0.000 A 
ENDBRANCH  25  26
ENDBRANCH  19  20
ENDBRANCH  18  19
ENDBRANCH   2  18
TORSDOF 5
ENDMDL
MODEL 4
REMARK VINA RESULT:      -8.9      1.358      3.277
REMARK  Name = 
REMARK  5 active torsions:
REMARK  status: ('A' for Active; 'I' for Inactive)
REMARK    1  A    between atoms: C_2  and  C_3
REMARK    2  A    between atoms: C_3  and  O_4
REMARK    3  A    between atoms: O_4  and  C_5
REMARK    4  A    between atoms: C_10  and  C_11
REMARK    5  A    between atoms: C_21  and  C_22
REMARK                            x       y       z     vdW  Elec       q    Type
REMARK                         _______ _______ _______ _____ _____    ______ ____
ROOT
ATOM      1  O   UNL     1       1.626   8.979  19.377  0.00  0.00    +0.000 OA
ATOM      2  C   UNL     1       1.346   8.642  20.532  0.00  0.00    +0.000 C 
ATOM      3  N   UNL     1       0.952   9.581  21.476  0.00  0.00    +0.000 N 
ATOM      4  C   UNL     1       0.593   9.299  22.860  0.00  0.00    +0.000 C 
ATOM      5  C   UNL     1      -0.731  10.012  23.046  0.00  0.00    +0.000 C 
ATOM      6  C   UNL     1      -0.534  11.283  22.237  0.00  0.00    +0.000 C 
ATOM      7  C   UNL     1       0.311  10.826  21.034  0.00  0.00    +0.000 C 
ENDROOT
BRANCH   7   8
ATOM      8  C   UNL     1       1.258  11.898  20.571  0.00  0.00    +0.000 A 
ATOM      9  N   UNL     1       1.687  12.944  21.254  0.00  0.00    +0.000 NA
ATOM     10  C   UNL     1       2.217  13.806  20.327  0.00  0.00    +0.000 A 
ATOM     11  C   UNL     1       2.725  15.110  20.491  0.00  0.00    +0.000 A 
ATOM     12  C   UNL     1       3.124  15.825  19.355  0.00  0.00    +0.000 A 
ATOM     13  C   UNL     1       3.036  15.253  18.085  0.00  0.00    +0.000 A 
ATOM     14  C   UNL     1       2.567  13.943  17.905  0.00  0.00    +0.000 A 
ATOM     15  C   UNL     1       2.164  13.257  19.054  0.00  0.00    +0.000 A 
ATOM     16  N   UNL     1       1.633  12.007  19.249  0.00  0.00    +0.000 N 
ATOM     17  H   UNL     1       1.434  11.307  18.541  0.00  0.00    +0.000 HD
ENDBRANCH   7   8
BRANCH   2  18
ATOM     18  C   UNL     1       1.355   7.163  20.944  0.00  0.00    +0.000 C 
BRANCH  18  19
ATOM     19  O   UNL     1       2.216   6.490  20.024  0.00  0.00    +0.000 OA
BRANCH  19  20
ATOM     20  C   UNL     1       2.119   5.130  19.853  0.00  0.00    +0.000 A 
ATOM     21  C   UNL     1       1.104   4.365  20.451  0.00  0.00    +0.000 A 
ATOM     22  C   UNL     1       1.026   2.989  20.236  0.00  0.00    +0.000 A 
ATOM     23  C   UNL     1       1.946   2.361  19.409  0.00  0.00    +0.000 A 
ATOM     24  C   UNL     1       2.966   3.108  18.819  0.00  0.00    +0.000 A 
ATOM     25  C   UNL     1       3.108   4.498  19.044  0.00  0.00    +0.000 A 
BRANCH  25  26
ATOM     26  C   UNL     1       4.297   5.203  18.478  0.00  0.00    +0.000 A 
ATOM     27  C   UNL     1       4.230   6.002  17.324  0.00  0.00    +0.000 A 
ATOM     28  C   UNL     1       5.335   6.729  16.861  0.00  0.00    +0.000 A 
ATOM     29  C   UNL     1       6.555   6.643  17.521  0.00  0.00    +0.000 A 
ATOM     30  C   UNL     1       6.673   5.823  18.635  0.00  0.00    +0.000 A 
ATOM     31  C   UNL     1       5.558   5.119  19.109  0.00  0.00    +0.000 A 
ENDBRANCH  25  26
ENDBRANCH  19  20
ENDBRANCH  18  19
ENDBRANCH   2  18
TORSDOF 5
ENDMDL
MODEL 5
REMARK VINA RESULT:      -8.7      1.799      3.258
REMARK  Name = 
REMARK  5 active torsions:
REMARK  status: ('A' for Active; 'I' for Inactive)
REMARK    1  A    between atoms: C_2  and  C_3
REMARK    2  A    between atoms: C_3  and  O_4
REMARK    3  A    between atoms: O_4  and  C_5
REMARK    4  A    between atoms: C_10  and  C_11
REMARK    5  A    between atoms: C_21  and  C_22
REMARK                            x       y       z     vdW  Elec       q    Type
REMARK                         _______ _______ _______ _____ _____    ______ ____
ROOT
ATOM      1  O   UNL     1       1.485   9.104  18.788  0.00  0.00    +0.000 OA
ATOM      2  C   UNL     1       1.587   8.664  19.937  0.00  0.00    +0.000 C 
ATOM      3  N   UNL     1       1.189   9.422  21.031  0.00  0.00    +0.000 N 
ATOM      4  C   UNL     1       1.256   9.005  22.426  0.00  0.00    +0.000 C 
ATOM      5  C   UNL     1      -0.128   9.305  22.964  0.00  0.00    +0.000 C 
ATOM      6  C   UNL     1      -0.477  10.605  22.259  0.00  0.00    +0.000 C 
ATOM      7  C   UNL     1       0.151  10.447  20.862  0.00  0.00    +0.000 C 
ENDROOT
BRANCH   7   8
ATOM      8  C   UNL     1       0.637  11.759  20.311  0.00  0.00    +0.000 A 
ATOM      9  N   UNL     1       1.644  12.492  20.748  0.00  0.00    +0.000 NA
ATOM     10  C   UNL     1       1.477  13.733  20.187  0.00  0.00    +0.000 A 
ATOM     11  C   UNL     1       2.204  14.922  20.389  0.00  0.00    +0.000 A 
ATOM     12  C   UNL     1       1.765  16.095  19.761  0.00  0.00    +0.000 A 
ATOM     13  C   UNL     1       0.637  16.084  18.937  0.00  0.00    +0.000 A 
ATOM     14  C   UNL     1      -0.078  14.902  18.696  0.00  0.00    +0.000 A 
ATOM     15  C   UNL     1       0.374  13.750  19.344  0.00  0.00    +0.000 A 
ATOM     16  N   UNL     1      -0.089  12.458  19.370  0.00  0.00    +0.000 N 
ATOM     17  H   UNL     1      -0.895  12.085  18.879  0.00  0.00    +0.000 HD
ENDBRANCH   7   8
BRANCH   2  18
ATOM     18  C   UNL     1       2.091   7.237  20.192  0.00  0.00    +0.000 C 
BRANCH  18  19
ATOM     19  O   UNL     1       2.935   6.901  19.089  0.00  0.00    +0.000 OA
BRANCH  19  20
ATOM     20  C   UNL     1       2.823   5.675  18.480  0.00  0.00    +0.000 A 
ATOM     21  C   UNL     1       1.615   4.960  18.440  0.00  0.00    +0.000 A 
ATOM     22  C   UNL     1       1.536   3.726  17.793  0.00  0.00    +0.000 A 
ATOM     23  C   UNL     1       2.653   3.199  17.162  0.00  0.00    +0.000 A 
ATOM     24  C   UNL     1       3.862   3.894  17.205  0.00  0.00    +0.000 A 
ATOM     25  C   UNL     1       3.998   5.127  17.886  0.00  0.00    +0.000 A 
BRANCH  25  26
ATOM     26  C   UNL     1       5.353   5.747  17.993  0.00  0.00    +0.000 A 
ATOM     27  C   UNL     1       5.770   6.810  17.174  0.00  0.00    +0.000 A 
ATOM     28  C   UNL     1       7.009   7.439  17.351  0.00  0.00    +0.000 A 
ATOM     29  C   UNL     1       7.887   6.992  18.331  0.00  0.00    +0.000 A 
ATOM     30  C   UNL     1       7.531   5.910  19.126  0.00  0.00    +0.000 A 
ATOM     31  C   UNL     1       6.279   5.302  18.962  0.00  0.00    +0.000 A 
ENDBRANCH  25  26
ENDBRANCH  19  20
ENDBRANCH  18  19
ENDBRANCH   2  18
TORSDOF 5
ENDMDL
MODEL 6
REMARK VINA RESULT:      -8.7      1.459      3.296
REMARK  Name = 
REMARK  5 active torsions:
REMARK  status: ('A' for Active; 'I' for Inactive)
REMARK    1  A    between atoms: C_2  and  C_3
REMARK    2  A    between atoms: C_3  and  O_4
REMARK    3  A    between atoms: O_4  and  C_5
REMARK    4  A    between atoms: C_10  and  C_11
REMARK    5  A    between atoms: C_21  and  C_22
REMARK                            x       y       z     vdW  Elec       q    Type
REMARK                         _______ _______ _______ _____ _____    ______ ____
ROOT
ATOM      1  O   UNL     1       2.108   8.903  18.258  0.00  0.00    +0.000 OA
ATOM      2  C   UNL     1       1.959   8.362  19.359  0.00  0.00    +0.000 C 
ATOM      3  N   UNL     1       1.339   9.031  20.406  0.00  0.00    +0.000 N 
ATOM      4  C   UNL     1       1.104   8.492  21.740  0.00  0.00    +0.000 C 
ATOM      5  C   UNL     1      -0.363   8.777  21.995  0.00  0.00    +0.000 C 
ATOM      6  C   UNL     1      -0.547  10.141  21.351  0.00  0.00    +0.000 C 
ATOM      7  C   UNL     1       0.365  10.090  20.113  0.00  0.00    +0.000 C 
ENDROOT
BRANCH   7   8
ATOM      8  C   UNL     1       0.964  11.433  19.798  0.00  0.00    +0.000 A 
ATOM      9  N   UNL     1       1.302  11.906  18.613  0.00  0.00    +0.000 NA
ATOM     10  C   UNL     1       2.121  12.981  18.857  0.00  0.00    +0.000 A 
ATOM     11  C   UNL     1       2.841  13.791  17.958  0.00  0.00    +0.000 A 
ATOM     12  C   UNL     1       3.693  14.776  18.474  0.00  0.00    +0.000 A 
ATOM     13  C   UNL     1       3.814  14.964  19.852  0.00  0.00    +0.000 A 
ATOM     14  C   UNL     1       3.077  14.191  20.762  0.00  0.00    +0.000 A 
ATOM     15  C   UNL     1       2.245  13.207  20.221  0.00  0.00    +0.000 A 
ATOM     16  N   UNL     1       1.428  12.266  20.794  0.00  0.00    +0.000 N 
ATOM     17  H   UNL     1       1.266  12.115  21.785  0.00  0.00    +0.000 HD
ENDBRANCH   7   8
BRANCH   2  18
ATOM     18  C   UNL     1       2.391   6.906  19.585  0.00  0.00    +0.000 C 
BRANCH  18  19
ATOM     19  O   UNL     1       2.573   6.331  18.291  0.00  0.00    +0.000 OA
BRANCH  19  20
ATOM     20  C   UNL     1       2.675   4.968  18.147  0.00  0.00    +0.000 A 
ATOM     21  C   UNL     1       1.554   4.121  18.168  0.00  0.00    +0.000 A 
ATOM     22  C   UNL     1       1.695   2.744  17.997  0.00  0.00    +0.000 A 
ATOM     23  C   UNL     1       2.952   2.195  17.784  0.00  0.00    +0.000 A 
ATOM     24  C   UNL     1       4.074   3.024  17.773  0.00  0.00    +0.000 A 
ATOM     25  C   UNL     1       3.981   4.421  17.985  0.00  0.00    +0.000 A 
BRANCH  25  26
ATOM     26  C   UNL     1       5.239   5.221  18.083  0.00  0.00    +0.000 A 
ATOM     27  C   UNL     1       6.113   5.132  19.179  0.00  0.00    +0.000 A 
ATOM     28  C   UNL     1       7.333   5.820  19.211  0.00  0.00    +0.000 A 
ATOM     29  C   UNL     1       7.694   6.653  18.159  0.00  0.00    +0.000 A 
ATOM     30  C   UNL     1       6.831   6.806  17.081  0.00  0.00    +0.000 A 
ATOM     31  C   UNL     1       5.624   6.095  17.043  0.00  0.00    +0.000 A 
ENDBRANCH  25  26
ENDBRANCH  19  20
ENDBRANCH  18  19
ENDBRANCH   2  18
TORSDOF 5
ENDMDL
MODEL 7
REMARK VINA RESULT:      -8.7      0.505      1.173
REMARK  Name = 
REMARK  5 active torsions:
REMARK  status: ('A' for Active; 'I' for Inactive)
REMARK    1  A    between atoms: C_2  and  C_3
REMARK    2  A    between atoms: C_3  and  O_4
REMARK    3  A    between atoms: O_4  and  C_5
REMARK    4  A    between atoms: C_10  and  C_11
REMARK    5  A    between atoms: C_21  and  C_22
REMARK                            x       y       z     vdW  Elec       q    Type
REMARK                         _______ _______ _______ _____ _____    ______ ____
ROOT
ATOM      1  O   UNL     1       1.766   9.505  17.426  0.00  0.00    +0.000 OA
ATOM      2  C   UNL     1       1.683   8.743  18.395  0.00  0.00    +0.000 C 
ATOM      3  N   UNL     1       1.285   9.209  19.640  0.00  0.00    +0.000 N 
ATOM      4  C   UNL     1       1.147   8.403  20.847  0.00  0.00    +0.000 C 
ATOM      5  C   UNL     1      -0.230   8.762  21.370  0.00  0.00    +0.000 C 
ATOM      6  C   UNL     1      -0.315  10.249  21.069  0.00  0.00    +0.000 C 
ATOM      7  C   UNL     1       0.426  10.397  19.728  0.00  0.00    +0.000 C 
ENDROOT
BRANCH   7   8
ATOM      8  C   UNL     1       1.149  11.712  19.626  0.00  0.00    +0.000 A 
ATOM      9  N   UNL     1       1.655  12.270  18.541  0.00  0.00    +0.000 NA
ATOM     10  C   UNL     1       2.513  13.245  18.986  0.00  0.00    +0.000 A 
ATOM     11  C   UNL     1       3.387  14.079  18.263  0.00  0.00    +0.000 A 
ATOM     12  C   UNL     1       4.239  14.937  18.970  0.00  0.00    +0.000 A 
ATOM     13  C   UNL     1       4.212  14.978  20.366  0.00  0.00    +0.000 A 
ATOM     14  C   UNL     1       3.322  14.181  21.102  0.00  0.00    +0.000 A 
ATOM     15  C   UNL     1       2.493  13.326  20.372  0.00  0.00    +0.000 A 
ATOM     16  N   UNL     1       1.551  12.402  20.749  0.00  0.00    +0.000 N 
ATOM     17  H   UNL     1       1.265  12.169  21.694  0.00  0.00    +0.000 HD
ENDBRANCH   7   8
BRANCH   2  18
ATOM     18  C   UNL     1       1.950   7.239  18.237  0.00  0.00    +0.000 C 
BRANCH  18  19
ATOM     19  O   UNL     1       3.365   7.066  18.325  0.00  0.00    +0.000 OA
BRANCH  19  20
ATOM     20  C   UNL     1       4.010   6.197  17.479  0.00  0.00    +0.000 A 
ATOM     21  C   UNL     1       4.823   6.637  16.421  0.00  0.00    +0.000 A 
ATOM     22  C   UNL     1       5.479   5.723  15.596  0.00  0.00    +0.000 A 
ATOM     23  C   UNL     1       5.350   4.361  15.826  0.00  0.00    +0.000 A 
ATOM     24  C   UNL     1       4.537   3.911  16.866  0.00  0.00    +0.000 A 
ATOM     25  C   UNL     1       3.819   4.802  17.701  0.00  0.00    +0.000 A 
BRANCH  25  26
ATOM     26  C   UNL     1       2.873   4.239  18.711  0.00  0.00    +0.000 A 
ATOM     27  C   UNL     1       1.678   3.592  18.356  0.00  0.00    +0.000 A 
ATOM     28  C   UNL     1       0.849   2.990  19.312  0.00  0.00    +0.000 A 
ATOM     29  C   UNL     1       1.175   3.056  20.661  0.00  0.00    +0.000 A 
ATOM     30  C   UNL     1       2.323   3.732  21.054  0.00  0.00    +0.000 A 
ATOM     31  C   UNL     1       3.161   4.309  20.092  0.00  0.00    +0.000 A 
ENDBRANCH  25  26
ENDBRANCH  19  20
ENDBRANCH  18  19
ENDBRANCH   2  18
TORSDOF 5
ENDMDL
MODEL 8
REMARK VINA RESULT:      -8.6      1.646      3.248
REMARK  Name = 
REMARK  5 active torsions:
REMARK  status: ('A' for Active; 'I' for Inactive)
REMARK    1  A    between atoms: C_2  and  C_3
REMARK    2  A    between atoms: C_3  and  O_4
REMARK    3  A    between atoms: O_4  and  C_5
REMARK    4  A    between atoms: C_10  and  C_11
REMARK    5  A    between atoms: C_21  and  C_22
REMARK                            x       y       z     vdW  Elec       q    Type
REMARK                         _______ _______ _______ _____ _____    ______ ____
ROOT
ATOM      1  O   UNL     1       2.058   9.379  17.614  0.00  0.00    +0.000 OA
ATOM      2  C   UNL     1       1.832   9.037  18.779  0.00  0.00    +0.000 C 
ATOM      3  N   UNL     1       1.247   9.915  19.682  0.00  0.00    +0.000 N 
ATOM      4  C   UNL     1       0.930   9.621  21.074  0.00  0.00    +0.000 C 
ATOM      5  C   UNL     1      -0.511  10.065  21.222  0.00  0.00    +0.000 C 
ATOM      6  C   UNL     1      -0.555  11.319  20.364  0.00  0.00    +0.000 C 
ATOM      7  C   UNL     1       0.381  10.993  19.187  0.00  0.00    +0.000 C 
ENDROOT
BRANCH   7   8
ATOM      8  C   UNL     1       1.106  12.212  18.688  0.00  0.00    +0.000 A 
ATOM      9  N   UNL     1       2.381  12.313  18.360  0.00  0.00    +0.000 NA
ATOM     10  C   UNL     1       2.655  13.657  18.323  0.00  0.00    +0.000 A 
ATOM     11  C   UNL     1       3.878  14.326  18.123  0.00  0.00    +0.000 A 
ATOM     12  C   UNL     1       3.908  15.722  18.230  0.00  0.00    +0.000 A 
ATOM     13  C   UNL     1       2.744  16.441  18.514  0.00  0.00    +0.000 A 
ATOM     14  C   UNL     1       1.510  15.795  18.681  0.00  0.00    +0.000 A 
ATOM     15  C   UNL     1       1.511  14.401  18.581  0.00  0.00    +0.000 A 
ATOM     16  N   UNL     1       0.522  13.461  18.720  0.00  0.00    +0.000 N 
ATOM     17  H   UNL     1      -0.458  13.626  18.926  0.00  0.00    +0.000 HD
ENDBRANCH   7   8
BRANCH   2  18
ATOM     18  C   UNL     1       2.125   7.605  19.250  0.00  0.00    +0.000 C 
BRANCH  18  19
ATOM     19  O   UNL     1       3.050   7.051  18.313  0.00  0.00    +0.000 OA
BRANCH  19  20
ATOM     20  C   UNL     1       2.996   5.716  17.994  0.00  0.00    +0.000 A 
ATOM     21  C   UNL     1       1.786   5.008  17.910  0.00  0.00    +0.000 A 
ATOM     22  C   UNL     1       1.770   3.657  17.563  0.00  0.00    +0.000 A 
ATOM     23  C   UNL     1       2.958   3.000  17.276  0.00  0.00    +0.000 A 
ATOM     24  C   UNL     1       4.168   3.688  17.367  0.00  0.00    +0.000 A 
ATOM     25  C   UNL     1       4.233   5.048  17.757  0.00  0.00    +0.000 A 
BRANCH  25  26
ATOM     26  C   UNL     1       5.573   5.679  17.952  0.00  0.00    +0.000 A 
ATOM     27  C   UNL     1       6.069   6.687  17.109  0.00  0.00    +0.000 A 
ATOM     28  C   UNL     1       7.287   7.331  17.362  0.00  0.00    +0.000 A 
ATOM     29  C   UNL     1       8.066   6.953  18.449  0.00  0.00    +0.000 A 
ATOM     30  C   UNL     1       7.633   5.925  19.275  0.00  0.00    +0.000 A 
ATOM     31  C   UNL     1       6.401   5.302  19.033  0.00  0.00    +0.000 A 
ENDBRANCH  25  26
ENDBRANCH  19  20
ENDBRANCH  18  19
ENDBRANCH   2  18
TORSDOF 5
ENDMDL
MODEL 9
REMARK VINA RESULT:      -8.6      1.135      1.351
REMARK  Name = 
REMARK  5 active torsions:
REMARK  status: ('A' for Active; 'I' for Inactive)
REMARK    1  A    between atoms: C_2  and  C_3
REMARK    2  A    between atoms: C_3  and  O_4
REMARK    3  A    between atoms: O_4  and  C_5
REMARK    4  A    between atoms: C_10  and  C_11
REMARK    5  A    between atoms: C_21  and  C_22
REMARK                            x       y       z     vdW  Elec       q    Type
REMARK                         _______ _______ _______ _____ _____    ______ ____
ROOT
ATOM      1  O   UNL     1       1.876   9.267  17.503  0.00  0.00    +0.000 OA
ATOM      2  C   UNL     1       1.872   8.820  18.655  0.00  0.00    +0.000 C 
ATOM      3  N   UNL     1       1.239   9.504  19.685  0.00  0.00    +0.000 N 
ATOM      4  C   UNL     1       1.166   9.072  21.075  0.00  0.00    +0.000 C 
ATOM      5  C   UNL     1      -0.306   9.194  21.418  0.00  0.00    +0.000 C 
ATOM      6  C   UNL     1      -0.710  10.455  20.674  0.00  0.00    +0.000 C 
ATOM      7  C   UNL     1       0.117  10.400  19.377  0.00  0.00    +0.000 C 
ENDROOT
BRANCH   7   8
ATOM      8  C   UNL     1       0.512  11.771  18.901  0.00  0.00    +0.000 A 
ATOM      9  N   UNL     1       1.733  12.246  18.737  0.00  0.00    +0.000 NA
ATOM     10  C   UNL     1       1.597  13.609  18.650  0.00  0.00    +0.000 A 
ATOM     11  C   UNL     1       2.583  14.612  18.569  0.00  0.00    +0.000 A 
ATOM     12  C   UNL     1       2.181  15.954  18.590  0.00  0.00    +0.000 A 
ATOM     13  C   UNL     1       0.829  16.292  18.673  0.00  0.00    +0.000 A 
ATOM     14  C   UNL     1      -0.168  15.307  18.718  0.00  0.00    +0.000 A 
ATOM     15  C   UNL     1       0.260  13.977  18.708  0.00  0.00    +0.000 A 
ATOM     16  N   UNL     1      -0.414  12.784  18.777  0.00  0.00    +0.000 N 
ATOM     17  H   UNL     1      -1.418  12.650  18.841  0.00  0.00    +0.000 HD
ENDBRANCH   7   8
BRANCH   2  18
ATOM     18  C   UNL     1       2.506   7.459  18.973  0.00  0.00    +0.000 C 
BRANCH  18  19
ATOM     19  O   UNL     1       2.629   6.767  17.730  0.00  0.00    +0.000 OA
BRANCH  19  20
ATOM     20  C   UNL     1       3.782   6.086  17.428  0.00  0.00    +0.000 A 
ATOM     21  C   UNL     1       4.786   6.626  16.607  0.00  0.00    +0.000 A 
ATOM     22  C   UNL     1       5.954   5.912  16.340  0.00  0.00    +0.000 A 
ATOM     23  C   UNL     1       6.145   4.658  16.903  0.00  0.00    +0.000 A 
ATOM     24  C   UNL     1       5.152   4.105  17.710  0.00  0.00    +0.000 A 
ATOM     25  C   UNL     1       3.933   4.777  17.972  0.00  0.00    +0.000 A 
BRANCH  25  26
ATOM     26  C   UNL     1       2.869   4.066  18.743  0.00  0.00    +0.000 A 
ATOM     27  C   UNL     1       1.826   3.357  18.123  0.00  0.00    +0.000 A 
ATOM     28  C   UNL     1       0.890   2.620  18.861  0.00  0.00    +0.000 A 
ATOM     29  C   UNL     1       0.949   2.607  20.249  0.00  0.00    +0.000 A 
ATOM     30  C   UNL     1       1.935   3.338  20.899  0.00  0.00    +0.000 A 
ATOM     31  C   UNL     1       2.884   4.051  20.155  0.00  0.00    +0.000 A 
ENDBRANCH  25  26
ENDBRANCH  19  20
ENDBRANCH  18  19
ENDBRANCH   2  18
TORSDOF 5
ENDMDL
