MODEL 1
REMARK VINA RESULT:      -9.3      0.000      0.000
REMARK  Name = 
REMARK  6 active torsions:
REMARK  status: ('A' for Active; 'I' for Inactive)
REMARK    1  A    between atoms: C_1  and  C_2
REMARK    2  A    between atoms: C_4  and  C_5
REMARK    3  A    between atoms: N_13  and  C_14
REMARK    4  A    between atoms: C_18  and  C_19
REMARK    5  A    between atoms: C_19  and  N_20
REMARK    6  A    between atoms: N_25  and  C_26
REMARK                            x       y       z     vdW  Elec       q    Type
REMARK                         _______ _______ _______ _____ _____    ______ ____
ROOT
ATOM      1  C   UNL     1       1.409   8.442  19.792  0.00  0.00    +0.000 A 
ATOM      2  C   UNL     1       0.726   8.129  20.968  0.00  0.00    +0.000 A 
ATOM      3  C   UNL     1      -0.173   9.027  21.535  0.00  0.00    +0.000 A 
ATOM      4  C   UNL     1      -0.440  10.233  20.896  0.00  0.00    +0.000 A 
ATOM      5  C   UNL     1       0.159  10.568  19.668  0.00  0.00    +0.000 A 
ATOM      6  C   UNL     1       1.112   9.657  19.159  0.00  0.00    +0.000 A 
ENDROOT
BRANCH   1  15
ATOM      7  C   UNL     1       3.602   3.254  19.656  0.00  0.00    +0.000 C 
ATOM      8  C   UNL     1       3.921   4.313  18.648  0.00  0.00    +0.000 A 
ATOM      9  N   UNL     1       4.619   3.937  17.539  0.00  0.00    +0.000 NA
ATOM     10  C   UNL     1       4.882   4.856  16.554  0.00  0.00    +0.000 A 
ATOM     11  C   UNL     1       4.467   6.176  16.642  0.00  0.00    +0.000 A 
ATOM     12  C   UNL     1       3.768   6.506  17.779  0.00  0.00    +0.000 A 
ATOM     13  C   UNL     1       3.489   5.608  18.791  0.00  0.00    +0.000 A 
ATOM     14  C   UNL     1       2.689   6.273  19.860  0.00  0.00    +0.000 C 
ATOM     15  N   UNL     1       2.411   7.584  19.279  0.00  0.00    +0.000 N 
ATOM     16  C   UNL     1       3.101   7.771  18.081  0.00  0.00    +0.000 C 
ATOM     17  O   UNL     1       3.180   8.730  17.337  0.00  0.00    +0.000 OA
BRANCH  10  18
ATOM     18  C   UNL     1       5.612   4.423  15.285  0.00  0.00    +0.000 C 
ATOM     19  F   UNL     1       6.619   5.257  14.902  0.00  0.00    +0.000 F 
ATOM     20  F   UNL     1       6.179   3.189  15.409  0.00  0.00    +0.000 F 
ATOM     21  F   UNL     1       4.775   4.333  14.209  0.00  0.00    +0.000 F 
ENDBRANCH  10  18
ENDBRANCH   1  15
BRANCH   5  22
ATOM     22  C   UNL     1      -0.246  11.887  18.887  0.00  0.00    +0.000 C 
ATOM     23  C   UNL     1       0.935  12.831  18.502  0.00  0.00    +0.000 C 
ATOM     24  O   UNL     1       0.188  14.003  18.907  0.00  0.00    +0.000 OA
ATOM     25  C   UNL     1      -0.722  13.153  19.659  0.00  0.00    +0.000 C 
BRANCH  22  26
ATOM     26  N   UNL     1      -1.085  11.566  17.732  0.00  0.00    +0.000 N 
ATOM     27  C   UNL     1      -2.440  11.511  17.811  0.00  0.00    +0.000 A 
ATOM     28  N   UNL     1      -3.225  11.807  18.828  0.00  0.00    +0.000 NA
ATOM     29  N   UNL     1      -4.523  11.515  18.481  0.00  0.00    +0.000 NA
ATOM     30  C   UNL     1      -4.510  11.099  17.238  0.00  0.00    +0.000 A 
ATOM     31  N   UNL     1      -3.232  11.099  16.768  0.00  0.00    +0.000 N 
ATOM     32  C   UNL     1      -2.845  10.780  15.421  0.00  0.00    +0.000 C 
ATOM     33  H   UNL     1      -0.627  10.918  17.103  0.00  0.00    +0.000 HD
ENDBRANCH  22  26
ENDBRANCH   5  22
TORSDOF 4
ENDMDL
MODEL 2
REMARK VINA RESULT:      -9.2      1.972      2.927
REMARK  Name = 
REMARK  6 active torsions:
REMARK  status: ('A' for Active; 'I' for Inactive)
REMARK    1  A    between atoms: C_1  and  C_2
REMARK    2  A    between atoms: C_4  and  C_5
REMARK    3  A    between atoms: N_13  and  C_14
REMARK    4  A    between atoms: C_18  and  C_19
REMARK    5  A    between atoms: C_19  and  N_20
REMARK    6  A    between atoms: N_25  and  C_26
REMARK                            x       y       z     vdW  Elec       q    Type
REMARK                         _______ _______ _______ _____ _____    ______ ____
ROOT
ATOM      1  C   UNL     1       0.303   9.960  19.629  0.00  0.00    +0.000 A 
ATOM      2  C   UNL     1       0.301  10.795  20.748  0.00  0.00    +0.000 A 
ATOM      3  C   UNL     1      -0.640  11.812  20.880  0.00  0.00    +0.000 A 
ATOM      4  C   UNL     1      -1.627  11.969  19.915  0.00  0.00    +0.000 A 
ATOM      5  C   UNL     1      -1.723  11.109  18.805  0.00  0.00    +0.000 A 
ATOM      6  C   UNL     1      -0.711  10.130  18.676  0.00  0.00    +0.000 A 
ENDROOT
BRANCH   1  15
ATOM      7  C   UNL     1       2.350   4.866  20.892  0.00  0.00    +0.000 C 
ATOM      8  C   UNL     1       2.804   5.670  19.714  0.00  0.00    +0.000 A 
ATOM      9  N   UNL     1       3.604   5.052  18.800  0.00  0.00    +0.000 NA
ATOM     10  C   UNL     1       3.996   5.725  17.669  0.00  0.00    +0.000 A 
ATOM     11  C   UNL     1       3.611   7.034  17.416  0.00  0.00    +0.000 A 
ATOM     12  C   UNL     1       2.805   7.613  18.368  0.00  0.00    +0.000 A 
ATOM     13  C   UNL     1       2.396   6.966  19.518  0.00  0.00    +0.000 A 
ATOM     14  C   UNL     1       1.506   7.857  20.317  0.00  0.00    +0.000 C 
ATOM     15  N   UNL     1       1.329   9.005  19.432  0.00  0.00    +0.000 N 
ATOM     16  C   UNL     1       2.146   8.916  18.306  0.00  0.00    +0.000 C 
ATOM     17  O   UNL     1       2.331   9.684  17.380  0.00  0.00    +0.000 OA
BRANCH  10  18
ATOM     18  C   UNL     1       4.843   5.016  16.616  0.00  0.00    +0.000 C 
ATOM     19  F   UNL     1       5.062   5.744  15.486  0.00  0.00    +0.000 F 
ATOM     20  F   UNL     1       6.078   4.678  17.086  0.00  0.00    +0.000 F 
ATOM     21  F   UNL     1       4.279   3.843  16.199  0.00  0.00    +0.000 F 
ENDBRANCH  10  18
ENDBRANCH   1  15
BRANCH   5  22
ATOM     22  C   UNL     1      -2.925  11.219  17.778  0.00  0.00    +0.000 C 
ATOM     23  C   UNL     1      -3.528   9.862  17.300  0.00  0.00    +0.000 C 
ATOM     24  O   UNL     1      -3.589  10.322  15.929  0.00  0.00    +0.000 OA
ATOM     25  C   UNL     1      -2.655  11.388  16.254  0.00  0.00    +0.000 C 
BRANCH  22  26
ATOM     26  N   UNL     1      -3.955  12.125  18.286  0.00  0.00    +0.000 N 
ATOM     27  C   UNL     1      -5.197  11.695  18.627  0.00  0.00    +0.000 A 
ATOM     28  N   UNL     1      -5.667  10.464  18.666  0.00  0.00    +0.000 NA
ATOM     29  N   UNL     1      -7.004  10.513  18.981  0.00  0.00    +0.000 NA
ATOM     30  C   UNL     1      -7.311  11.772  19.183  0.00  0.00    +0.000 A 
ATOM     31  N   UNL     1      -6.208  12.548  18.995  0.00  0.00    +0.000 N 
ATOM     32  C   UNL     1      -6.148  13.968  19.209  0.00  0.00    +0.000 C 
ATOM     33  H   UNL     1      -3.876  13.050  17.881  0.00  0.00    +0.000 HD
ENDBRANCH  22  26
ENDBRANCH   5  22
TORSDOF 4
ENDMDL
MODEL 3
REMARK VINA RESULT:      -9.2      1.378      1.763
REMARK  Name = 
REMARK  6 active torsions:
REMARK  status: ('A' for Active; 'I' for Inactive)
REMARK    1  A    between atoms: C_1  and  C_2
REMARK    2  A    between atoms: C_4  and  C_5
REMARK    3  A    between atoms: N_13  and  C_14
REMARK    4  A    between atoms: C_18  and  C_19
REMARK    5  A    between atoms: C_19  and  N_20
REMARK    6  A    between atoms: N_25  and  C_26
REMARK                            x       y       z     vdW  Elec       q    Type
REMARK                         _______ _______ _______ _____ _____    ______ ____
ROOT
ATOM      1  C   UNL     1       0.790   9.128  20.674  0.00  0.00    +0.000 A 
ATOM      2  C   UNL     1       0.231   9.256  21.947  0.00  0.00    +0.000 A 
ATOM      3  C   UNL     1      -0.412  10.428  22.333  0.00  0.00    +0.000 A 
ATOM      4  C   UNL     1      -0.550  11.471  21.424  0.00  0.00    +0.000 A 
ATOM      5  C   UNL     1      -0.077  11.369  20.102  0.00  0.00    +0.000 A 
ATOM      6  C   UNL     1       0.624  10.187  19.772  0.00  0.00    +0.000 A 
ENDROOT
BRANCH   1  15
ATOM      7  C   UNL     1       1.807   3.654  21.534  0.00  0.00    +0.000 C 
ATOM      8  C   UNL     1       2.276   4.402  20.325  0.00  0.00    +0.000 A 
ATOM      9  N   UNL     1       2.800   3.675  19.299  0.00  0.00    +0.000 NA
ATOM     10  C   UNL     1       3.185   4.306  18.142  0.00  0.00    +0.000 A 
ATOM     11  C   UNL     1       3.069   5.677  17.972  0.00  0.00    +0.000 A 
ATOM     12  C   UNL     1       2.536   6.366  19.036  0.00  0.00    +0.000 A 
ATOM     13  C   UNL     1       2.142   5.763  20.215  0.00  0.00    +0.000 A 
ATOM     14  C   UNL     1       1.577   6.783  21.147  0.00  0.00    +0.000 C 
ATOM     15  N   UNL     1       1.548   7.986  20.320  0.00  0.00    +0.000 N 
ATOM     16  C   UNL     1       2.177   7.782  19.093  0.00  0.00    +0.000 C 
ATOM     17  O   UNL     1       2.409   8.539  18.169  0.00  0.00    +0.000 OA
BRANCH  10  18
ATOM     18  C   UNL     1       3.717   3.486  16.969  0.00  0.00    +0.000 C 
ATOM     19  F   UNL     1       4.406   2.369  17.329  0.00  0.00    +0.000 F 
ATOM     20  F   UNL     1       2.719   3.057  16.143  0.00  0.00    +0.000 F 
ATOM     21  F   UNL     1       4.564   4.205  16.174  0.00  0.00    +0.000 F 
ENDBRANCH  10  18
ENDBRANCH   1  15
BRANCH   5  22
ATOM     22  C   UNL     1      -0.350  12.513  19.040  0.00  0.00    +0.000 C 
ATOM     23  C   UNL     1       0.909  13.301  18.560  0.00  0.00    +0.000 C 
ATOM     24  O   UNL     1       0.210  14.564  18.658  0.00  0.00    +0.000 OA
ATOM     25  C   UNL     1      -0.797  13.932  19.497  0.00  0.00    +0.000 C 
BRANCH  22  26
ATOM     26  N   UNL     1      -1.130  11.996  17.915  0.00  0.00    +0.000 N 
ATOM     27  C   UNL     1      -2.464  11.758  18.004  0.00  0.00    +0.000 A 
ATOM     28  N   UNL     1      -3.288  12.013  19.002  0.00  0.00    +0.000 NA
ATOM     29  N   UNL     1      -4.530  11.518  18.684  0.00  0.00    +0.000 NA
ATOM     30  C   UNL     1      -4.454  11.020  17.473  0.00  0.00    +0.000 A 
ATOM     31  N   UNL     1      -3.186  11.166  16.997  0.00  0.00    +0.000 N 
ATOM     32  C   UNL     1      -2.752  10.810  15.674  0.00  0.00    +0.000 C 
ATOM     33  H   UNL     1      -0.583  11.376  17.331  0.00  0.00    +0.000 HD
ENDBRANCH  22  26
ENDBRANCH   5  22
TORSDOF 4
ENDMDL
MODEL 4
REMARK VINA RESULT:      -9.0      1.935      2.950
REMARK  Name = 
REMARK  6 active torsions:
REMARK  status: ('A' for Active; 'I' for Inactive)
REMARK    1  A    between atoms: C_1  and  C_2
REMARK    2  A    between atoms: C_4  and  C_5
REMARK    3  A    between atoms: N_13  and  C_14
REMARK    4  A    between atoms: C_18  and  C_19
REMARK    5  A    between atoms: C_19  and  N_20
REMARK    6  A    between atoms: N_25  and  C_26
REMARK                            x       y       z     vdW  Elec       q    Type
REMARK                         _______ _______ _______ _____ _____    ______ ____
ROOT
ATOM      1  C   UNL     1       0.305   9.741  19.138  0.00  0.00    +0.000 A 
ATOM      2  C   UNL     1       0.251  10.749  20.103  0.00  0.00    +0.000 A 
ATOM      3  C   UNL     1      -0.731  11.734  20.055  0.00  0.00    +0.000 A 
ATOM      4  C   UNL     1      -1.708  11.687  19.067  0.00  0.00    +0.000 A 
ATOM      5  C   UNL     1      -1.751  10.651  18.115  0.00  0.00    +0.000 A 
ATOM      6  C   UNL     1      -0.699   9.708  18.161  0.00  0.00    +0.000 A 
ENDROOT
BRANCH   1  15
ATOM      7  C   UNL     1       2.383   4.856  21.022  0.00  0.00    +0.000 C 
ATOM      8  C   UNL     1       2.912   5.568  19.817  0.00  0.00    +0.000 A 
ATOM      9  N   UNL     1       3.804   4.902  19.032  0.00  0.00    +0.000 NA
ATOM     10  C   UNL     1       4.269   5.486  17.880  0.00  0.00    +0.000 A 
ATOM     11  C   UNL     1       3.870   6.752  17.478  0.00  0.00    +0.000 A 
ATOM     12  C   UNL     1       2.971   7.383  18.304  0.00  0.00    +0.000 A 
ATOM     13  C   UNL     1       2.485   6.826  19.471  0.00  0.00    +0.000 A 
ATOM     14  C   UNL     1       1.506   7.752  20.111  0.00  0.00    +0.000 C 
ATOM     15  N   UNL     1       1.371   8.810  19.114  0.00  0.00    +0.000 N 
ATOM     16  C   UNL     1       2.282   8.651  18.071  0.00  0.00    +0.000 C 
ATOM     17  O   UNL     1       2.522   9.340  17.097  0.00  0.00    +0.000 OA
BRANCH  10  18
ATOM     18  C   UNL     1       5.222   4.717  16.968  0.00  0.00    +0.000 C 
ATOM     19  F   UNL     1       6.535   4.813  17.316  0.00  0.00    +0.000 F 
ATOM     20  F   UNL     1       4.944   3.383  16.935  0.00  0.00    +0.000 F 
ATOM     21  F   UNL     1       5.151   5.136  15.670  0.00  0.00    +0.000 F 
ENDBRANCH  10  18
ENDBRANCH   1  15
BRANCH   5  22
ATOM     22  C   UNL     1      -2.939  10.540  17.072  0.00  0.00    +0.000 C 
ATOM     23  C   UNL     1      -2.714   9.533  15.901  0.00  0.00    +0.000 C 
ATOM     24  O   UNL     1      -3.244  10.472  14.935  0.00  0.00    +0.000 OA
ATOM     25  C   UNL     1      -3.060  11.549  15.894  0.00  0.00    +0.000 C 
BRANCH  22  26
ATOM     26  N   UNL     1      -4.208  10.300  17.760  0.00  0.00    +0.000 N 
ATOM     27  C   UNL     1      -5.246  11.173  17.695  0.00  0.00    +0.000 A 
ATOM     28  N   UNL     1      -5.360  12.276  16.981  0.00  0.00    +0.000 NA
ATOM     29  N   UNL     1      -6.549  12.887  17.301  0.00  0.00    +0.000 NA
ATOM     30  C   UNL     1      -7.164  12.114  18.164  0.00  0.00    +0.000 A 
ATOM     31  N   UNL     1      -6.398  11.019  18.426  0.00  0.00    +0.000 N 
ATOM     32  C   UNL     1      -6.788   9.917  19.263  0.00  0.00    +0.000 C 
ATOM     33  H   UNL     1      -4.076   9.794  18.627  0.00  0.00    +0.000 HD
ENDBRANCH  22  26
ENDBRANCH   5  22
TORSDOF 4
ENDMDL
MODEL 5
REMARK VINA RESULT:      -9.0      1.888      3.276
REMARK  Name = 
REMARK  6 active torsions:
REMARK  status: ('A' for Active; 'I' for Inactive)
REMARK    1  A    between atoms: C_1  and  C_2
REMARK    2  A    between atoms: C_4  and  C_5
REMARK    3  A    between atoms: N_13  and  C_14
REMARK    4  A    between atoms: C_18  and  C_19
REMARK    5  A    between atoms: C_19  and  N_20
REMARK    6  A    between atoms: N_25  and  C_26
REMARK                            x       y       z     vdW  Elec       q    Type
REMARK                         _______ _______ _______ _____ _____    ______ ____
ROOT
ATOM      1  C   UNL     1       1.666   8.030  19.844  0.00  0.00    +0.000 A 
ATOM      2  C   UNL     1       1.096   7.630  21.054  0.00  0.00    +0.000 A 
ATOM      3  C   UNL     1       0.183   8.443  21.719  0.00  0.00    +0.000 A 
ATOM      4  C   UNL     1      -0.212   9.647  21.149  0.00  0.00    +0.000 A 
ATOM      5  C   UNL     1       0.268  10.066  19.894  0.00  0.00    +0.000 A 
ATOM      6  C   UNL     1       1.240   9.242  19.283  0.00  0.00    +0.000 A 
ENDROOT
BRANCH   1  15
ATOM      7  C   UNL     1       4.250   3.043  19.414  0.00  0.00    +0.000 C 
ATOM      8  C   UNL     1       4.388   4.135  18.401  0.00  0.00    +0.000 A 
ATOM      9  N   UNL     1       5.010   3.830  17.227  0.00  0.00    +0.000 NA
ATOM     10  C   UNL     1       5.106   4.778  16.239  0.00  0.00    +0.000 A 
ATOM     11  C   UNL     1       4.595   6.059  16.389  0.00  0.00    +0.000 A 
ATOM     12  C   UNL     1       3.979   6.317  17.591  0.00  0.00    +0.000 A 
ATOM     13  C   UNL     1       3.868   5.388  18.607  0.00  0.00    +0.000 A 
ATOM     14  C   UNL     1       3.118   5.974  19.756  0.00  0.00    +0.000 C 
ATOM     15  N   UNL     1       2.683   7.264  19.226  0.00  0.00    +0.000 N 
ATOM     16  C   UNL     1       3.242   7.519  17.975  0.00  0.00    +0.000 C 
ATOM     17  O   UNL     1       3.175   8.491  17.245  0.00  0.00    +0.000 OA
BRANCH  10  18
ATOM     18  C   UNL     1       5.749   4.421  14.901  0.00  0.00    +0.000 C 
ATOM     19  F   UNL     1       4.870   4.304  13.867  0.00  0.00    +0.000 F 
ATOM     20  F   UNL     1       6.668   5.348  14.504  0.00  0.00    +0.000 F 
ATOM     21  F   UNL     1       6.425   3.235  14.949  0.00  0.00    +0.000 F 
ENDBRANCH  10  18
ENDBRANCH   1  15
BRANCH   5  22
ATOM     22  C   UNL     1      -0.284  11.378  19.197  0.00  0.00    +0.000 C 
ATOM     23  C   UNL     1      -1.393  12.143  19.985  0.00  0.00    +0.000 C 
ATOM     24  O   UNL     1      -2.170  12.345  18.781  0.00  0.00    +0.000 OA
ATOM     25  C   UNL     1      -1.407  11.296  18.123  0.00  0.00    +0.000 C 
BRANCH  22  26
ATOM     26  N   UNL     1       0.818  12.260  18.813  0.00  0.00    +0.000 N 
ATOM     27  C   UNL     1       1.621  12.861  19.729  0.00  0.00    +0.000 A 
ATOM     28  N   UNL     1       1.642  12.712  21.039  0.00  0.00    +0.000 NA
ATOM     29  N   UNL     1       2.561  13.588  21.567  0.00  0.00    +0.000 NA
ATOM     30  C   UNL     1       3.123  14.215  20.562  0.00  0.00    +0.000 A 
ATOM     31  N   UNL     1       2.584  13.779  19.390  0.00  0.00    +0.000 N 
ATOM     32  C   UNL     1       3.013  14.185  18.080  0.00  0.00    +0.000 C 
ATOM     33  H   UNL     1       0.612  12.773  17.965  0.00  0.00    +0.000 HD
ENDBRANCH  22  26
ENDBRANCH   5  22
TORSDOF 4
ENDMDL
MODEL 6
REMARK VINA RESULT:      -9.0      1.380      1.978
REMARK  Name = 
REMARK  6 active torsions:
REMARK  status: ('A' for Active; 'I' for Inactive)
REMARK    1  A    between atoms: C_1  and  C_2
REMARK    2  A    between atoms: C_4  and  C_5
REMARK    3  A    between atoms: N_13  and  C_14
REMARK    4  A    between atoms: C_18  and  C_19
REMARK    5  A    between atoms: C_19  and  N_20
REMARK    6  A    between atoms: N_25  and  C_26
REMARK                            x       y       z     vdW  Elec       q    Type
REMARK                         _______ _______ _______ _____ _____    ______ ____
ROOT
ATOM      1  C   UNL     1       0.449   9.304  20.946  0.00  0.00    +0.000 A 
ATOM      2  C   UNL     1      -0.095   9.299  22.232  0.00  0.00    +0.000 A 
ATOM      3  C   UNL     1      -0.871  10.362  22.685  0.00  0.00    +0.000 A 
ATOM      4  C   UNL     1      -1.158  11.420  21.830  0.00  0.00    +0.000 A 
ATOM      5  C   UNL     1      -0.704  11.442  20.499  0.00  0.00    +0.000 A 
ATOM      6  C   UNL     1       0.133  10.375  20.100  0.00  0.00    +0.000 A 
ENDROOT
BRANCH   1  15
ATOM      7  C   UNL     1       2.055   3.923  21.402  0.00  0.00    +0.000 C 
ATOM      8  C   UNL     1       2.461   4.813  20.270  0.00  0.00    +0.000 A 
ATOM      9  N   UNL     1       3.083   4.234  19.205  0.00  0.00    +0.000 NA
ATOM     10  C   UNL     1       3.417   4.995  18.112  0.00  0.00    +0.000 A 
ATOM     11  C   UNL     1       3.152   6.355  18.048  0.00  0.00    +0.000 A 
ATOM     12  C   UNL     1       2.525   6.892  19.147  0.00  0.00    +0.000 A 
ATOM     13  C   UNL     1       2.178   6.156  20.263  0.00  0.00    +0.000 A 
ATOM     14  C   UNL     1       1.484   7.028  21.256  0.00  0.00    +0.000 C 
ATOM     15  N   UNL     1       1.337   8.285  20.526  0.00  0.00    +0.000 N 
ATOM     16  C   UNL     1       2.009   8.251  19.305  0.00  0.00    +0.000 C 
ATOM     17  O   UNL     1       2.173   9.101  18.450  0.00  0.00    +0.000 OA
BRANCH  10  18
ATOM     18  C   UNL     1       4.060   4.337  16.894  0.00  0.00    +0.000 C 
ATOM     19  F   UNL     1       4.504   5.213  15.949  0.00  0.00    +0.000 F 
ATOM     20  F   UNL     1       5.139   3.573  17.228  0.00  0.00    +0.000 F 
ATOM     21  F   UNL     1       3.203   3.494  16.245  0.00  0.00    +0.000 F 
ENDBRANCH  10  18
ENDBRANCH   1  15
BRANCH   5  22
ATOM     22  C   UNL     1      -1.140  12.591  19.497  0.00  0.00    +0.000 C 
ATOM     23  C   UNL     1      -0.114  12.928  18.371  0.00  0.00    +0.000 C 
ATOM     24  O   UNL     1      -0.310  14.349  18.558  0.00  0.00    +0.000 OA
ATOM     25  C   UNL     1      -0.910  14.087  19.857  0.00  0.00    +0.000 C 
BRANCH  22  26
ATOM     26  N   UNL     1      -2.474  12.325  18.958  0.00  0.00    +0.000 N 
ATOM     27  C   UNL     1      -2.672  11.552  17.859  0.00  0.00    +0.000 A 
ATOM     28  N   UNL     1      -1.794  10.856  17.164  0.00  0.00    +0.000 NA
ATOM     29  N   UNL     1      -2.431  10.300  16.080  0.00  0.00    +0.000 NA
ATOM     30  C   UNL     1      -3.699  10.622  16.166  0.00  0.00    +0.000 A 
ATOM     31  N   UNL     1      -3.904  11.387  17.274  0.00  0.00    +0.000 N 
ATOM     32  C   UNL     1      -5.183  11.856  17.732  0.00  0.00    +0.000 C 
ATOM     33  H   UNL     1      -3.099  13.109  19.097  0.00  0.00    +0.000 HD
ENDBRANCH  22  26
ENDBRANCH   5  22
TORSDOF 4
ENDMDL
MODEL 7
REMARK VINA RESULT:      -9.0      2.052      3.314
REMARK  Name = 
REMARK  6 active torsions:
REMARK  status: ('A' for Active; 'I' for Inactive)
REMARK    1  A    between atoms: C_1  and  C_2
REMARK    2  A    between atoms: C_4  and  C_5
REMARK    3  A    between atoms: N_13  and  C_14
REMARK    4  A    between atoms: C_18  and  C_19
REMARK    5  A    between atoms: C_19  and  N_20
REMARK    6  A    between atoms: N_25  and  C_26
REMARK                            x       y       z     vdW  Elec       q    Type
REMARK                         _______ _______ _______ _____ _____    ______ ____
ROOT
ATOM      1  C   UNL     1       0.428   9.386  20.692  0.00  0.00    +0.000 A 
ATOM      2  C   UNL     1       0.155   9.661  22.034  0.00  0.00    +0.000 A 
ATOM      3  C   UNL     1      -0.656  10.733  22.394  0.00  0.00    +0.000 A 
ATOM      4  C   UNL     1      -1.249  11.512  21.408  0.00  0.00    +0.000 A 
ATOM      5  C   UNL     1      -1.075  11.234  20.039  0.00  0.00    +0.000 A 
ATOM      6  C   UNL     1      -0.194  10.176  19.717  0.00  0.00    +0.000 A 
ENDROOT
BRANCH   1  15
ATOM      7  C   UNL     1       2.061   4.026  21.273  0.00  0.00    +0.000 C 
ATOM      8  C   UNL     1       2.517   4.912  20.157  0.00  0.00    +0.000 A 
ATOM      9  N   UNL     1       3.201   4.332  19.131  0.00  0.00    +0.000 NA
ATOM     10  C   UNL     1       3.585   5.089  18.052  0.00  0.00    +0.000 A 
ATOM     11  C   UNL     1       3.310   6.446  17.963  0.00  0.00    +0.000 A 
ATOM     12  C   UNL     1       2.620   6.984  19.024  0.00  0.00    +0.000 A 
ATOM     13  C   UNL     1       2.221   6.252  20.126  0.00  0.00    +0.000 A 
ATOM     14  C   UNL     1       1.468   7.124  21.073  0.00  0.00    +0.000 C 
ATOM     15  N   UNL     1       1.347   8.373  20.327  0.00  0.00    +0.000 N 
ATOM     16  C   UNL     1       2.083   8.338  19.144  0.00  0.00    +0.000 C 
ATOM     17  O   UNL     1       2.283   9.184  18.292  0.00  0.00    +0.000 OA
BRANCH  10  18
ATOM     18  C   UNL     1       4.298   4.429  16.874  0.00  0.00    +0.000 C 
ATOM     19  F   UNL     1       4.654   5.288  15.879  0.00  0.00    +0.000 F 
ATOM     20  F   UNL     1       5.448   3.801  17.252  0.00  0.00    +0.000 F 
ATOM     21  F   UNL     1       3.535   3.465  16.278  0.00  0.00    +0.000 F 
ENDBRANCH  10  18
ENDBRANCH   1  15
BRANCH   5  22
ATOM     22  C   UNL     1      -1.855  12.050  18.927  0.00  0.00    +0.000 C 
ATOM     23  C   UNL     1      -3.397  11.812  18.874  0.00  0.00    +0.000 C 
ATOM     24  O   UNL     1      -3.380  11.736  17.429  0.00  0.00    +0.000 OA
ATOM     25  C   UNL     1      -1.942  11.520  17.466  0.00  0.00    +0.000 C 
BRANCH  22  26
ATOM     26  N   UNL     1      -1.527  13.474  19.006  0.00  0.00    +0.000 N 
ATOM     27  C   UNL     1      -0.269  13.942  18.797  0.00  0.00    +0.000 A 
ATOM     28  N   UNL     1       0.808  13.286  18.413  0.00  0.00    +0.000 NA
ATOM     29  N   UNL     1       1.876  14.151  18.421  0.00  0.00    +0.000 NA
ATOM     30  C   UNL     1       1.419  15.333  18.757  0.00  0.00    +0.000 A 
ATOM     31  N   UNL     1       0.077  15.258  18.981  0.00  0.00    +0.000 N 
ATOM     32  C   UNL     1      -0.774  16.375  19.289  0.00  0.00    +0.000 C 
ATOM     33  H   UNL     1      -2.096  13.954  19.692  0.00  0.00    +0.000 HD
ENDBRANCH  22  26
ENDBRANCH   5  22
TORSDOF 4
ENDMDL
MODEL 8
REMARK VINA RESULT:      -8.9      4.888      9.384
REMARK  Name = 
REMARK  6 active torsions:
REMARK  status: ('A' for Active; 'I' for Inactive)
REMARK    1  A    between atoms: C_1  and  C_2
REMARK    2  A    between atoms: C_4  and  C_5
REMARK    3  A    between atoms: N_13  and  C_14
REMARK    4  A    between atoms: C_18  and  C_19
REMARK    5  A    between atoms: C_19  and  N_20
REMARK    6  A    between atoms: N_25  and  C_26
REMARK                            x       y       z     vdW  Elec       q    Type
REMARK                         _______ _______ _______ _____ _____    ______ ____
ROOT
ATOM      1  C   UNL     1       2.565   6.206  18.490  0.00  0.00    +0.000 A 
ATOM      2  C   UNL     1       1.785   5.049  18.544  0.00  0.00    +0.000 A 
ATOM      3  C   UNL     1       2.100   3.935  17.772  0.00  0.00    +0.000 A 
ATOM      4  C   UNL     1       3.237   3.949  16.973  0.00  0.00    +0.000 A 
ATOM      5  C   UNL     1       4.105   5.056  16.937  0.00  0.00    +0.000 A 
ATOM      6  C   UNL     1       3.715   6.189  17.688  0.00  0.00    +0.000 A 
ENDROOT
BRANCH   1  15
ATOM      7  C   UNL     1       1.082  11.631  18.166  0.00  0.00    +0.000 C 
ATOM      8  C   UNL     1       0.856  10.783  19.378  0.00  0.00    +0.000 A 
ATOM      9  N   UNL     1       0.079  11.299  20.372  0.00  0.00    +0.000 NA
ATOM     10  C   UNL     1      -0.212  10.538  21.477  0.00  0.00    +0.000 A 
ATOM     11  C   UNL     1       0.267   9.246  21.632  0.00  0.00    +0.000 A 
ATOM     12  C   UNL     1       1.047   8.771  20.604  0.00  0.00    +0.000 A 
ATOM     13  C   UNL     1       1.361   9.511  19.481  0.00  0.00    +0.000 A 
ATOM     14  C   UNL     1       2.192   8.696  18.547  0.00  0.00    +0.000 C 
ATOM     15  N   UNL     1       2.181   7.380  19.180  0.00  0.00    +0.000 N 
ATOM     16  C   UNL     1       1.572   7.418  20.434  0.00  0.00    +0.000 C 
ATOM     17  O   UNL     1       1.420   6.560  21.284  0.00  0.00    +0.000 OA
BRANCH  10  18
ATOM     18  C   UNL     1      -1.131  11.092  22.562  0.00  0.00    +0.000 C 
ATOM     19  F   UNL     1      -1.415  10.213  23.563  0.00  0.00    +0.000 F 
ATOM     20  F   UNL     1      -0.606  12.193  23.173  0.00  0.00    +0.000 F 
ATOM     21  F   UNL     1      -2.339  11.493  22.066  0.00  0.00    +0.000 F 
ENDBRANCH  10  18
ENDBRANCH   1  15
BRANCH   5  22
ATOM     22  C   UNL     1       5.463   5.013  16.121  0.00  0.00    +0.000 C 
ATOM     23  C   UNL     1       5.314   4.999  14.567  0.00  0.00    +0.000 C 
ATOM     24  O   UNL     1       6.330   3.977  14.435  0.00  0.00    +0.000 OA
ATOM     25  C   UNL     1       6.183   3.661  15.847  0.00  0.00    +0.000 C 
BRANCH  22  26
ATOM     26  N   UNL     1       6.369   6.069  16.572  0.00  0.00    +0.000 N 
ATOM     27  C   UNL     1       7.094   5.966  17.715  0.00  0.00    +0.000 A 
ATOM     28  N   UNL     1       7.204   4.942  18.538  0.00  0.00    +0.000 NA
ATOM     29  N   UNL     1       7.974   5.321  19.612  0.00  0.00    +0.000 NA
ATOM     30  C   UNL     1       8.366   6.553  19.395  0.00  0.00    +0.000 A 
ATOM     31  N   UNL     1       7.859   6.993  18.210  0.00  0.00    +0.000 N 
ATOM     32  C   UNL     1       8.145   8.267  17.610  0.00  0.00    +0.000 C 
ATOM     33  H   UNL     1       6.034   6.989  16.313  0.00  0.00    +0.000 HD
ENDBRANCH  22  26
ENDBRANCH   5  22
TORSDOF 4
ENDMDL
MODEL 9
REMARK VINA RESULT:      -8.9      2.926      3.819
REMARK  Name = 
REMARK  6 active torsions:
REMARK  status: ('A' for Active; 'I' for Inactive)
REMARK    1  A    between atoms: C_1  and  C_2
REMARK    2  A    between atoms: C_4  and  C_5
REMARK    3  A    between atoms: N_13  and  C_14
REMARK    4  A    between atoms: C_18  and  C_19
REMARK    5  A    between atoms: C_19  and  N_20
REMARK    6  A    between atoms: N_25  and  C_26
REMARK                            x       y       z     vdW  Elec       q    Type
REMARK                         _______ _______ _______ _____ _____    ______ ____
ROOT
ATOM      1  C   UNL     1      -0.045  10.165  19.218  0.00  0.00    +0.000 A 
ATOM      2  C   UNL     1      -0.901  10.334  18.128  0.00  0.00    +0.000 A 
ATOM      3  C   UNL     1      -2.029  11.144  18.223  0.00  0.00    +0.000 A 
ATOM      4  C   UNL     1      -2.283  11.839  19.399  0.00  0.00    +0.000 A 
ATOM      5  C   UNL     1      -1.414  11.770  20.504  0.00  0.00    +0.000 A 
ATOM      6  C   UNL     1      -0.315  10.888  20.388  0.00  0.00    +0.000 A 
ENDROOT
BRANCH   1  15
ATOM      7  C   UNL     1       2.037   5.184  20.829  0.00  0.00    +0.000 C 
ATOM      8  C   UNL     1       2.594   5.984  19.694  0.00  0.00    +0.000 A 
ATOM      9  N   UNL     1       3.520   5.384  18.895  0.00  0.00    +0.000 NA
ATOM     10  C   UNL     1       4.014   6.051  17.802  0.00  0.00    +0.000 A 
ATOM     11  C   UNL     1       3.612   7.338  17.475  0.00  0.00    +0.000 A 
ATOM     12  C   UNL     1       2.678   7.900  18.312  0.00  0.00    +0.000 A 
ATOM     13  C   UNL     1       2.162   7.258  19.422  0.00  0.00    +0.000 A 
ATOM     14  C   UNL     1       1.150   8.127  20.091  0.00  0.00    +0.000 C 
ATOM     15  N   UNL     1       1.034   9.250  19.165  0.00  0.00    +0.000 N 
ATOM     16  C   UNL     1       1.980   9.173  18.144  0.00  0.00    +0.000 C 
ATOM     17  O   UNL     1       2.242   9.931  17.228  0.00  0.00    +0.000 OA
BRANCH  10  18
ATOM     18  C   UNL     1       5.006   5.358  16.871  0.00  0.00    +0.000 C 
ATOM     19  F   UNL     1       4.630   4.111  16.475  0.00  0.00    +0.000 F 
ATOM     20  F   UNL     1       5.219   6.064  15.723  0.00  0.00    +0.000 F 
ATOM     21  F   UNL     1       6.239   5.211  17.441  0.00  0.00    +0.000 F 
ENDBRANCH  10  18
ENDBRANCH   1  15
BRANCH   5  22
ATOM     22  C   UNL     1      -1.646  12.663  21.792  0.00  0.00    +0.000 C 
ATOM     23  C   UNL     1      -0.549  13.736  22.074  0.00  0.00    +0.000 C 
ATOM     24  O   UNL     1      -0.539  13.418  23.486  0.00  0.00    +0.000 OA
ATOM     25  C   UNL     1      -1.208  12.159  23.198  0.00  0.00    +0.000 C 
BRANCH  22  26
ATOM     26  N   UNL     1      -2.988  13.246  21.780  0.00  0.00    +0.000 N 
ATOM     27  C   UNL     1      -3.924  12.937  22.715  0.00  0.00    +0.000 A 
ATOM     28  N   UNL     1      -3.803  12.190  23.794  0.00  0.00    +0.000 NA
ATOM     29  N   UNL     1      -5.034  12.082  24.395  0.00  0.00    +0.000 NA
ATOM     30  C   UNL     1      -5.872  12.813  23.700  0.00  0.00    +0.000 A 
ATOM     31  N   UNL     1      -5.220  13.385  22.651  0.00  0.00    +0.000 N 
ATOM     32  C   UNL     1      -5.801  14.315  21.722  0.00  0.00    +0.000 C 
ATOM     33  H   UNL     1      -3.311  13.427  20.837  0.00  0.00    +0.000 HD
ENDBRANCH  22  26
ENDBRANCH   5  22
TORSDOF 4
ENDMDL
