MODEL 1
REMARK VINA RESULT:      -8.7      0.000      0.000
REMARK  Name = 
REMARK  7 active torsions:
REMARK  status: ('A' for Active; 'I' for Inactive)
REMARK    1  A    between atoms: C_2  and  C_3
REMARK    2  A    between atoms: C_3  and  N_4
REMARK    3  A    between atoms: C_10  and  C_11
REMARK    4  A    between atoms: N_13  and  C_14
REMARK    5  A    between atoms: N_13  and  C_21
REMARK    6  A    between atoms: C_14  and  C_15
REMARK    7  A    between atoms: C_21  and  C_22
REMARK                            x       y       z     vdW  Elec       q    Type
REMARK                         _______ _______ _______ _____ _____    ______ ____
ROOT
ATOM      1  C   UNL     1       0.388  11.303  19.443  0.00  0.00    +0.000 C 
ATOM      2  O   UNL     1       1.149  12.262  19.259  0.00  0.00    +0.000 OA
ATOM      3  N   UNL     1      -0.989  11.540  19.466  0.00  0.00    +0.000 N 
ENDROOT
BRANCH   1  10
ATOM      4  N   UNL     1       3.055   5.831  18.915  0.00  0.00    +0.000 N 
ATOM      5  C   UNL     1       2.390   5.968  20.102  0.00  0.00    +0.000 C 
ATOM      6  O   UNL     1       2.265   5.173  21.013  0.00  0.00    +0.000 OA
ATOM      7  C   UNL     1       1.858   7.327  20.131  0.00  0.00    +0.000 A 
ATOM      8  C   UNL     1       1.154   7.984  21.115  0.00  0.00    +0.000 A 
ATOM      9  C   UNL     1       0.762   9.301  20.850  0.00  0.00    +0.000 A 
ATOM     10  C   UNL     1       1.049   9.960  19.614  0.00  0.00    +0.000 A 
ATOM     11  C   UNL     1       1.802   9.253  18.656  0.00  0.00    +0.000 A 
ATOM     12  C   UNL     1       2.198   7.948  18.946  0.00  0.00    +0.000 A 
ATOM     13  C   UNL     1       3.013   6.989  18.182  0.00  0.00    +0.000 C 
ATOM     14  O   UNL     1       3.580   7.267  17.144  0.00  0.00    +0.000 OA
BRANCH   4  15
ATOM     15  C   UNL     1       3.888   4.688  18.608  0.00  0.00    +0.000 C 
BRANCH  15  17
ATOM     16  C   UNL     1       1.927   3.629  17.452  0.00  0.00    +0.000 C 
ATOM     17  C   UNL     1       3.058   3.518  18.161  0.00  0.00    +0.000 C 
ENDBRANCH  15  17
ENDBRANCH   4  15
ENDBRANCH   1  10
BRANCH   3  18
ATOM     18  C   UNL     1      -2.046  10.537  19.334  0.00  0.00    +0.000 C 
BRANCH  18  19
ATOM     19  C   UNL     1      -2.657  10.431  17.953  0.00  0.00    +0.000 A 
ATOM     20  C   UNL     1      -1.980   9.881  16.852  0.00  0.00    +0.000 A 
ATOM     21  C   UNL     1      -2.504  10.005  15.563  0.00  0.00    +0.000 A 
ATOM     22  C   UNL     1      -3.722  10.650  15.363  0.00  0.00    +0.000 A 
ATOM     23  C   UNL     1      -4.441  11.132  16.453  0.00  0.00    +0.000 A 
ATOM     24  C   UNL     1      -3.917  11.014  17.741  0.00  0.00    +0.000 A 
ENDBRANCH  18  19
ENDBRANCH   3  18
BRANCH   3  25
ATOM     25  C   UNL     1      -1.429  12.952  19.401  0.00  0.00    +0.000 C 
BRANCH  25  26
ATOM     26  C   UNL     1      -2.526  13.220  20.428  0.00  0.00    +0.000 A 
ATOM     27  N   UNL     1      -2.331  12.928  21.675  0.00  0.00    +0.000 NA
ATOM     28  C   UNL     1      -3.431  12.995  22.545  0.00  0.00    +0.000 A 
ATOM     29  C   UNL     1      -3.276  12.519  23.848  0.00  0.00    +0.000 A 
ATOM     30  C   UNL     1      -4.392  12.316  24.664  0.00  0.00    +0.000 A 
ATOM     31  C   UNL     1      -5.669  12.625  24.194  0.00  0.00    +0.000 A 
ATOM     32  C   UNL     1      -5.828  13.190  22.927  0.00  0.00    +0.000 A 
ATOM     33  C   UNL     1      -4.706  13.373  22.113  0.00  0.00    +0.000 A 
ATOM     34  C   UNL     1      -4.827  13.882  20.734  0.00  0.00    +0.000 A 
ATOM     35  O   UNL     1      -5.862  14.390  20.321  0.00  0.00    +0.000 OA
ATOM     36  N   UNL     1      -3.712  13.716  19.950  0.00  0.00    +0.000 N 
ATOM     37  H   UNL     1      -3.785  13.987  18.974  0.00  0.00    +0.000 HD
ENDBRANCH  25  26
ENDBRANCH   3  25
TORSDOF 7
ENDMDL
MODEL 2
REMARK VINA RESULT:      -8.5      1.679      2.261
REMARK  Name = 
REMARK  7 active torsions:
REMARK  status: ('A' for Active; 'I' for Inactive)
REMARK    1  A    between atoms: C_2  and  C_3
REMARK    2  A    between atoms: C_3  and  N_4
REMARK    3  A    between atoms: C_10  and  C_11
REMARK    4  A    between atoms: N_13  and  C_14
REMARK    5  A    between atoms: N_13  and  C_21
REMARK    6  A    between atoms: C_14  and  C_15
REMARK    7  A    between atoms: C_21  and  C_22
REMARK                            x       y       z     vdW  Elec       q    Type
REMARK                         _______ _______ _______ _____ _____    ______ ____
ROOT
ATOM      1  C   UNL     1       0.783  10.794  19.418  0.00  0.00    +0.000 C 
ATOM      2  O   UNL     1       1.570  11.750  19.407  0.00  0.00    +0.000 OA
ATOM      3  N   UNL     1      -0.587  11.058  19.342  0.00  0.00    +0.000 N 
ENDROOT
BRANCH   1  10
ATOM      4  N   UNL     1       3.336   5.310  18.555  0.00  0.00    +0.000 N 
ATOM      5  C   UNL     1       2.646   5.378  19.734  0.00  0.00    +0.000 C 
ATOM      6  O   UNL     1       2.481   4.522  20.582  0.00  0.00    +0.000 OA
ATOM      7  C   UNL     1       2.145   6.744  19.849  0.00  0.00    +0.000 A 
ATOM      8  C   UNL     1       1.432   7.345  20.862  0.00  0.00    +0.000 A 
ATOM      9  C   UNL     1       1.077   8.687  20.684  0.00  0.00    +0.000 A 
ATOM     10  C   UNL     1       1.409   9.427  19.506  0.00  0.00    +0.000 A 
ATOM     11  C   UNL     1       2.169   8.772  18.517  0.00  0.00    +0.000 A 
ATOM     12  C   UNL     1       2.527   7.440  18.721  0.00  0.00    +0.000 A 
ATOM     13  C   UNL     1       3.339   6.519  17.907  0.00  0.00    +0.000 C 
ATOM     14  O   UNL     1       3.938   6.857  16.905  0.00  0.00    +0.000 OA
BRANCH   4  15
ATOM     15  C   UNL     1       4.150   4.173  18.185  0.00  0.00    +0.000 C 
BRANCH  15  17
ATOM     16  C   UNL     1       3.372   1.788  18.073  0.00  0.00    +0.000 C 
ATOM     17  C   UNL     1       3.304   3.055  17.643  0.00  0.00    +0.000 C 
ENDBRANCH  15  17
ENDBRANCH   4  15
ENDBRANCH   1  10
BRANCH   3  18
ATOM     18  C   UNL     1      -1.639  10.097  19.009  0.00  0.00    +0.000 C 
BRANCH  18  19
ATOM     19  C   UNL     1      -2.416  10.410  17.748  0.00  0.00    +0.000 A 
ATOM     20  C   UNL     1      -3.631  11.114  17.747  0.00  0.00    +0.000 A 
ATOM     21  C   UNL     1      -4.408  11.186  16.589  0.00  0.00    +0.000 A 
ATOM     22  C   UNL     1      -3.969  10.583  15.414  0.00  0.00    +0.000 A 
ATOM     23  C   UNL     1      -2.732   9.946  15.380  0.00  0.00    +0.000 A 
ATOM     24  C   UNL     1      -1.955   9.869  16.537  0.00  0.00    +0.000 A 
ENDBRANCH  18  19
ENDBRANCH   3  18
BRANCH   3  25
ATOM     25  C   UNL     1      -1.001  12.478  19.386  0.00  0.00    +0.000 C 
BRANCH  25  26
ATOM     26  C   UNL     1      -1.093  12.965  20.830  0.00  0.00    +0.000 A 
ATOM     27  N   UNL     1      -2.080  12.589  21.580  0.00  0.00    +0.000 NA
ATOM     28  C   UNL     1      -2.238  13.220  22.823  0.00  0.00    +0.000 A 
ATOM     29  C   UNL     1      -3.390  12.950  23.563  0.00  0.00    +0.000 A 
ATOM     30  C   UNL     1      -3.724  13.740  24.666  0.00  0.00    +0.000 A 
ATOM     31  C   UNL     1      -2.885  14.782  25.061  0.00  0.00    +0.000 A 
ATOM     32  C   UNL     1      -1.681  15.002  24.387  0.00  0.00    +0.000 A 
ATOM     33  C   UNL     1      -1.366  14.216  23.274  0.00  0.00    +0.000 A 
ATOM     34  C   UNL     1      -0.153  14.463  22.473  0.00  0.00    +0.000 A 
ATOM     35  O   UNL     1       0.747  15.193  22.871  0.00  0.00    +0.000 OA
ATOM     36  N   UNL     1      -0.126  13.843  21.248  0.00  0.00    +0.000 N 
ATOM     37  H   UNL     1       0.660  14.051  20.638  0.00  0.00    +0.000 HD
ENDBRANCH  25  26
ENDBRANCH   3  25
TORSDOF 7
ENDMDL
MODEL 3
REMARK VINA RESULT:      -8.5      1.908      2.727
REMARK  Name = 
REMARK  7 active torsions:
REMARK  status: ('A' for Active; 'I' for Inactive)
REMARK    1  A    between atoms: C_2  and  C_3
REMARK    2  A    between atoms: C_3  and  N_4
REMARK    3  A    between atoms: C_10  and  C_11
REMARK    4  A    between atoms: N_13  and  C_14
REMARK    5  A    between atoms: N_13  and  C_21
REMARK    6  A    between atoms: C_14  and  C_15
REMARK    7  A    between atoms: C_21  and  C_22
REMARK                            x       y       z     vdW  Elec       q    Type
REMARK                         _______ _______ _______ _____ _____    ______ ____
ROOT
ATOM      1  C   UNL     1       1.289  10.511  18.614  0.00  0.00    +0.000 C 
ATOM      2  O   UNL     1       2.118  11.378  18.305  0.00  0.00    +0.000 OA
ATOM      3  N   UNL     1      -0.003  10.917  18.956  0.00  0.00    +0.000 N 
ENDROOT
BRANCH   1  10
ATOM      4  N   UNL     1       3.086   4.767  19.666  0.00  0.00    +0.000 N 
ATOM      5  C   UNL     1       3.675   5.295  18.551  0.00  0.00    +0.000 C 
ATOM      6  O   UNL     1       4.477   4.790  17.789  0.00  0.00    +0.000 OA
ATOM      7  C   UNL     1       3.119   6.633  18.376  0.00  0.00    +0.000 A 
ATOM      8  C   UNL     1       3.341   7.564  17.387  0.00  0.00    +0.000 A 
ATOM      9  C   UNL     1       2.661   8.783  17.492  0.00  0.00    +0.000 A 
ATOM     10  C   UNL     1       1.780   9.087  18.576  0.00  0.00    +0.000 A 
ATOM     11  C   UNL     1       1.563   8.085  19.542  0.00  0.00    +0.000 A 
ATOM     12  C   UNL     1       2.237   6.871  19.410  0.00  0.00    +0.000 A 
ATOM     13  C   UNL     1       2.184   5.641  20.217  0.00  0.00    +0.000 C 
ATOM     14  O   UNL     1       1.404   5.471  21.134  0.00  0.00    +0.000 OA
BRANCH   4  15
ATOM     15  C   UNL     1       3.231   3.379  20.049  0.00  0.00    +0.000 C 
BRANCH  15  17
ATOM     16  C   UNL     1       1.075   2.658  18.983  0.00  0.00    +0.000 C 
ATOM     17  C   UNL     1       2.389   2.487  19.181  0.00  0.00    +0.000 C 
ENDBRANCH  15  17
ENDBRANCH   4  15
ENDBRANCH   1  10
BRANCH   3  18
ATOM     18  C   UNL     1      -1.191  10.066  19.023  0.00  0.00    +0.000 C 
BRANCH  18  19
ATOM     19  C   UNL     1      -2.169  10.243  17.880  0.00  0.00    +0.000 A 
ATOM     20  C   UNL     1      -1.929   9.764  16.582  0.00  0.00    +0.000 A 
ATOM     21  C   UNL     1      -2.758  10.140  15.523  0.00  0.00    +0.000 A 
ATOM     22  C   UNL     1      -3.851  10.971  15.752  0.00  0.00    +0.000 A 
ATOM     23  C   UNL     1      -4.146  11.391  17.046  0.00  0.00    +0.000 A 
ATOM     24  C   UNL     1      -3.316  11.021  18.105  0.00  0.00    +0.000 A 
ENDBRANCH  18  19
ENDBRANCH   3  18
BRANCH   3  25
ATOM     25  C   UNL     1      -0.247  12.374  19.051  0.00  0.00    +0.000 C 
BRANCH  25  26
ATOM     26  C   UNL     1      -0.532  12.777  20.495  0.00  0.00    +0.000 A 
ATOM     27  N   UNL     1      -1.532  12.250  21.129  0.00  0.00    +0.000 NA
ATOM     28  C   UNL     1      -1.882  12.798  22.373  0.00  0.00    +0.000 A 
ATOM     29  C   UNL     1      -3.057  12.357  22.985  0.00  0.00    +0.000 A 
ATOM     30  C   UNL     1      -3.588  13.047  24.077  0.00  0.00    +0.000 A 
ATOM     31  C   UNL     1      -2.925  14.163  24.590  0.00  0.00    +0.000 A 
ATOM     32  C   UNL     1      -1.701  14.558  24.047  0.00  0.00    +0.000 A 
ATOM     33  C   UNL     1      -1.187  13.869  22.943  0.00  0.00    +0.000 A 
ATOM     34  C   UNL     1       0.055  14.298  22.275  0.00  0.00    +0.000 A 
ATOM     35  O   UNL     1       0.817  15.111  22.785  0.00  0.00    +0.000 OA
ATOM     36  N   UNL     1       0.275  13.744  21.037  0.00  0.00    +0.000 N 
ATOM     37  H   UNL     1       1.082  14.074  20.516  0.00  0.00    +0.000 HD
ENDBRANCH  25  26
ENDBRANCH   3  25
TORSDOF 7
ENDMDL
MODEL 4
REMARK VINA RESULT:      -8.4      1.009      1.751
REMARK  Name = 
REMARK  7 active torsions:
REMARK  status: ('A' for Active; 'I' for Inactive)
REMARK    1  A    between atoms: C_2  and  C_3
REMARK    2  A    between atoms: C_3  and  N_4
REMARK    3  A    between atoms: C_10  and  C_11
REMARK    4  A    between atoms: N_13  and  C_14
REMARK    5  A    between atoms: N_13  and  C_21
REMARK    6  A    between atoms: C_14  and  C_15
REMARK    7  A    between atoms: C_21  and  C_22
REMARK                            x       y       z     vdW  Elec       q    Type
REMARK                         _______ _______ _______ _____ _____    ______ ____
ROOT
ATOM      1  C   UNL     1       0.545  11.623  19.067  0.00  0.00    +0.000 C 
ATOM      2  O   UNL     1       1.344  12.528  18.791  0.00  0.00    +0.000 OA
ATOM      3  N   UNL     1      -0.750  11.974  19.458  0.00  0.00    +0.000 N 
ENDROOT
BRANCH   1  10
ATOM      4  N   UNL     1       2.663   5.934  19.761  0.00  0.00    +0.000 N 
ATOM      5  C   UNL     1       3.065   6.493  18.580  0.00  0.00    +0.000 C 
ATOM      6  O   UNL     1       3.763   6.024  17.701  0.00  0.00    +0.000 OA
ATOM      7  C   UNL     1       2.445   7.813  18.508  0.00  0.00    +0.000 A 
ATOM      8  C   UNL     1       2.490   8.760  17.510  0.00  0.00    +0.000 A 
ATOM      9  C   UNL     1       1.794   9.955  17.731  0.00  0.00    +0.000 A 
ATOM     10  C   UNL     1       1.071  10.218  18.937  0.00  0.00    +0.000 A 
ATOM     11  C   UNL     1       1.031   9.199  19.909  0.00  0.00    +0.000 A 
ATOM     12  C   UNL     1       1.717   8.010  19.663  0.00  0.00    +0.000 A 
ATOM     13  C   UNL     1       1.824   6.771  20.451  0.00  0.00    +0.000 C 
ATOM     14  O   UNL     1       1.192   6.566  21.468  0.00  0.00    +0.000 OA
BRANCH   4  15
ATOM     15  C   UNL     1       2.908   4.548  20.098  0.00  0.00    +0.000 C 
BRANCH  15  17
ATOM     16  C   UNL     1       1.328   2.845  21.048  0.00  0.00    +0.000 C 
ATOM     17  C   UNL     1       1.628   3.762  20.119  0.00  0.00    +0.000 C 
ENDBRANCH  15  17
ENDBRANCH   4  15
ENDBRANCH   1  10
BRANCH   3  18
ATOM     18  C   UNL     1      -1.915  11.089  19.499  0.00  0.00    +0.000 C 
BRANCH  18  19
ATOM     19  C   UNL     1      -2.564  10.824  18.158  0.00  0.00    +0.000 A 
ATOM     20  C   UNL     1      -1.967  10.043  17.155  0.00  0.00    +0.000 A 
ATOM     21  C   UNL     1      -2.506  10.010  15.866  0.00  0.00    +0.000 A 
ATOM     22  C   UNL     1      -3.661  10.730  15.573  0.00  0.00    +0.000 A 
ATOM     23  C   UNL     1      -4.307  11.447  16.577  0.00  0.00    +0.000 A 
ATOM     24  C   UNL     1      -3.767  11.486  17.863  0.00  0.00    +0.000 A 
ENDBRANCH  18  19
ENDBRANCH   3  18
BRANCH   3  25
ATOM     25  C   UNL     1      -1.029  13.416  19.641  0.00  0.00    +0.000 C 
BRANCH  25  26
ATOM     26  C   UNL     1      -2.174  13.619  20.631  0.00  0.00    +0.000 A 
ATOM     27  N   UNL     1      -2.056  13.203  21.852  0.00  0.00    +0.000 NA
ATOM     28  C   UNL     1      -3.199  13.221  22.666  0.00  0.00    +0.000 A 
ATOM     29  C   UNL     1      -3.129  12.617  23.922  0.00  0.00    +0.000 A 
ATOM     30  C   UNL     1      -4.293  12.373  24.655  0.00  0.00    +0.000 A 
ATOM     31  C   UNL     1      -5.533  12.766  24.152  0.00  0.00    +0.000 A 
ATOM     32  C   UNL     1      -5.607  13.455  22.939  0.00  0.00    +0.000 A 
ATOM     33  C   UNL     1      -4.437  13.680  22.207  0.00  0.00    +0.000 A 
ATOM     34  C   UNL     1      -4.469  14.323  20.880  0.00  0.00    +0.000 A 
ATOM     35  O   UNL     1      -5.466  14.901  20.465  0.00  0.00    +0.000 OA
ATOM     36  N   UNL     1      -3.317  14.197  20.142  0.00  0.00    +0.000 N 
ATOM     37  H   UNL     1      -3.329  14.562  19.195  0.00  0.00    +0.000 HD
ENDBRANCH  25  26
ENDBRANCH   3  25
TORSDOF 7
ENDMDL
MODEL 5
REMARK VINA RESULT:      -8.4      0.763      1.324
REMARK  Name = 
REMARK  7 active torsions:
REMARK  status: ('A' for Active; 'I' for Inactive)
REMARK    1  A    between atoms: C_2  and  C_3
REMARK    2  A    between atoms: C_3  and  N_4
REMARK    3  A    between atoms: C_10  and  C_11
REMARK    4  A    between atoms: N_13  and  C_14
REMARK    5  A    between atoms: N_13  and  C_21
REMARK    6  A    between atoms: C_14  and  C_15
REMARK    7  A    between atoms: C_21  and  C_22
REMARK                            x       y       z     vdW  Elec       q    Type
REMARK                         _______ _______ _______ _____ _____    ______ ____
ROOT
ATOM      1  C   UNL     1       0.223  11.847  19.719  0.00  0.00    +0.000 C 
ATOM      2  O   UNL     1       0.977  12.828  19.660  0.00  0.00    +0.000 OA
ATOM      3  N   UNL     1      -1.156  12.068  19.756  0.00  0.00    +0.000 N 
ENDROOT
BRANCH   1  10
ATOM      4  N   UNL     1       2.800   6.425  18.578  0.00  0.00    +0.000 N 
ATOM      5  C   UNL     1       2.273   6.491  19.838  0.00  0.00    +0.000 C 
ATOM      6  O   UNL     1       2.249   5.643  20.710  0.00  0.00    +0.000 OA
ATOM      7  C   UNL     1       1.751   7.844  20.006  0.00  0.00    +0.000 A 
ATOM      8  C   UNL     1       1.164   8.439  21.099  0.00  0.00    +0.000 A 
ATOM      9  C   UNL     1       0.748   9.768  20.957  0.00  0.00    +0.000 A 
ATOM     10  C   UNL     1       0.896  10.499  19.737  0.00  0.00    +0.000 A 
ATOM     11  C   UNL     1       1.535   9.851  18.661  0.00  0.00    +0.000 A 
ATOM     12  C   UNL     1       1.957   8.533  18.829  0.00  0.00    +0.000 A 
ATOM     13  C   UNL     1       2.679   7.624  17.923  0.00  0.00    +0.000 C 
ATOM     14  O   UNL     1       3.127   7.964  16.846  0.00  0.00    +0.000 OA
BRANCH   4  15
ATOM     15  C   UNL     1       3.590   5.306  18.114  0.00  0.00    +0.000 C 
BRANCH  15  17
ATOM     16  C   UNL     1       5.839   5.125  19.214  0.00  0.00    +0.000 C 
ATOM     17  C   UNL     1       5.060   5.595  18.231  0.00  0.00    +0.000 C 
ENDBRANCH  15  17
ENDBRANCH   4  15
ENDBRANCH   1  10
BRANCH   3  18
ATOM     18  C   UNL     1      -2.201  11.078  19.494  0.00  0.00    +0.000 C 
BRANCH  18  19
ATOM     19  C   UNL     1      -2.653  10.992  18.051  0.00  0.00    +0.000 A 
ATOM     20  C   UNL     1      -3.831  11.592  17.577  0.00  0.00    +0.000 A 
ATOM     21  C   UNL     1      -4.309  11.302  16.297  0.00  0.00    +0.000 A 
ATOM     22  C   UNL     1      -3.603  10.436  15.467  0.00  0.00    +0.000 A 
ATOM     23  C   UNL     1      -2.395   9.893  15.895  0.00  0.00    +0.000 A 
ATOM     24  C   UNL     1      -1.917  10.178  17.175  0.00  0.00    +0.000 A 
ENDBRANCH  18  19
ENDBRANCH   3  18
BRANCH   3  25
ATOM     25  C   UNL     1      -1.609  13.473  19.855  0.00  0.00    +0.000 C 
BRANCH  25  26
ATOM     26  C   UNL     1      -2.815  13.584  20.785  0.00  0.00    +0.000 A 
ATOM     27  N   UNL     1      -2.704  13.251  22.032  0.00  0.00    +0.000 NA
ATOM     28  C   UNL     1      -3.878  13.170  22.796  0.00  0.00    +0.000 A 
ATOM     29  C   UNL     1      -3.794  12.647  24.088  0.00  0.00    +0.000 A 
ATOM     30  C   UNL     1      -4.952  12.298  24.787  0.00  0.00    +0.000 A 
ATOM     31  C   UNL     1      -6.206  12.507  24.212  0.00  0.00    +0.000 A 
ATOM     32  C   UNL     1      -6.307  13.116  22.959  0.00  0.00    +0.000 A 
ATOM     33  C   UNL     1      -5.140  13.446  22.262  0.00  0.00    +0.000 A 
ATOM     34  C   UNL     1      -5.188  14.009  20.900  0.00  0.00    +0.000 A 
ATOM     35  O   UNL     1      -6.227  14.436  20.413  0.00  0.00    +0.000 OA
ATOM     36  N   UNL     1      -3.996  13.989  20.218  0.00  0.00    +0.000 N 
ATOM     37  H   UNL     1      -4.008  14.299  19.251  0.00  0.00    +0.000 HD
ENDBRANCH  25  26
ENDBRANCH   3  25
TORSDOF 7
ENDMDL
MODEL 6
REMARK VINA RESULT:      -8.3      2.838      4.552
REMARK  Name = 
REMARK  7 active torsions:
REMARK  status: ('A' for Active; 'I' for Inactive)
REMARK    1  A    between atoms: C_2  and  C_3
REMARK    2  A    between atoms: C_3  and  N_4
REMARK    3  A    between atoms: C_10  and  C_11
REMARK    4  A    between atoms: N_13  and  C_14
REMARK    5  A    between atoms: N_13  and  C_21
REMARK    6  A    between atoms: C_14  and  C_15
REMARK    7  A    between atoms: C_21  and  C_22
REMARK                            x       y       z     vdW  Elec       q    Type
REMARK                         _______ _______ _______ _____ _____    ______ ____
ROOT
ATOM      1  C   UNL     1       0.753  10.378  20.635  0.00  0.00    +0.000 C 
ATOM      2  O   UNL     1       1.060  10.589  21.816  0.00  0.00    +0.000 OA
ATOM      3  N   UNL     1      -0.026  11.328  19.969  0.00  0.00    +0.000 N 
ENDROOT
BRANCH   1  10
ATOM      4  N   UNL     1       3.128   4.893  19.368  0.00  0.00    +0.000 N 
ATOM      5  C   UNL     1       3.240   5.758  18.316  0.00  0.00    +0.000 C 
ATOM      6  O   UNL     1       3.736   5.581  17.219  0.00  0.00    +0.000 OA
ATOM      7  C   UNL     1       2.584   6.998  18.720  0.00  0.00    +0.000 A 
ATOM      8  C   UNL     1       2.378   8.163  18.017  0.00  0.00    +0.000 A 
ATOM      9  C   UNL     1       1.716   9.203  18.681  0.00  0.00    +0.000 A 
ATOM     10  C   UNL     1       1.275   9.098  20.037  0.00  0.00    +0.000 A 
ATOM     11  C   UNL     1       1.482   7.871  20.698  0.00  0.00    +0.000 A 
ATOM     12  C   UNL     1       2.127   6.842  20.013  0.00  0.00    +0.000 A 
ATOM     13  C   UNL     1       2.442   5.460  20.411  0.00  0.00    +0.000 C 
ATOM     14  O   UNL     1       2.060   4.957  21.449  0.00  0.00    +0.000 OA
BRANCH   4  15
ATOM     15  C   UNL     1       3.480   3.492  19.275  0.00  0.00    +0.000 C 
BRANCH  15  17
ATOM     16  C   UNL     1       2.496   2.124  17.414  0.00  0.00    +0.000 C 
ATOM     17  C   UNL     1       2.384   2.702  18.617  0.00  0.00    +0.000 C 
ENDBRANCH  15  17
ENDBRANCH   4  15
ENDBRANCH   1  10
BRANCH   3  18
ATOM     18  C   UNL     1      -0.212  11.439  18.522  0.00  0.00    +0.000 C 
BRANCH  18  19
ATOM     19  C   UNL     1      -1.566  10.992  18.015  0.00  0.00    +0.000 A 
ATOM     20  C   UNL     1      -1.734   9.950  17.088  0.00  0.00    +0.000 A 
ATOM     21  C   UNL     1      -2.978   9.724  16.494  0.00  0.00    +0.000 A 
ATOM     22  C   UNL     1      -4.072  10.512  16.839  0.00  0.00    +0.000 A 
ATOM     23  C   UNL     1      -3.938  11.499  17.813  0.00  0.00    +0.000 A 
ATOM     24  C   UNL     1      -2.695  11.730  18.404  0.00  0.00    +0.000 A 
ENDBRANCH  18  19
ENDBRANCH   3  18
BRANCH   3  25
ATOM     25  C   UNL     1      -0.539  12.459  20.774  0.00  0.00    +0.000 C 
BRANCH  25  26
ATOM     26  C   UNL     1       0.102  13.770  20.327  0.00  0.00    +0.000 A 
ATOM     27  N   UNL     1      -0.632  14.713  19.825  0.00  0.00    +0.000 NA
ATOM     28  C   UNL     1       0.018  15.810  19.239  0.00  0.00    +0.000 A 
ATOM     29  C   UNL     1      -0.753  16.743  18.544  0.00  0.00    +0.000 A 
ATOM     30  C   UNL     1      -0.141  17.696  17.726  0.00  0.00    +0.000 A 
ATOM     31  C   UNL     1       1.249  17.746  17.627  0.00  0.00    +0.000 A 
ATOM     32  C   UNL     1       2.034  16.879  18.390  0.00  0.00    +0.000 A 
ATOM     33  C   UNL     1       1.411  15.918  19.193  0.00  0.00    +0.000 A 
ATOM     34  C   UNL     1       2.190  14.920  19.949  0.00  0.00    +0.000 A 
ATOM     35  O   UNL     1       3.400  15.029  20.106  0.00  0.00    +0.000 OA
ATOM     36  N   UNL     1       1.466  13.858  20.432  0.00  0.00    +0.000 N 
ATOM     37  H   UNL     1       1.983  13.114  20.893  0.00  0.00    +0.000 HD
ENDBRANCH  25  26
ENDBRANCH   3  25
TORSDOF 7
ENDMDL
MODEL 7
REMARK VINA RESULT:      -8.3      3.729     11.174
REMARK  Name = 
REMARK  7 active torsions:
REMARK  status: ('A' for Active; 'I' for Inactive)
REMARK    1  A    between atoms: C_2  and  C_3
REMARK    2  A    between atoms: C_3  and  N_4
REMARK    3  A    between atoms: C_10  and  C_11
REMARK    4  A    between atoms: N_13  and  C_14
REMARK    5  A    between atoms: N_13  and  C_21
REMARK    6  A    between atoms: C_14  and  C_15
REMARK    7  A    between atoms: C_21  and  C_22
REMARK                            x       y       z     vdW  Elec       q    Type
REMARK                         _______ _______ _______ _____ _____    ______ ____
ROOT
ATOM      1  C   UNL     1       4.575   5.801  18.467  0.00  0.00    +0.000 C 
ATOM      2  O   UNL     1       5.686   6.203  18.840  0.00  0.00    +0.000 OA
ATOM      3  N   UNL     1       4.510   4.622  17.720  0.00  0.00    +0.000 N 
ENDROOT
BRANCH   1  10
ATOM      4  N   UNL     1       0.337  10.088  19.464  0.00  0.00    +0.000 N 
ATOM      5  C   UNL     1       0.395   9.174  20.480  0.00  0.00    +0.000 C 
ATOM      6  O   UNL     1      -0.254   9.119  21.507  0.00  0.00    +0.000 OA
ATOM      7  C   UNL     1       1.390   8.179  20.093  0.00  0.00    +0.000 A 
ATOM      8  C   UNL     1       1.795   7.032  20.737  0.00  0.00    +0.000 A 
ATOM      9  C   UNL     1       2.792   6.268  20.119  0.00  0.00    +0.000 A 
ATOM     10  C   UNL     1       3.397   6.645  18.879  0.00  0.00    +0.000 A 
ATOM     11  C   UNL     1       2.921   7.810  18.247  0.00  0.00    +0.000 A 
ATOM     12  C   UNL     1       1.915   8.547  18.872  0.00  0.00    +0.000 A 
ATOM     13  C   UNL     1       1.196   9.760  18.447  0.00  0.00    +0.000 C 
ATOM     14  O   UNL     1       1.328  10.271  17.353  0.00  0.00    +0.000 OA
BRANCH   4  15
ATOM     15  C   UNL     1      -0.679  11.116  19.389  0.00  0.00    +0.000 C 
BRANCH  15  17
ATOM     16  C   UNL     1      -2.166  11.224  17.370  0.00  0.00    +0.000 C 
ATOM     17  C   UNL     1      -1.839  10.670  18.544  0.00  0.00    +0.000 C 
ENDBRANCH  15  17
ENDBRANCH   4  15
ENDBRANCH   1  10
BRANCH   3  18
ATOM     18  C   UNL     1       3.315   3.814  17.476  0.00  0.00    +0.000 C 
BRANCH  18  19
ATOM     19  C   UNL     1       2.609   3.324  18.723  0.00  0.00    +0.000 A 
ATOM     20  C   UNL     1       1.227   3.466  18.930  0.00  0.00    +0.000 A 
ATOM     21  C   UNL     1       0.666   3.195  20.180  0.00  0.00    +0.000 A 
ATOM     22  C   UNL     1       1.471   2.751  21.226  0.00  0.00    +0.000 A 
ATOM     23  C   UNL     1       2.829   2.532  21.013  0.00  0.00    +0.000 A 
ATOM     24  C   UNL     1       3.393   2.807  19.767  0.00  0.00    +0.000 A 
ENDBRANCH  18  19
ENDBRANCH   3  18
BRANCH   3  25
ATOM     25  C   UNL     1       5.796   4.010  17.317  0.00  0.00    +0.000 C 
BRANCH  25  26
ATOM     26  C   UNL     1       6.047   4.224  15.826  0.00  0.00    +0.000 A 
ATOM     27  N   UNL     1       5.260   3.682  14.952  0.00  0.00    +0.000 NA
ATOM     28  C   UNL     1       5.644   3.730  13.603  0.00  0.00    +0.000 A 
ATOM     29  C   UNL     1       4.898   3.003  12.674  0.00  0.00    +0.000 A 
ATOM     30  C   UNL     1       5.384   2.800  11.380  0.00  0.00    +0.000 A 
ATOM     31  C   UNL     1       6.603   3.358  10.994  0.00  0.00    +0.000 A 
ATOM     32  C   UNL     1       7.313   4.166  11.884  0.00  0.00    +0.000 A 
ATOM     33  C   UNL     1       6.826   4.348  13.183  0.00  0.00    +0.000 A 
ATOM     34  C   UNL     1       7.580   5.117  14.190  0.00  0.00    +0.000 A 
ATOM     35  O   UNL     1       8.530   5.826  13.883  0.00  0.00    +0.000 OA
ATOM     36  N   UNL     1       7.157   4.954  15.486  0.00  0.00    +0.000 N 
ATOM     37  H   UNL     1       7.700   5.410  16.213  0.00  0.00    +0.000 HD
ENDBRANCH  25  26
ENDBRANCH   3  25
TORSDOF 7
ENDMDL
MODEL 8
REMARK VINA RESULT:      -8.3      1.472      2.018
REMARK  Name = 
REMARK  7 active torsions:
REMARK  status: ('A' for Active; 'I' for Inactive)
REMARK    1  A    between atoms: C_2  and  C_3
REMARK    2  A    between atoms: C_3  and  N_4
REMARK    3  A    between atoms: C_10  and  C_11
REMARK    4  A    between atoms: N_13  and  C_14
REMARK    5  A    between atoms: N_13  and  C_21
REMARK    6  A    between atoms: C_14  and  C_15
REMARK    7  A    between atoms: C_21  and  C_22
REMARK                            x       y       z     vdW  Elec       q    Type
REMARK                         _______ _______ _______ _____ _____    ______ ____
ROOT
ATOM      1  C   UNL     1       0.656  10.934  19.203  0.00  0.00    +0.000 C 
ATOM      2  O   UNL     1       1.391  11.921  19.069  0.00  0.00    +0.000 OA
ATOM      3  N   UNL     1      -0.727  11.128  19.208  0.00  0.00    +0.000 N 
ENDROOT
BRANCH   1  10
ATOM      4  N   UNL     1       3.492   5.563  18.531  0.00  0.00    +0.000 N 
ATOM      5  C   UNL     1       2.811   5.642  19.714  0.00  0.00    +0.000 C 
ATOM      6  O   UNL     1       2.699   4.814  20.598  0.00  0.00    +0.000 OA
ATOM      7  C   UNL     1       2.238   6.983  19.780  0.00  0.00    +0.000 A 
ATOM      8  C   UNL     1       1.503   7.586  20.776  0.00  0.00    +0.000 A 
ATOM      9  C   UNL     1       1.075   8.899  20.549  0.00  0.00    +0.000 A 
ATOM     10  C   UNL     1       1.356   9.606  19.338  0.00  0.00    +0.000 A 
ATOM     11  C   UNL     1       2.140   8.953  18.367  0.00  0.00    +0.000 A 
ATOM     12  C   UNL     1       2.572   7.651  18.621  0.00  0.00    +0.000 A 
ATOM     13  C   UNL     1       3.424   6.742  17.835  0.00  0.00    +0.000 C 
ATOM     14  O   UNL     1       3.994   7.071  16.814  0.00  0.00    +0.000 OA
BRANCH   4  15
ATOM     15  C   UNL     1       4.362   4.456  18.198  0.00  0.00    +0.000 C 
BRANCH  15  17
ATOM     16  C   UNL     1       6.739   5.244  18.382  0.00  0.00    +0.000 C 
ATOM     17  C   UNL     1       5.690   4.584  18.890  0.00  0.00    +0.000 C 
ENDBRANCH  15  17
ENDBRANCH   4  15
ENDBRANCH   1  10
BRANCH   3  18
ATOM     18  C   UNL     1      -1.750  10.099  19.019  0.00  0.00    +0.000 C 
BRANCH  18  19
ATOM     19  C   UNL     1      -2.551  10.220  17.740  0.00  0.00    +0.000 A 
ATOM     20  C   UNL     1      -2.051   9.848  16.481  0.00  0.00    +0.000 A 
ATOM     21  C   UNL     1      -2.746  10.180  15.316  0.00  0.00    +0.000 A 
ATOM     22  C   UNL     1      -3.958  10.860  15.395  0.00  0.00    +0.000 A 
ATOM     23  C   UNL     1      -4.503  11.168  16.639  0.00  0.00    +0.000 A 
ATOM     24  C   UNL     1      -3.808  10.841  17.804  0.00  0.00    +0.000 A 
ENDBRANCH  18  19
ENDBRANCH   3  18
BRANCH   3  25
ATOM     25  C   UNL     1      -1.209  12.527  19.185  0.00  0.00    +0.000 C 
BRANCH  25  26
ATOM     26  C   UNL     1      -1.869  12.889  20.513  0.00  0.00    +0.000 A 
ATOM     27  N   UNL     1      -3.160  12.964  20.596  0.00  0.00    +0.000 NA
ATOM     28  C   UNL     1      -3.713  13.499  21.770  0.00  0.00    +0.000 A 
ATOM     29  C   UNL     1      -5.086  13.746  21.804  0.00  0.00    +0.000 A 
ATOM     30  C   UNL     1      -5.641  14.513  22.831  0.00  0.00    +0.000 A 
ATOM     31  C   UNL     1      -4.830  15.007  23.853  0.00  0.00    +0.000 A 
ATOM     32  C   UNL     1      -3.471  14.688  23.881  0.00  0.00    +0.000 A 
ATOM     33  C   UNL     1      -2.923  13.933  22.839  0.00  0.00    +0.000 A 
ATOM     34  C   UNL     1      -1.479  13.642  22.772  0.00  0.00    +0.000 A 
ATOM     35  O   UNL     1      -0.737  13.832  23.728  0.00  0.00    +0.000 OA
ATOM     36  N   UNL     1      -1.032  13.177  21.560  0.00  0.00    +0.000 N 
ATOM     37  H   UNL     1      -0.031  13.038  21.455  0.00  0.00    +0.000 HD
ENDBRANCH  25  26
ENDBRANCH   3  25
TORSDOF 7
ENDMDL
MODEL 9
REMARK VINA RESULT:      -8.3      1.673      2.574
REMARK  Name = 
REMARK  7 active torsions:
REMARK  status: ('A' for Active; 'I' for Inactive)
REMARK    1  A    between atoms: C_2  and  C_3
REMARK    2  A    between atoms: C_3  and  N_4
REMARK    3  A    between atoms: C_10  and  C_11
REMARK    4  A    between atoms: N_13  and  C_14
REMARK    5  A    between atoms: N_13  and  C_21
REMARK    6  A    between atoms: C_14  and  C_15
REMARK    7  A    between atoms: C_21  and  C_22
REMARK                            x       y       z     vdW  Elec       q    Type
REMARK                         _______ _______ _______ _____ _____    ______ ____
ROOT
ATOM      1  C   UNL     1       1.026  10.334  18.673  0.00  0.00    +0.000 C 
ATOM      2  O   UNL     1       1.803  11.292  18.568  0.00  0.00    +0.000 OA
ATOM      3  N   UNL     1      -0.336  10.596  18.841  0.00  0.00    +0.000 N 
ENDROOT
BRANCH   1  10
ATOM      4  N   UNL     1       3.386   4.770  19.575  0.00  0.00    +0.000 N 
ATOM      5  C   UNL     1       3.909   5.378  18.468  0.00  0.00    +0.000 C 
ATOM      6  O   UNL     1       4.748   4.972  17.687  0.00  0.00    +0.000 OA
ATOM      7  C   UNL     1       3.223   6.660  18.329  0.00  0.00    +0.000 A 
ATOM      8  C   UNL     1       3.342   7.630  17.360  0.00  0.00    +0.000 A 
ATOM      9  C   UNL     1       2.548   8.774  17.499  0.00  0.00    +0.000 A 
ATOM     10  C   UNL     1       1.653   8.966  18.598  0.00  0.00    +0.000 A 
ATOM     11  C   UNL     1       1.546   7.926  19.542  0.00  0.00    +0.000 A 
ATOM     12  C   UNL     1       2.333   6.787  19.376  0.00  0.00    +0.000 A 
ATOM     13  C   UNL     1       2.410   5.539  20.154  0.00  0.00    +0.000 C 
ATOM     14  O   UNL     1       1.661   5.273  21.073  0.00  0.00    +0.000 OA
BRANCH   4  15
ATOM     15  C   UNL     1       3.671   3.395  19.924  0.00  0.00    +0.000 C 
BRANCH  15  17
ATOM     16  C   UNL     1       1.594   2.155  19.252  0.00  0.00    +0.000 C 
ATOM     17  C   UNL     1       2.887   2.445  19.062  0.00  0.00    +0.000 C 
ENDBRANCH  15  17
ENDBRANCH   4  15
ENDBRANCH   1  10
BRANCH   3  18
ATOM     18  C   UNL     1      -1.433   9.646  18.652  0.00  0.00    +0.000 C 
BRANCH  18  19
ATOM     19  C   UNL     1      -2.370   9.970  17.509  0.00  0.00    +0.000 A 
ATOM     20  C   UNL     1      -2.016   9.823  16.158  0.00  0.00    +0.000 A 
ATOM     21  C   UNL     1      -2.834  10.338  15.150  0.00  0.00    +0.000 A 
ATOM     22  C   UNL     1      -4.027  10.978  15.476  0.00  0.00    +0.000 A 
ATOM     23  C   UNL     1      -4.428  11.064  16.807  0.00  0.00    +0.000 A 
ATOM     24  C   UNL     1      -3.610  10.554  17.816  0.00  0.00    +0.000 A 
ENDBRANCH  18  19
ENDBRANCH   3  18
BRANCH   3  25
ATOM     25  C   UNL     1      -0.732  12.012  19.013  0.00  0.00    +0.000 C 
BRANCH  25  26
ATOM     26  C   UNL     1      -1.542  12.190  20.295  0.00  0.00    +0.000 A 
ATOM     27  N   UNL     1      -2.615  12.914  20.288  0.00  0.00    +0.000 NA
ATOM     28  C   UNL     1      -3.210  13.221  21.522  0.00  0.00    +0.000 A 
ATOM     29  C   UNL     1      -4.261  14.139  21.542  0.00  0.00    +0.000 A 
ATOM     30  C   UNL     1      -4.707  14.676  22.752  0.00  0.00    +0.000 A 
ATOM     31  C   UNL     1      -4.129  14.269  23.955  0.00  0.00    +0.000 A 
ATOM     32  C   UNL     1      -3.142  13.281  23.955  0.00  0.00    +0.000 A 
ATOM     33  C   UNL     1      -2.691  12.763  22.737  0.00  0.00    +0.000 A 
ATOM     34  C   UNL     1      -1.590  11.784  22.674  0.00  0.00    +0.000 A 
ATOM     35  O   UNL     1      -1.184  11.203  23.673  0.00  0.00    +0.000 OA
ATOM     36  N   UNL     1      -1.041  11.601  21.428  0.00  0.00    +0.000 N 
ATOM     37  H   UNL     1      -0.232  10.991  21.361  0.00  0.00    +0.000 HD
ENDBRANCH  25  26
ENDBRANCH   3  25
TORSDOF 7
ENDMDL
