MODEL 1
REMARK VINA RESULT:      -8.7      0.000      0.000
REMARK  Name = 
REMARK  5 active torsions:
REMARK  status: ('A' for Active; 'I' for Inactive)
REMARK    1  A    between atoms: C_1  and  C_2
REMARK    2  A    between atoms: C_4  and  C_5
REMARK    3  A    between atoms: N_7  and  C_8
REMARK    4  A    between atoms: C_12  and  C_13
REMARK    5  A    between atoms: C_25  and  C_26
REMARK                            x       y       z     vdW  Elec       q    Type
REMARK                         _______ _______ _______ _____ _____    ______ ____
ROOT
ATOM      1  C   UNL     1       7.752   8.288  17.883  0.00  0.00    +0.000 A 
ATOM      2  C   UNL     1       8.403   7.371  18.711  0.00  0.00    +0.000 A 
ATOM      3  C   UNL     1       7.989   6.043  18.788  0.00  0.00    +0.000 A 
ATOM      4  C   UNL     1       6.871   5.631  18.082  0.00  0.00    +0.000 A 
ATOM      5  C   UNL     1       6.111   6.547  17.343  0.00  0.00    +0.000 A 
ATOM      6  C   UNL     1       6.579   7.879  17.226  0.00  0.00    +0.000 A 
ENDROOT
BRANCH   5   7
ATOM      7  C   UNL     1       4.750   6.142  16.772  0.00  0.00    +0.000 C 
ATOM      8  C   UNL     1       3.636   6.984  17.433  0.00  0.00    +0.000 C 
ATOM      9  O   UNL     1       3.547   6.900  18.849  0.00  0.00    +0.000 OA
ATOM     10  C   UNL     1       3.300   5.652  19.489  0.00  0.00    +0.000 C 
ATOM     11  N   UNL     1       2.762   4.623  18.636  0.00  0.00    +0.000 N 
ATOM     12  C   UNL     1       1.703   3.823  18.955  0.00  0.00    +0.000 A 
ATOM     13  N   UNL     1       1.508   2.952  17.996  0.00  0.00    +0.000 NA
ATOM     14  N   UNL     1       2.481   3.157  17.050  0.00  0.00    +0.000 NA
ATOM     15  C   UNL     1       3.258   4.143  17.453  0.00  0.00    +0.000 A 
ATOM     16  C   UNL     1       4.481   4.620  16.751  0.00  0.00    +0.000 C 
ENDBRANCH   5   7
BRANCH   1  19
ATOM     17  C   UNL     1       8.875  10.370  18.659  0.00  0.00    +0.000 C 
ATOM     18  O   UNL     1       9.081  10.031  19.825  0.00  0.00    +0.000 OA
ATOM     19  N   UNL     1       8.253   9.602  17.685  0.00  0.00    +0.000 N 
ATOM     20  H   UNL     1       8.273   9.979  16.741  0.00  0.00    +0.000 HD
BRANCH  17  24
ATOM     21  C   UNL     1      12.311  13.242  16.517  0.00  0.00    +0.000 C 
ATOM     22  C   UNL     1      11.014  13.030  17.237  0.00  0.00    +0.000 A 
ATOM     23  C   UNL     1      10.592  11.780  17.600  0.00  0.00    +0.000 A 
ATOM     24  C   UNL     1       9.365  11.718  18.243  0.00  0.00    +0.000 A 
ATOM     25  N   UNL     1       8.582  12.789  18.503  0.00  0.00    +0.000 NA
ATOM     26  C   UNL     1       9.074  13.978  18.098  0.00  0.00    +0.000 A 
ATOM     27  N   UNL     1      10.273  14.122  17.477  0.00  0.00    +0.000 NA
BRANCH  26  28
ATOM     28  C   UNL     1       8.286  15.247  18.297  0.00  0.00    +0.000 C 
ATOM     29  C   UNL     1       8.913  16.618  18.289  0.00  0.00    +0.000 C 
ATOM     30  C   UNL     1       8.491  16.008  19.591  0.00  0.00    +0.000 C 
ENDBRANCH  26  28
ENDBRANCH  17  24
ENDBRANCH   1  19
TORSDOF 4
ENDMDL
MODEL 2
REMARK VINA RESULT:      -8.6      5.262      6.605
REMARK  Name = 
REMARK  5 active torsions:
REMARK  status: ('A' for Active; 'I' for Inactive)
REMARK    1  A    between atoms: C_1  and  C_2
REMARK    2  A    between atoms: C_4  and  C_5
REMARK    3  A    between atoms: N_7  and  C_8
REMARK    4  A    between atoms: C_12  and  C_13
REMARK    5  A    between atoms: C_25  and  C_26
REMARK                            x       y       z     vdW  Elec       q    Type
REMARK                         _______ _______ _______ _____ _____    ______ ____
ROOT
ATOM      1  C   UNL     1       4.031   7.053  17.284  0.00  0.00    +0.000 A 
ATOM      2  C   UNL     1       4.866   7.038  16.165  0.00  0.00    +0.000 A 
ATOM      3  C   UNL     1       5.304   5.841  15.603  0.00  0.00    +0.000 A 
ATOM      4  C   UNL     1       4.960   4.638  16.197  0.00  0.00    +0.000 A 
ATOM      5  C   UNL     1       4.233   4.611  17.394  0.00  0.00    +0.000 A 
ATOM      6  C   UNL     1       3.745   5.833  17.920  0.00  0.00    +0.000 A 
ENDROOT
BRANCH   5   7
ATOM      7  C   UNL     1       4.069   3.302  18.171  0.00  0.00    +0.000 C 
ATOM      8  C   UNL     1       2.787   2.578  17.705  0.00  0.00    +0.000 C 
ATOM      9  O   UNL     1       1.573   3.308  17.835  0.00  0.00    +0.000 OA
ATOM     10  C   UNL     1       1.130   3.758  19.111  0.00  0.00    +0.000 C 
ATOM     11  N   UNL     1       1.740   3.099  20.238  0.00  0.00    +0.000 N 
ATOM     12  C   UNL     1       1.060   2.617  21.318  0.00  0.00    +0.000 A 
ATOM     13  N   UNL     1       1.911   2.137  22.192  0.00  0.00    +0.000 NA
ATOM     14  N   UNL     1       3.173   2.345  21.695  0.00  0.00    +0.000 NA
ATOM     15  C   UNL     1       3.070   2.956  20.531  0.00  0.00    +0.000 A 
ATOM     16  C   UNL     1       4.212   3.435  19.704  0.00  0.00    +0.000 C 
ENDBRANCH   5   7
BRANCH   1  19
ATOM     17  C   UNL     1       2.103   8.521  17.856  0.00  0.00    +0.000 C 
ATOM     18  O   UNL     1       1.198   7.759  17.517  0.00  0.00    +0.000 OA
ATOM     19  N   UNL     1       3.463   8.258  17.776  0.00  0.00    +0.000 N 
ATOM     20  H   UNL     1       4.075   8.942  18.214  0.00  0.00    +0.000 HD
BRANCH  17  24
ATOM     21  C   UNL     1       2.565  13.458  18.082  0.00  0.00    +0.000 C 
ATOM     22  C   UNL     1       1.966  12.157  18.519  0.00  0.00    +0.000 A 
ATOM     23  C   UNL     1       2.350  10.968  17.960  0.00  0.00    +0.000 A 
ATOM     24  C   UNL     1       1.705   9.838  18.438  0.00  0.00    +0.000 A 
ATOM     25  N   UNL     1       0.735   9.851  19.380  0.00  0.00    +0.000 NA
ATOM     26  C   UNL     1       0.414  11.068  19.864  0.00  0.00    +0.000 A 
ATOM     27  N   UNL     1       1.010  12.218  19.457  0.00  0.00    +0.000 NA
BRANCH  26  28
ATOM     28  C   UNL     1      -0.676  11.226  20.894  0.00  0.00    +0.000 C 
ATOM     29  C   UNL     1      -0.589  12.198  22.044  0.00  0.00    +0.000 C 
ATOM     30  C   UNL     1      -0.393  10.733  22.298  0.00  0.00    +0.000 C 
ENDBRANCH  26  28
ENDBRANCH  17  24
ENDBRANCH   1  19
TORSDOF 4
ENDMDL
MODEL 3
REMARK VINA RESULT:      -8.6      5.275      6.937
REMARK  Name = 
REMARK  5 active torsions:
REMARK  status: ('A' for Active; 'I' for Inactive)
REMARK    1  A    between atoms: C_1  and  C_2
REMARK    2  A    between atoms: C_4  and  C_5
REMARK    3  A    between atoms: N_7  and  C_8
REMARK    4  A    between atoms: C_12  and  C_13
REMARK    5  A    between atoms: C_25  and  C_26
REMARK                            x       y       z     vdW  Elec       q    Type
REMARK                         _______ _______ _______ _____ _____    ______ ____
ROOT
ATOM      1  C   UNL     1       3.977   6.816  16.956  0.00  0.00    +0.000 A 
ATOM      2  C   UNL     1       5.035   6.803  16.044  0.00  0.00    +0.000 A 
ATOM      3  C   UNL     1       5.695   5.621  15.716  0.00  0.00    +0.000 A 
ATOM      4  C   UNL     1       5.344   4.440  16.350  0.00  0.00    +0.000 A 
ATOM      5  C   UNL     1       4.378   4.431  17.365  0.00  0.00    +0.000 A 
ATOM      6  C   UNL     1       3.675   5.628  17.644  0.00  0.00    +0.000 A 
ENDROOT
BRANCH   5   7
ATOM      7  C   UNL     1       4.170   3.182  18.225  0.00  0.00    +0.000 C 
ATOM      8  C   UNL     1       2.924   2.413  17.733  0.00  0.00    +0.000 C 
ATOM      9  O   UNL     1       1.702   3.139  17.732  0.00  0.00    +0.000 OA
ATOM     10  C   UNL     1       1.176   3.677  18.940  0.00  0.00    +0.000 C 
ATOM     11  N   UNL     1       1.716   3.110  20.150  0.00  0.00    +0.000 N 
ATOM     12  C   UNL     1       0.971   2.702  21.217  0.00  0.00    +0.000 A 
ATOM     13  N   UNL     1       1.766   2.296  22.177  0.00  0.00    +0.000 NA
ATOM     14  N   UNL     1       3.056   2.479  21.746  0.00  0.00    +0.000 NA
ATOM     15  C   UNL     1       3.025   3.001  20.536  0.00  0.00    +0.000 A 
ATOM     16  C   UNL     1       4.215   3.428  19.749  0.00  0.00    +0.000 C 
ENDBRANCH   5   7
BRANCH   1  19
ATOM     17  C   UNL     1       2.344   8.170  18.259  0.00  0.00    +0.000 C 
ATOM     18  O   UNL     1       2.123   7.358  19.157  0.00  0.00    +0.000 OA
ATOM     19  N   UNL     1       3.205   7.985  17.187  0.00  0.00    +0.000 N 
ATOM     20  H   UNL     1       3.369   8.801  16.602  0.00  0.00    +0.000 HD
BRANCH  17  24
ATOM     21  C   UNL     1       2.491  13.130  18.392  0.00  0.00    +0.000 C 
ATOM     22  C   UNL     1       1.766  11.819  18.416  0.00  0.00    +0.000 A 
ATOM     23  C   UNL     1       2.435  10.628  18.330  0.00  0.00    +0.000 A 
ATOM     24  C   UNL     1       1.647   9.488  18.343  0.00  0.00    +0.000 A 
ATOM     25  N   UNL     1       0.297   9.492  18.413  0.00  0.00    +0.000 NA
ATOM     26  C   UNL     1      -0.276  10.711  18.481  0.00  0.00    +0.000 A 
ATOM     27  N   UNL     1       0.428  11.872  18.489  0.00  0.00    +0.000 NA
BRANCH  26  28
ATOM     28  C   UNL     1      -1.776  10.857  18.528  0.00  0.00    +0.000 C 
ATOM     29  C   UNL     1      -2.716   9.959  17.763  0.00  0.00    +0.000 C 
ATOM     30  C   UNL     1      -2.474  11.358  17.281  0.00  0.00    +0.000 C 
ENDBRANCH  26  28
ENDBRANCH  17  24
ENDBRANCH   1  19
TORSDOF 4
ENDMDL
MODEL 4
REMARK VINA RESULT:      -8.3      5.083     10.288
REMARK  Name = 
REMARK  5 active torsions:
REMARK  status: ('A' for Active; 'I' for Inactive)
REMARK    1  A    between atoms: C_1  and  C_2
REMARK    2  A    between atoms: C_4  and  C_5
REMARK    3  A    between atoms: N_7  and  C_8
REMARK    4  A    between atoms: C_12  and  C_13
REMARK    5  A    between atoms: C_25  and  C_26
REMARK                            x       y       z     vdW  Elec       q    Type
REMARK                         _______ _______ _______ _____ _____    ______ ____
ROOT
ATOM      1  C   UNL     1       0.213  10.293  18.895  0.00  0.00    +0.000 A 
ATOM      2  C   UNL     1      -0.976  10.352  18.165  0.00  0.00    +0.000 A 
ATOM      3  C   UNL     1      -1.597  11.568  17.888  0.00  0.00    +0.000 A 
ATOM      4  C   UNL     1      -1.066  12.741  18.398  0.00  0.00    +0.000 A 
ATOM      5  C   UNL     1       0.050  12.715  19.244  0.00  0.00    +0.000 A 
ATOM      6  C   UNL     1       0.705  11.479  19.467  0.00  0.00    +0.000 A 
ENDROOT
BRANCH   5   7
ATOM      7  C   UNL     1       0.481  13.977  19.997  0.00  0.00    +0.000 C 
ATOM      8  C   UNL     1       1.115  14.981  19.010  0.00  0.00    +0.000 C 
ATOM      9  O   UNL     1       2.242  14.513  18.279  0.00  0.00    +0.000 OA
ATOM     10  C   UNL     1       3.419  14.085  18.956  0.00  0.00    +0.000 C 
ATOM     11  N   UNL     1       3.535  14.527  20.323  0.00  0.00    +0.000 N 
ATOM     12  C   UNL     1       4.660  15.070  20.871  0.00  0.00    +0.000 A 
ATOM     13  N   UNL     1       4.457  15.304  22.144  0.00  0.00    +0.000 NA
ATOM     14  N   UNL     1       3.191  14.870  22.446  0.00  0.00    +0.000 NA
ATOM     15  C   UNL     1       2.647  14.370  21.353  0.00  0.00    +0.000 A 
ATOM     16  C   UNL     1       1.311  13.718  21.275  0.00  0.00    +0.000 C 
ENDBRANCH   5   7
BRANCH   1  19
ATOM     17  C   UNL     1       1.926   8.623  18.207  0.00  0.00    +0.000 C 
ATOM     18  O   UNL     1       2.332   9.197  17.197  0.00  0.00    +0.000 OA
ATOM     19  N   UNL     1       0.929   9.078  19.058  0.00  0.00    +0.000 N 
ATOM     20  H   UNL     1       0.800   8.547  19.915  0.00  0.00    +0.000 HD
BRANCH  17  24
ATOM     21  C   UNL     1       5.498   5.249  17.498  0.00  0.00    +0.000 C 
ATOM     22  C   UNL     1       4.276   5.767  18.193  0.00  0.00    +0.000 A 
ATOM     23  C   UNL     1       3.700   6.956  17.837  0.00  0.00    +0.000 A 
ATOM     24  C   UNL     1       2.586   7.334  18.571  0.00  0.00    +0.000 A 
ATOM     25  N   UNL     1       2.070   6.622  19.599  0.00  0.00    +0.000 NA
ATOM     26  C   UNL     1       2.711   5.470  19.886  0.00  0.00    +0.000 A 
ATOM     27  N   UNL     1       3.798   5.027  19.203  0.00  0.00    +0.000 NA
BRANCH  26  28
ATOM     28  C   UNL     1       2.258   4.599  21.030  0.00  0.00    +0.000 C 
ATOM     29  C   UNL     1       2.551   3.122  21.108  0.00  0.00    +0.000 C 
ATOM     30  C   UNL     1       1.169   3.583  20.752  0.00  0.00    +0.000 C 
ENDBRANCH  26  28
ENDBRANCH  17  24
ENDBRANCH   1  19
TORSDOF 4
ENDMDL
MODEL 5
REMARK VINA RESULT:      -8.3      5.042      6.305
REMARK  Name = 
REMARK  5 active torsions:
REMARK  status: ('A' for Active; 'I' for Inactive)
REMARK    1  A    between atoms: C_1  and  C_2
REMARK    2  A    between atoms: C_4  and  C_5
REMARK    3  A    between atoms: N_7  and  C_8
REMARK    4  A    between atoms: C_12  and  C_13
REMARK    5  A    between atoms: C_25  and  C_26
REMARK                            x       y       z     vdW  Elec       q    Type
REMARK                         _______ _______ _______ _____ _____    ______ ____
ROOT
ATOM      1  C   UNL     1       4.083   6.988  17.120  0.00  0.00    +0.000 A 
ATOM      2  C   UNL     1       4.948   6.925  16.025  0.00  0.00    +0.000 A 
ATOM      3  C   UNL     1       5.409   5.705  15.535  0.00  0.00    +0.000 A 
ATOM      4  C   UNL     1       5.058   4.530  16.179  0.00  0.00    +0.000 A 
ATOM      5  C   UNL     1       4.300   4.556  17.357  0.00  0.00    +0.000 A 
ATOM      6  C   UNL     1       3.789   5.798  17.808  0.00  0.00    +0.000 A 
ENDROOT
BRANCH   5   7
ATOM      7  C   UNL     1       4.124   3.287  18.194  0.00  0.00    +0.000 C 
ATOM      8  C   UNL     1       2.880   2.511  17.707  0.00  0.00    +0.000 C 
ATOM      9  O   UNL     1       1.648   3.220  17.742  0.00  0.00    +0.000 OA
ATOM     10  C   UNL     1       1.136   3.726  18.970  0.00  0.00    +0.000 C 
ATOM     11  N   UNL     1       1.704   3.140  20.158  0.00  0.00    +0.000 N 
ATOM     12  C   UNL     1       0.983   2.700  21.230  0.00  0.00    +0.000 A 
ATOM     13  N   UNL     1       1.801   2.285  22.166  0.00  0.00    +0.000 NA
ATOM     14  N   UNL     1       3.081   2.495  21.718  0.00  0.00    +0.000 NA
ATOM     15  C   UNL     1       3.021   3.042  20.520  0.00  0.00    +0.000 A 
ATOM     16  C   UNL     1       4.192   3.502  19.722  0.00  0.00    +0.000 C 
ENDBRANCH   5   7
BRANCH   1  19
ATOM     17  C   UNL     1       2.134   8.412  17.732  0.00  0.00    +0.000 C 
ATOM     18  O   UNL     1       1.249   7.571  17.577  0.00  0.00    +0.000 OA
ATOM     19  N   UNL     1       3.493   8.211  17.535  0.00  0.00    +0.000 N 
ATOM     20  H   UNL     1       4.102   8.971  17.827  0.00  0.00    +0.000 HD
BRANCH  17  24
ATOM     21  C   UNL     1      -1.136  11.364  20.018  0.00  0.00    +0.000 C 
ATOM     22  C   UNL     1       0.142  11.117  19.278  0.00  0.00    +0.000 A 
ATOM     23  C   UNL     1       0.499   9.863  18.862  0.00  0.00    +0.000 A 
ATOM     24  C   UNL     1       1.716   9.765  18.206  0.00  0.00    +0.000 A 
ATOM     25  N   UNL     1       2.550  10.805  17.981  0.00  0.00    +0.000 NA
ATOM     26  C   UNL     1       2.121  12.000  18.437  0.00  0.00    +0.000 A 
ATOM     27  N   UNL     1       0.936  12.179  19.075  0.00  0.00    +0.000 NA
BRANCH  26  28
ATOM     28  C   UNL     1       2.971  13.235  18.280  0.00  0.00    +0.000 C 
ATOM     29  C   UNL     1       3.168  14.246  19.382  0.00  0.00    +0.000 C 
ATOM     30  C   UNL     1       2.265  14.575  18.231  0.00  0.00    +0.000 C 
ENDBRANCH  26  28
ENDBRANCH  17  24
ENDBRANCH   1  19
TORSDOF 4
ENDMDL
MODEL 6
REMARK VINA RESULT:      -8.1      5.394     10.507
REMARK  Name = 
REMARK  5 active torsions:
REMARK  status: ('A' for Active; 'I' for Inactive)
REMARK    1  A    between atoms: C_1  and  C_2
REMARK    2  A    between atoms: C_4  and  C_5
REMARK    3  A    between atoms: N_7  and  C_8
REMARK    4  A    between atoms: C_12  and  C_13
REMARK    5  A    between atoms: C_25  and  C_26
REMARK                            x       y       z     vdW  Elec       q    Type
REMARK                         _______ _______ _______ _____ _____    ______ ____
ROOT
ATOM      1  C   UNL     1       1.136   9.955  18.192  0.00  0.00    +0.000 A 
ATOM      2  C   UNL     1      -0.251  10.015  18.345  0.00  0.00    +0.000 A 
ATOM      3  C   UNL     1      -0.903  11.226  18.569  0.00  0.00    +0.000 A 
ATOM      4  C   UNL     1      -0.163  12.389  18.707  0.00  0.00    +0.000 A 
ATOM      5  C   UNL     1       1.237  12.354  18.692  0.00  0.00    +0.000 A 
ATOM      6  C   UNL     1       1.883  11.126  18.404  0.00  0.00    +0.000 A 
ENDROOT
BRANCH   5   7
ATOM      7  C   UNL     1       2.047  13.591  19.088  0.00  0.00    +0.000 C 
ATOM      8  C   UNL     1       2.574  13.427  20.531  0.00  0.00    +0.000 C 
ATOM      9  O   UNL     1       1.590  13.220  21.537  0.00  0.00    +0.000 OA
ATOM     10  C   UNL     1       0.577  14.193  21.772  0.00  0.00    +0.000 C 
ATOM     11  N   UNL     1       0.853  15.505  21.244  0.00  0.00    +0.000 N 
ATOM     12  C   UNL     1       0.689  16.671  21.933  0.00  0.00    +0.000 A 
ATOM     13  N   UNL     1       0.965  17.684  21.150  0.00  0.00    +0.000 NA
ATOM     14  N   UNL     1       1.276  17.177  19.914  0.00  0.00    +0.000 NA
ATOM     15  C   UNL     1       1.176  15.863  19.962  0.00  0.00    +0.000 A 
ATOM     16  C   UNL     1       1.351  14.940  18.806  0.00  0.00    +0.000 C 
ENDBRANCH   5   7
BRANCH   1  19
ATOM     17  C   UNL     1       2.214   7.770  18.705  0.00  0.00    +0.000 C 
ATOM     18  O   UNL     1       2.082   7.794  19.929  0.00  0.00    +0.000 OA
ATOM     19  N   UNL     1       1.794   8.752  17.820  0.00  0.00    +0.000 N 
ATOM     20  H   UNL     1       1.866   8.522  16.832  0.00  0.00    +0.000 HD
BRANCH  17  24
ATOM     21  C   UNL     1       5.988   5.629  16.293  0.00  0.00    +0.000 C 
ATOM     22  C   UNL     1       4.648   5.598  16.963  0.00  0.00    +0.000 A 
ATOM     23  C   UNL     1       4.090   6.725  17.502  0.00  0.00    +0.000 A 
ATOM     24  C   UNL     1       2.857   6.559  18.111  0.00  0.00    +0.000 A 
ATOM     25  N   UNL     1       2.207   5.378  18.215  0.00  0.00    +0.000 NA
ATOM     26  C   UNL     1       2.839   4.320  17.666  0.00  0.00    +0.000 A 
ATOM     27  N   UNL     1       4.040   4.405  17.040  0.00  0.00    +0.000 NA
BRANCH  26  28
ATOM     28  C   UNL     1       2.239   2.939  17.743  0.00  0.00    +0.000 C 
ATOM     29  C   UNL     1       1.084   2.591  18.648  0.00  0.00    +0.000 C 
ATOM     30  C   UNL     1       2.467   2.142  19.011  0.00  0.00    +0.000 C 
ENDBRANCH  26  28
ENDBRANCH  17  24
ENDBRANCH   1  19
TORSDOF 4
ENDMDL
MODEL 7
REMARK VINA RESULT:      -8.1      5.649     10.695
REMARK  Name = 
REMARK  5 active torsions:
REMARK  status: ('A' for Active; 'I' for Inactive)
REMARK    1  A    between atoms: C_1  and  C_2
REMARK    2  A    between atoms: C_4  and  C_5
REMARK    3  A    between atoms: N_7  and  C_8
REMARK    4  A    between atoms: C_12  and  C_13
REMARK    5  A    between atoms: C_25  and  C_26
REMARK                            x       y       z     vdW  Elec       q    Type
REMARK                         _______ _______ _______ _____ _____    ______ ____
ROOT
ATOM      1  C   UNL     1       0.736  10.253  19.072  0.00  0.00    +0.000 A 
ATOM      2  C   UNL     1      -0.637  10.420  18.875  0.00  0.00    +0.000 A 
ATOM      3  C   UNL     1      -1.184  11.671  18.599  0.00  0.00    +0.000 A 
ATOM      4  C   UNL     1      -0.365  12.789  18.581  0.00  0.00    +0.000 A 
ATOM      5  C   UNL     1       0.995  12.687  18.902  0.00  0.00    +0.000 A 
ATOM      6  C   UNL     1       1.547  11.400  19.121  0.00  0.00    +0.000 A 
ENDROOT
BRANCH   5   7
ATOM      7  C   UNL     1       1.836  13.947  19.120  0.00  0.00    +0.000 C 
ATOM      8  C   UNL     1       2.540  13.871  20.493  0.00  0.00    +0.000 C 
ATOM      9  O   UNL     1       1.691  13.723  21.624  0.00  0.00    +0.000 OA
ATOM     10  C   UNL     1       0.706  14.705  21.926  0.00  0.00    +0.000 C 
ATOM     11  N   UNL     1       0.901  15.984  21.291  0.00  0.00    +0.000 N 
ATOM     12  C   UNL     1       0.812  17.189  21.925  0.00  0.00    +0.000 A 
ATOM     13  N   UNL     1       0.978  18.154  21.055  0.00  0.00    +0.000 NA
ATOM     14  N   UNL     1       1.138  17.574  19.822  0.00  0.00    +0.000 NA
ATOM     15  C   UNL     1       1.058  16.265  19.960  0.00  0.00    +0.000 A 
ATOM     16  C   UNL     1       1.096  15.276  18.848  0.00  0.00    +0.000 C 
ENDBRANCH   5   7
BRANCH   1  19
ATOM     17  C   UNL     1       2.143   8.363  18.268  0.00  0.00    +0.000 C 
ATOM     18  O   UNL     1       2.485   8.848  17.189  0.00  0.00    +0.000 OA
ATOM     19  N   UNL     1       1.319   8.966  19.208  0.00  0.00    +0.000 N 
ATOM     20  H   UNL     1       1.236   8.485  20.100  0.00  0.00    +0.000 HD
BRANCH  17  24
ATOM     21  C   UNL     1       5.280   4.618  17.390  0.00  0.00    +0.000 C 
ATOM     22  C   UNL     1       4.172   5.274  18.156  0.00  0.00    +0.000 A 
ATOM     23  C   UNL     1       3.701   6.512  17.815  0.00  0.00    +0.000 A 
ATOM     24  C   UNL     1       2.687   7.017  18.615  0.00  0.00    +0.000 A 
ATOM     25  N   UNL     1       2.173   6.379  19.691  0.00  0.00    +0.000 NA
ATOM     26  C   UNL     1       2.708   5.170  19.958  0.00  0.00    +0.000 A 
ATOM     27  N   UNL     1       3.691   4.603  19.213  0.00  0.00    +0.000 NA
BRANCH  26  28
ATOM     28  C   UNL     1       2.247   4.370  21.150  0.00  0.00    +0.000 C 
ATOM     29  C   UNL     1       2.556   2.904  21.328  0.00  0.00    +0.000 C 
ATOM     30  C   UNL     1       1.175   3.324  20.923  0.00  0.00    +0.000 C 
ENDBRANCH  26  28
ENDBRANCH  17  24
ENDBRANCH   1  19
TORSDOF 4
ENDMDL
MODEL 8
REMARK VINA RESULT:      -8.0      5.448     10.147
REMARK  Name = 
REMARK  5 active torsions:
REMARK  status: ('A' for Active; 'I' for Inactive)
REMARK    1  A    between atoms: C_1  and  C_2
REMARK    2  A    between atoms: C_4  and  C_5
REMARK    3  A    between atoms: N_7  and  C_8
REMARK    4  A    between atoms: C_12  and  C_13
REMARK    5  A    between atoms: C_25  and  C_26
REMARK                            x       y       z     vdW  Elec       q    Type
REMARK                         _______ _______ _______ _____ _____    ______ ____
ROOT
ATOM      1  C   UNL     1       1.153   9.950  18.158  0.00  0.00    +0.000 A 
ATOM      2  C   UNL     1      -0.237   9.974  18.290  0.00  0.00    +0.000 A 
ATOM      3  C   UNL     1      -0.925  11.168  18.494  0.00  0.00    +0.000 A 
ATOM      4  C   UNL     1      -0.219  12.352  18.635  0.00  0.00    +0.000 A 
ATOM      5  C   UNL     1       1.182  12.354  18.641  0.00  0.00    +0.000 A 
ATOM      6  C   UNL     1       1.865  11.143  18.372  0.00  0.00    +0.000 A 
ENDROOT
BRANCH   5   7
ATOM      7  C   UNL     1       1.953  13.616  19.040  0.00  0.00    +0.000 C 
ATOM      8  C   UNL     1       2.539  13.440  20.459  0.00  0.00    +0.000 C 
ATOM      9  O   UNL     1       1.602  13.166  21.493  0.00  0.00    +0.000 OA
ATOM     10  C   UNL     1       0.558  14.087  21.790  0.00  0.00    +0.000 C 
ATOM     11  N   UNL     1       0.758  15.423  21.286  0.00  0.00    +0.000 N 
ATOM     12  C   UNL     1       0.569  16.563  22.010  0.00  0.00    +0.000 A 
ATOM     13  N   UNL     1       0.772  17.607  21.244  0.00  0.00    +0.000 NA
ATOM     14  N   UNL     1       1.059  17.143  19.985  0.00  0.00    +0.000 NA
ATOM     15  C   UNL     1       1.017  15.825  20.003  0.00  0.00    +0.000 A 
ATOM     16  C   UNL     1       1.189  14.940  18.818  0.00  0.00    +0.000 C 
ENDBRANCH   5   7
BRANCH   1  19
ATOM     17  C   UNL     1       2.249   7.781  18.700  0.00  0.00    +0.000 C 
ATOM     18  O   UNL     1       2.064   7.792  19.917  0.00  0.00    +0.000 OA
ATOM     19  N   UNL     1       1.849   8.763  17.806  0.00  0.00    +0.000 N 
ATOM     20  H   UNL     1       1.968   8.543  16.820  0.00  0.00    +0.000 HD
BRANCH  17  24
ATOM     21  C   UNL     1       2.312   2.938  17.611  0.00  0.00    +0.000 C 
ATOM     22  C   UNL     1       2.930   4.302  17.644  0.00  0.00    +0.000 A 
ATOM     23  C   UNL     1       2.267   5.377  18.173  0.00  0.00    +0.000 A 
ATOM     24  C   UNL     1       2.939   6.588  18.125  0.00  0.00    +0.000 A 
ATOM     25  N   UNL     1       4.166   6.761  17.582  0.00  0.00    +0.000 NA
ATOM     26  C   UNL     1       4.736   5.650  17.074  0.00  0.00    +0.000 A 
ATOM     27  N   UNL     1       4.148   4.426  17.097  0.00  0.00    +0.000 NA
BRANCH  26  28
ATOM     28  C   UNL     1       6.088   5.712  16.409  0.00  0.00    +0.000 C 
ATOM     29  C   UNL     1       7.169   4.686  16.642  0.00  0.00    +0.000 C 
ATOM     30  C   UNL     1       7.285   6.039  17.278  0.00  0.00    +0.000 C 
ENDBRANCH  26  28
ENDBRANCH  17  24
ENDBRANCH   1  19
TORSDOF 4
ENDMDL
MODEL 9
REMARK VINA RESULT:      -8.0      5.087     10.143
REMARK  Name = 
REMARK  5 active torsions:
REMARK  status: ('A' for Active; 'I' for Inactive)
REMARK    1  A    between atoms: C_1  and  C_2
REMARK    2  A    between atoms: C_4  and  C_5
REMARK    3  A    between atoms: N_7  and  C_8
REMARK    4  A    between atoms: C_12  and  C_13
REMARK    5  A    between atoms: C_25  and  C_26
REMARK                            x       y       z     vdW  Elec       q    Type
REMARK                         _______ _______ _______ _____ _____    ______ ____
ROOT
ATOM      1  C   UNL     1       0.194  10.296  18.891  0.00  0.00    +0.000 A 
ATOM      2  C   UNL     1      -1.015  10.347  18.193  0.00  0.00    +0.000 A 
ATOM      3  C   UNL     1      -1.658  11.558  17.945  0.00  0.00    +0.000 A 
ATOM      4  C   UNL     1      -1.127  12.733  18.452  0.00  0.00    +0.000 A 
ATOM      5  C   UNL     1       0.012  12.713  19.268  0.00  0.00    +0.000 A 
ATOM      6  C   UNL     1       0.687  11.482  19.460  0.00  0.00    +0.000 A 
ENDROOT
BRANCH   5   7
ATOM      7  C   UNL     1       0.448  13.972  20.021  0.00  0.00    +0.000 C 
ATOM      8  C   UNL     1       1.074  14.980  19.031  0.00  0.00    +0.000 C 
ATOM      9  O   UNL     1       2.195  14.515  18.290  0.00  0.00    +0.000 OA
ATOM     10  C   UNL     1       3.378  14.084  18.956  0.00  0.00    +0.000 C 
ATOM     11  N   UNL     1       3.505  14.523  20.323  0.00  0.00    +0.000 N 
ATOM     12  C   UNL     1       4.634  15.065  20.864  0.00  0.00    +0.000 A 
ATOM     13  N   UNL     1       4.441  15.296  22.140  0.00  0.00    +0.000 NA
ATOM     14  N   UNL     1       3.177  14.860  22.450  0.00  0.00    +0.000 NA
ATOM     15  C   UNL     1       2.625  14.363  21.360  0.00  0.00    +0.000 A 
ATOM     16  C   UNL     1       1.288  13.711  21.291  0.00  0.00    +0.000 C 
ENDBRANCH   5   7
BRANCH   1  19
ATOM     17  C   UNL     1       1.939   8.675  18.166  0.00  0.00    +0.000 C 
ATOM     18  O   UNL     1       2.344   9.287  17.177  0.00  0.00    +0.000 OA
ATOM     19  N   UNL     1       0.929   9.088  19.023  0.00  0.00    +0.000 N 
ATOM     20  H   UNL     1       0.801   8.529  19.862  0.00  0.00    +0.000 HD
BRANCH  17  24
ATOM     21  C   UNL     1       2.382   4.637  21.018  0.00  0.00    +0.000 C 
ATOM     22  C   UNL     1       2.797   5.509  19.873  0.00  0.00    +0.000 A 
ATOM     23  C   UNL     1       2.150   6.682  19.595  0.00  0.00    +0.000 A 
ATOM     24  C   UNL     1       2.618   7.386  18.496  0.00  0.00    +0.000 A 
ATOM     25  N   UNL     1       3.632   6.978  17.701  0.00  0.00    +0.000 NA
ATOM     26  C   UNL     1       4.202   5.805  18.045  0.00  0.00    +0.000 A 
ATOM     27  N   UNL     1       3.809   5.065  19.114  0.00  0.00    +0.000 NA
BRANCH  26  28
ATOM     28  C   UNL     1       5.321   5.220  17.221  0.00  0.00    +0.000 C 
ATOM     29  C   UNL     1       5.528   5.544  15.763  0.00  0.00    +0.000 C 
ATOM     30  C   UNL     1       4.955   4.214  16.150  0.00  0.00    +0.000 C 
ENDBRANCH  26  28
ENDBRANCH  17  24
ENDBRANCH   1  19
TORSDOF 4
ENDMDL
