MODEL 1
REMARK VINA RESULT:      -8.4      0.000      0.000
REMARK  Name = 
REMARK  5 active torsions:
REMARK  status: ('A' for Active; 'I' for Inactive)
REMARK    1  A    between atoms: C_1  and  C_2
REMARK    2  A    between atoms: C_5  and  C_6
REMARK    3  A    between atoms: C_10  and  C_11
REMARK    4  A    between atoms: N_16  and  C_17
REMARK    5  A    between atoms: C_17  and  C_18
REMARK                            x       y       z     vdW  Elec       q    Type
REMARK                         _______ _______ _______ _____ _____    ______ ____
ROOT
ATOM      1  C   UNL     1       0.106   9.039  20.966  0.00  0.00    +0.000 C 
ATOM      2  O   UNL     1      -0.461   8.525  21.935  0.00  0.00    +0.000 OA
ATOM      3  N   UNL     1       1.253   8.482  20.402  0.00  0.00    +0.000 N 
ATOM      4  C   UNL     1       1.847   7.290  21.005  0.00  0.00    +0.000 C 
ATOM      5  C   UNL     1       1.973   6.174  19.962  0.00  0.00    +0.000 C 
ATOM      6  N   UNL     1       2.610   6.604  18.713  0.00  0.00    +0.000 N 
ATOM      7  C   UNL     1       2.408   7.880  18.213  0.00  0.00    +0.000 C 
ATOM      8  O   UNL     1       2.718   8.206  17.067  0.00  0.00    +0.000 OA
ATOM      9  C   UNL     1       1.952   8.949  19.206  0.00  0.00    +0.000 C 
ENDROOT
BRANCH   1  14
ATOM     10  C   UNL     1      -1.938  11.367  18.725  0.00  0.00    +0.000 A 
ATOM     11  C   UNL     1      -1.855  12.549  19.473  0.00  0.00    +0.000 A 
ATOM     12  C   UNL     1      -1.082  12.605  20.635  0.00  0.00    +0.000 A 
ATOM     13  C   UNL     1      -0.431  11.459  21.093  0.00  0.00    +0.000 A 
ATOM     14  C   UNL     1      -0.527  10.258  20.379  0.00  0.00    +0.000 A 
ATOM     15  C   UNL     1      -1.208  10.246  19.155  0.00  0.00    +0.000 A 
BRANCH  10  20
ATOM     16  C   UNL     1      -3.227  10.162  14.248  0.00  0.00    +0.000 C 
ATOM     17  C   UNL     1      -3.389  10.745  15.591  0.00  0.00    +0.000 A 
ATOM     18  N   UNL     1      -4.450  11.291  16.146  0.00  0.00    +0.000 NA
ATOM     19  N   UNL     1      -4.077  11.646  17.427  0.00  0.00    +0.000 NA
ATOM     20  C   UNL     1      -2.812  11.304  17.560  0.00  0.00    +0.000 A 
ATOM     21  O   UNL     1      -2.304  10.718  16.425  0.00  0.00    +0.000 OA
ENDBRANCH  10  20
ENDBRANCH   1  14
BRANCH   6  22
ATOM     22  C   UNL     1       3.141   5.584  17.818  0.00  0.00    +0.000 C 
BRANCH  22  23
ATOM     23  C   UNL     1       4.651   5.590  17.794  0.00  0.00    +0.000 A 
ATOM     24  C   UNL     1       5.344   5.638  16.576  0.00  0.00    +0.000 A 
ATOM     25  C   UNL     1       6.738   5.635  16.543  0.00  0.00    +0.000 A 
ATOM     26  C   UNL     1       7.459   5.589  17.736  0.00  0.00    +0.000 A 
ATOM     27  C   UNL     1       6.780   5.565  18.948  0.00  0.00    +0.000 A 
ATOM     28  F   UNL     1       7.475   5.535  20.094  0.00  0.00    +0.000 F 
ATOM     29  C   UNL     1       5.387   5.571  18.989  0.00  0.00    +0.000 A 
ENDBRANCH  22  23
ENDBRANCH   6  22
TORSDOF 4
ENDMDL
MODEL 2
REMARK VINA RESULT:      -8.4      0.880      1.244
REMARK  Name = 
REMARK  5 active torsions:
REMARK  status: ('A' for Active; 'I' for Inactive)
REMARK    1  A    between atoms: C_1  and  C_2
REMARK    2  A    between atoms: C_5  and  C_6
REMARK    3  A    between atoms: C_10  and  C_11
REMARK    4  A    between atoms: N_16  and  C_17
REMARK    5  A    between atoms: C_17  and  C_18
REMARK                            x       y       z     vdW  Elec       q    Type
REMARK                         _______ _______ _______ _____ _____    ______ ____
ROOT
ATOM      1  C   UNL     1       0.179   8.982  20.955  0.00  0.00    +0.000 C 
ATOM      2  O   UNL     1      -0.396   8.500  21.936  0.00  0.00    +0.000 OA
ATOM      3  N   UNL     1       1.305   8.381  20.392  0.00  0.00    +0.000 N 
ATOM      4  C   UNL     1       1.866   7.181  21.009  0.00  0.00    +0.000 C 
ATOM      5  C   UNL     1       1.951   6.046  19.982  0.00  0.00    +0.000 C 
ATOM      6  N   UNL     1       2.591   6.438  18.723  0.00  0.00    +0.000 N 
ATOM      7  C   UNL     1       2.425   7.712  18.205  0.00  0.00    +0.000 C 
ATOM      8  O   UNL     1       2.736   8.011  17.051  0.00  0.00    +0.000 OA
ATOM      9  C   UNL     1       2.009   8.809  19.184  0.00  0.00    +0.000 C 
ENDROOT
BRANCH   1  14
ATOM     10  C   UNL     1      -1.811  11.337  18.695  0.00  0.00    +0.000 A 
ATOM     11  C   UNL     1      -1.684  12.527  19.423  0.00  0.00    +0.000 A 
ATOM     12  C   UNL     1      -0.900  12.578  20.577  0.00  0.00    +0.000 A 
ATOM     13  C   UNL     1      -0.281  11.419  21.048  0.00  0.00    +0.000 A 
ATOM     14  C   UNL     1      -0.420  10.211  20.354  0.00  0.00    +0.000 A 
ATOM     15  C   UNL     1      -1.113  10.201  19.136  0.00  0.00    +0.000 A 
BRANCH  10  20
ATOM     16  C   UNL     1      -3.184  10.093  14.253  0.00  0.00    +0.000 C 
ATOM     17  C   UNL     1      -3.312  10.707  15.586  0.00  0.00    +0.000 A 
ATOM     18  N   UNL     1      -4.347  11.302  16.139  0.00  0.00    +0.000 NA
ATOM     19  N   UNL     1      -3.951  11.669  17.410  0.00  0.00    +0.000 NA
ATOM     20  C   UNL     1      -2.697  11.283  17.539  0.00  0.00    +0.000 A 
ATOM     21  O   UNL     1      -2.221  10.658  16.411  0.00  0.00    +0.000 OA
ENDBRANCH  10  20
ENDBRANCH   1  14
BRANCH   6  22
ATOM     22  C   UNL     1       3.084   5.388  17.839  0.00  0.00    +0.000 C 
BRANCH  22  23
ATOM     23  C   UNL     1       4.587   5.263  17.904  0.00  0.00    +0.000 A 
ATOM     24  C   UNL     1       5.269   5.478  19.111  0.00  0.00    +0.000 A 
ATOM     25  C   UNL     1       6.658   5.373  19.178  0.00  0.00    +0.000 A 
ATOM     26  C   UNL     1       7.385   5.044  18.034  0.00  0.00    +0.000 A 
ATOM     27  C   UNL     1       6.715   4.806  16.840  0.00  0.00    +0.000 A 
ATOM     28  F   UNL     1       7.414   4.476  15.745  0.00  0.00    +0.000 F 
ATOM     29  C   UNL     1       5.327   4.906  16.766  0.00  0.00    +0.000 A 
ENDBRANCH  22  23
ENDBRANCH   6  22
TORSDOF 4
ENDMDL
MODEL 3
REMARK VINA RESULT:      -8.4      1.656      2.297
REMARK  Name = 
REMARK  5 active torsions:
REMARK  status: ('A' for Active; 'I' for Inactive)
REMARK    1  A    between atoms: C_1  and  C_2
REMARK    2  A    between atoms: C_5  and  C_6
REMARK    3  A    between atoms: C_10  and  C_11
REMARK    4  A    between atoms: N_16  and  C_17
REMARK    5  A    between atoms: C_17  and  C_18
REMARK                            x       y       z     vdW  Elec       q    Type
REMARK                         _______ _______ _______ _____ _____    ______ ____
ROOT
ATOM      1  C   UNL     1       0.037   9.167  20.954  0.00  0.00    +0.000 C 
ATOM      2  O   UNL     1      -0.485   8.627  21.933  0.00  0.00    +0.000 OA
ATOM      3  N   UNL     1       1.216   8.685  20.387  0.00  0.00    +0.000 N 
ATOM      4  C   UNL     1       1.895   7.544  20.998  0.00  0.00    +0.000 C 
ATOM      5  C   UNL     1       2.092   6.427  19.967  0.00  0.00    +0.000 C 
ATOM      6  N   UNL     1       2.687   6.886  18.708  0.00  0.00    +0.000 N 
ATOM      7  C   UNL     1       2.394   8.139  18.195  0.00  0.00    +0.000 C 
ATOM      8  O   UNL     1       2.672   8.473  17.042  0.00  0.00    +0.000 OA
ATOM      9  C   UNL     1       1.872   9.185  19.180  0.00  0.00    +0.000 C 
ENDROOT
BRANCH   1  14
ATOM     10  C   UNL     1      -2.105  11.340  18.649  0.00  0.00    +0.000 A 
ATOM     11  C   UNL     1      -2.187  12.502  19.428  0.00  0.00    +0.000 A 
ATOM     12  C   UNL     1      -1.493  12.602  20.634  0.00  0.00    +0.000 A 
ATOM     13  C   UNL     1      -0.754  11.516  21.104  0.00  0.00    +0.000 A 
ATOM     14  C   UNL     1      -0.684  10.333  20.358  0.00  0.00    +0.000 A 
ATOM     15  C   UNL     1      -1.289  10.287  19.095  0.00  0.00    +0.000 A 
BRANCH  10  20
ATOM     16  C   UNL     1      -3.059  10.005  14.125  0.00  0.00    +0.000 C 
ATOM     17  C   UNL     1      -3.328  10.606  15.442  0.00  0.00    +0.000 A 
ATOM     18  N   UNL     1      -4.441  11.122  15.918  0.00  0.00    +0.000 NA
ATOM     19  N   UNL     1      -4.165  11.514  17.212  0.00  0.00    +0.000 NA
ATOM     20  C   UNL     1      -2.899  11.222  17.432  0.00  0.00    +0.000 A 
ATOM     21  O   UNL     1      -2.298  10.636  16.344  0.00  0.00    +0.000 OA
ENDBRANCH  10  20
ENDBRANCH   1  14
BRANCH   6  22
ATOM     22  C   UNL     1       3.281   5.894  17.820  0.00  0.00    +0.000 C 
BRANCH  22  23
ATOM     23  C   UNL     1       2.988   4.486  18.278  0.00  0.00    +0.000 A 
ATOM     24  C   UNL     1       1.753   3.886  17.989  0.00  0.00    +0.000 A 
ATOM     25  C   UNL     1       1.470   2.588  18.414  0.00  0.00    +0.000 A 
ATOM     26  C   UNL     1       2.425   1.871  19.134  0.00  0.00    +0.000 A 
ATOM     27  C   UNL     1       3.659   2.449  19.403  0.00  0.00    +0.000 A 
ATOM     28  F   UNL     1       4.581   1.752  20.082  0.00  0.00    +0.000 F 
ATOM     29  C   UNL     1       3.951   3.743  18.978  0.00  0.00    +0.000 A 
ENDBRANCH  22  23
ENDBRANCH   6  22
TORSDOF 4
ENDMDL
MODEL 4
REMARK VINA RESULT:      -8.3      2.122      2.698
REMARK  Name = 
REMARK  5 active torsions:
REMARK  status: ('A' for Active; 'I' for Inactive)
REMARK    1  A    between atoms: C_1  and  C_2
REMARK    2  A    between atoms: C_5  and  C_6
REMARK    3  A    between atoms: C_10  and  C_11
REMARK    4  A    between atoms: N_16  and  C_17
REMARK    5  A    between atoms: C_17  and  C_18
REMARK                            x       y       z     vdW  Elec       q    Type
REMARK                         _______ _______ _______ _____ _____    ______ ____
ROOT
ATOM      1  C   UNL     1      -0.054   9.332  21.176  0.00  0.00    +0.000 C 
ATOM      2  O   UNL     1      -0.534   8.794  22.179  0.00  0.00    +0.000 OA
ATOM      3  N   UNL     1       1.108   8.855  20.569  0.00  0.00    +0.000 N 
ATOM      4  C   UNL     1       1.820   7.725  21.164  0.00  0.00    +0.000 C 
ATOM      5  C   UNL     1       1.988   6.602  20.135  0.00  0.00    +0.000 C 
ATOM      6  N   UNL     1       2.532   7.056  18.851  0.00  0.00    +0.000 N 
ATOM      7  C   UNL     1       2.208   8.302  18.340  0.00  0.00    +0.000 C 
ATOM      8  O   UNL     1       2.440   8.628  17.175  0.00  0.00    +0.000 OA
ATOM      9  C   UNL     1       1.714   9.351  19.335  0.00  0.00    +0.000 C 
ENDROOT
BRANCH   1  14
ATOM     10  C   UNL     1      -2.222  11.490  18.883  0.00  0.00    +0.000 A 
ATOM     11  C   UNL     1      -2.375  12.620  19.697  0.00  0.00    +0.000 A 
ATOM     12  C   UNL     1      -1.719  12.708  20.926  0.00  0.00    +0.000 A 
ATOM     13  C   UNL     1      -0.948  11.638  21.381  0.00  0.00    +0.000 A 
ATOM     14  C   UNL     1      -0.806  10.485  20.599  0.00  0.00    +0.000 A 
ATOM     15  C   UNL     1      -1.374  10.458  19.318  0.00  0.00    +0.000 A 
BRANCH  10  20
ATOM     16  C   UNL     1      -3.054  10.135  14.341  0.00  0.00    +0.000 C 
ATOM     17  C   UNL     1      -3.353  10.756  15.643  0.00  0.00    +0.000 A 
ATOM     18  N   UNL     1      -4.467  11.306  16.074  0.00  0.00    +0.000 NA
ATOM     19  N   UNL     1      -4.226  11.704  17.374  0.00  0.00    +0.000 NA
ATOM     20  C   UNL     1      -2.977  11.381  17.641  0.00  0.00    +0.000 A 
ATOM     21  O   UNL     1      -2.355  10.768  16.579  0.00  0.00    +0.000 OA
ENDBRANCH  10  20
ENDBRANCH   1  14
BRANCH   6  22
ATOM     22  C   UNL     1       3.102   6.062  17.949  0.00  0.00    +0.000 C 
BRANCH  22  23
ATOM     23  C   UNL     1       2.836   4.654  18.427  0.00  0.00    +0.000 A 
ATOM     24  C   UNL     1       3.836   3.925  19.086  0.00  0.00    +0.000 A 
ATOM     25  C   UNL     1       3.603   2.622  19.524  0.00  0.00    +0.000 A 
ATOM     26  C   UNL     1       2.358   2.031  19.308  0.00  0.00    +0.000 A 
ATOM     27  C   UNL     1       1.354   2.755  18.676  0.00  0.00    +0.000 A 
ATOM     28  F   UNL     1       0.154   2.191  18.483  0.00  0.00    +0.000 F 
ATOM     29  C   UNL     1       1.579   4.059  18.241  0.00  0.00    +0.000 A 
ENDBRANCH  22  23
ENDBRANCH   6  22
TORSDOF 4
ENDMDL
MODEL 5
REMARK VINA RESULT:      -8.1      3.521      5.292
REMARK  Name = 
REMARK  5 active torsions:
REMARK  status: ('A' for Active; 'I' for Inactive)
REMARK    1  A    between atoms: C_1  and  C_2
REMARK    2  A    between atoms: C_5  and  C_6
REMARK    3  A    between atoms: C_10  and  C_11
REMARK    4  A    between atoms: N_16  and  C_17
REMARK    5  A    between atoms: C_17  and  C_18
REMARK                            x       y       z     vdW  Elec       q    Type
REMARK                         _______ _______ _______ _____ _____    ______ ____
ROOT
ATOM      1  C   UNL     1      -0.696  11.941  19.449  0.00  0.00    +0.000 C 
ATOM      2  O   UNL     1      -0.677  12.594  18.401  0.00  0.00    +0.000 OA
ATOM      3  N   UNL     1      -0.343  10.592  19.483  0.00  0.00    +0.000 N 
ATOM      4  C   UNL     1      -0.000   9.905  18.239  0.00  0.00    +0.000 C 
ATOM      5  C   UNL     1       1.388   9.266  18.350  0.00  0.00    +0.000 C 
ATOM      6  N   UNL     1       1.570   8.458  19.561  0.00  0.00    +0.000 N 
ATOM      7  C   UNL     1       0.973   8.822  20.757  0.00  0.00    +0.000 C 
ATOM      8  O   UNL     1       1.283   8.322  21.839  0.00  0.00    +0.000 OA
ATOM      9  C   UNL     1      -0.241   9.747  20.672  0.00  0.00    +0.000 C 
ENDROOT
BRANCH   1  14
ATOM     10  C   UNL     1      -2.540  13.116  22.586  0.00  0.00    +0.000 A 
ATOM     11  C   UNL     1      -1.549  13.930  23.151  0.00  0.00    +0.000 A 
ATOM     12  C   UNL     1      -0.344  14.155  22.484  0.00  0.00    +0.000 A 
ATOM     13  C   UNL     1      -0.093  13.518  21.269  0.00  0.00    +0.000 A 
ATOM     14  C   UNL     1      -1.055  12.675  20.700  0.00  0.00    +0.000 A 
ATOM     15  C   UNL     1      -2.304  12.550  21.322  0.00  0.00    +0.000 A 
BRANCH  10  20
ATOM     16  C   UNL     1      -7.246  13.303  23.574  0.00  0.00    +0.000 C 
ATOM     17  C   UNL     1      -5.843  12.890  23.749  0.00  0.00    +0.000 A 
ATOM     18  N   UNL     1      -5.321  12.033  24.600  0.00  0.00    +0.000 NA
ATOM     19  N   UNL     1      -3.969  11.987  24.324  0.00  0.00    +0.000 NA
ATOM     20  C   UNL     1      -3.758  12.828  23.332  0.00  0.00    +0.000 A 
ATOM     21  O   UNL     1      -4.914  13.442  22.910  0.00  0.00    +0.000 OA
ENDBRANCH  10  20
ENDBRANCH   1  14
BRANCH   6  22
ATOM     22  C   UNL     1       2.666   7.498  19.596  0.00  0.00    +0.000 C 
BRANCH  22  23
ATOM     23  C   UNL     1       2.176   6.081  19.416  0.00  0.00    +0.000 A 
ATOM     24  C   UNL     1       1.566   5.399  20.479  0.00  0.00    +0.000 A 
ATOM     25  C   UNL     1       1.117   4.087  20.325  0.00  0.00    +0.000 A 
ATOM     26  C   UNL     1       1.271   3.441  19.099  0.00  0.00    +0.000 A 
ATOM     27  C   UNL     1       1.853   4.119  18.035  0.00  0.00    +0.000 A 
ATOM     28  F   UNL     1       1.986   3.501  16.852  0.00  0.00    +0.000 F 
ATOM     29  C   UNL     1       2.299   5.430  18.179  0.00  0.00    +0.000 A 
ENDBRANCH  22  23
ENDBRANCH   6  22
TORSDOF 4
ENDMDL
MODEL 6
REMARK VINA RESULT:      -8.1      3.333      4.792
REMARK  Name = 
REMARK  5 active torsions:
REMARK  status: ('A' for Active; 'I' for Inactive)
REMARK    1  A    between atoms: C_1  and  C_2
REMARK    2  A    between atoms: C_5  and  C_6
REMARK    3  A    between atoms: C_10  and  C_11
REMARK    4  A    between atoms: N_16  and  C_17
REMARK    5  A    between atoms: C_17  and  C_18
REMARK                            x       y       z     vdW  Elec       q    Type
REMARK                         _______ _______ _______ _____ _____    ______ ____
ROOT
ATOM      1  C   UNL     1      -0.347  11.778  19.232  0.00  0.00    +0.000 C 
ATOM      2  O   UNL     1      -0.126  12.474  18.236  0.00  0.00    +0.000 OA
ATOM      3  N   UNL     1      -0.066  10.412  19.254  0.00  0.00    +0.000 N 
ATOM      4  C   UNL     1       0.445   9.762  18.049  0.00  0.00    +0.000 C 
ATOM      5  C   UNL     1       1.766   9.046  18.351  0.00  0.00    +0.000 C 
ATOM      6  N   UNL     1       1.708   8.178  19.531  0.00  0.00    +0.000 N 
ATOM      7  C   UNL     1       0.940   8.521  20.632  0.00  0.00    +0.000 C 
ATOM      8  O   UNL     1       1.045   7.959  21.723  0.00  0.00    +0.000 OA
ATOM      9  C   UNL     1      -0.200   9.512  20.399  0.00  0.00    +0.000 C 
ENDROOT
BRANCH   1  14
ATOM     10  C   UNL     1      -2.668  13.016  22.007  0.00  0.00    +0.000 A 
ATOM     11  C   UNL     1      -1.728  13.629  22.846  0.00  0.00    +0.000 A 
ATOM     12  C   UNL     1      -0.385  13.709  22.474  0.00  0.00    +0.000 A 
ATOM     13  C   UNL     1       0.043  13.122  21.283  0.00  0.00    +0.000 A 
ATOM     14  C   UNL     1      -0.873  12.476  20.444  0.00  0.00    +0.000 A 
ATOM     15  C   UNL     1      -2.235  12.505  20.772  0.00  0.00    +0.000 A 
BRANCH  10  20
ATOM     16  C   UNL     1      -7.431  12.571  21.485  0.00  0.00    +0.000 C 
ATOM     17  C   UNL     1      -6.152  12.647  22.211  0.00  0.00    +0.000 A 
ATOM     18  N   UNL     1      -5.905  12.492  23.494  0.00  0.00    +0.000 NA
ATOM     19  N   UNL     1      -4.540  12.630  23.646  0.00  0.00    +0.000 NA
ATOM     20  C   UNL     1      -4.050  12.872  22.447  0.00  0.00    +0.000 A 
ATOM     21  O   UNL     1      -5.024  12.895  21.477  0.00  0.00    +0.000 OA
ENDBRANCH  10  20
ENDBRANCH   1  14
BRANCH   6  22
ATOM     22  C   UNL     1       2.739   7.160  19.695  0.00  0.00    +0.000 C 
BRANCH  22  23
ATOM     23  C   UNL     1       2.212   5.777  19.399  0.00  0.00    +0.000 A 
ATOM     24  C   UNL     1       2.176   5.294  18.083  0.00  0.00    +0.000 A 
ATOM     25  C   UNL     1       1.683   4.021  17.799  0.00  0.00    +0.000 A 
ATOM     26  C   UNL     1       1.221   3.210  18.835  0.00  0.00    +0.000 A 
ATOM     27  C   UNL     1       1.275   3.671  20.145  0.00  0.00    +0.000 A 
ATOM     28  F   UNL     1       0.844   2.884  21.141  0.00  0.00    +0.000 F 
ATOM     29  C   UNL     1       1.770   4.940  20.436  0.00  0.00    +0.000 A 
ENDBRANCH  22  23
ENDBRANCH   6  22
TORSDOF 4
ENDMDL
MODEL 7
REMARK VINA RESULT:      -8.1      3.456      8.879
REMARK  Name = 
REMARK  5 active torsions:
REMARK  status: ('A' for Active; 'I' for Inactive)
REMARK    1  A    between atoms: C_1  and  C_2
REMARK    2  A    between atoms: C_5  and  C_6
REMARK    3  A    between atoms: C_10  and  C_11
REMARK    4  A    between atoms: N_16  and  C_17
REMARK    5  A    between atoms: C_17  and  C_18
REMARK                            x       y       z     vdW  Elec       q    Type
REMARK                         _______ _______ _______ _____ _____    ______ ____
ROOT
ATOM      1  C   UNL     1       3.769   5.339  19.315  0.00  0.00    +0.000 C 
ATOM      2  O   UNL     1       3.543   4.562  20.247  0.00  0.00    +0.000 OA
ATOM      3  N   UNL     1       2.851   6.315  18.930  0.00  0.00    +0.000 N 
ATOM      4  C   UNL     1       1.555   6.391  19.603  0.00  0.00    +0.000 C 
ATOM      5  C   UNL     1       1.334   7.796  20.175  0.00  0.00    +0.000 C 
ATOM      6  N   UNL     1       1.580   8.870  19.208  0.00  0.00    +0.000 N 
ATOM      7  C   UNL     1       2.577   8.755  18.252  0.00  0.00    +0.000 C 
ATOM      8  O   UNL     1       2.978   9.710  17.585  0.00  0.00    +0.000 OA
ATOM      9  C   UNL     1       3.046   7.342  17.908  0.00  0.00    +0.000 C 
ENDROOT
BRANCH   1  14
ATOM     10  C   UNL     1       6.502   4.917  16.674  0.00  0.00    +0.000 A 
ATOM     11  C   UNL     1       7.624   5.262  17.438  0.00  0.00    +0.000 A 
ATOM     12  C   UNL     1       7.501   5.544  18.799  0.00  0.00    +0.000 A 
ATOM     13  C   UNL     1       6.242   5.541  19.399  0.00  0.00    +0.000 A 
ATOM     14  C   UNL     1       5.101   5.230  18.648  0.00  0.00    +0.000 A 
ATOM     15  C   UNL     1       5.253   4.836  17.312  0.00  0.00    +0.000 A 
BRANCH  10  20
ATOM     16  C   UNL     1       5.274   3.226  12.339  0.00  0.00    +0.000 C 
ATOM     17  C   UNL     1       6.075   3.978  13.319  0.00  0.00    +0.000 A 
ATOM     18  N   UNL     1       7.106   4.773  13.127  0.00  0.00    +0.000 NA
ATOM     19  N   UNL     1       7.465   5.251  14.372  0.00  0.00    +0.000 NA
ATOM     20  C   UNL     1       6.637   4.704  15.238  0.00  0.00    +0.000 A 
ATOM     21  O   UNL     1       5.717   3.878  14.636  0.00  0.00    +0.000 OA
ENDBRANCH  10  20
ENDBRANCH   1  14
BRANCH   6  22
ATOM     22  C   UNL     1       1.038  10.194  19.489  0.00  0.00    +0.000 C 
BRANCH  22  23
ATOM     23  C   UNL     1      -0.321  10.388  18.860  0.00  0.00    +0.000 A 
ATOM     24  C   UNL     1      -1.265  11.240  19.451  0.00  0.00    +0.000 A 
ATOM     25  C   UNL     1      -2.525  11.419  18.882  0.00  0.00    +0.000 A 
ATOM     26  C   UNL     1      -2.857  10.747  17.706  0.00  0.00    +0.000 A 
ATOM     27  C   UNL     1      -1.919   9.919  17.101  0.00  0.00    +0.000 A 
ATOM     28  F   UNL     1      -2.234   9.285  15.963  0.00  0.00    +0.000 F 
ATOM     29  C   UNL     1      -0.656   9.738  17.661  0.00  0.00    +0.000 A 
ENDBRANCH  22  23
ENDBRANCH   6  22
TORSDOF 4
ENDMDL
MODEL 8
REMARK VINA RESULT:      -8.0      1.125      1.298
REMARK  Name = 
REMARK  5 active torsions:
REMARK  status: ('A' for Active; 'I' for Inactive)
REMARK    1  A    between atoms: C_1  and  C_2
REMARK    2  A    between atoms: C_5  and  C_6
REMARK    3  A    between atoms: C_10  and  C_11
REMARK    4  A    between atoms: N_16  and  C_17
REMARK    5  A    between atoms: C_17  and  C_18
REMARK                            x       y       z     vdW  Elec       q    Type
REMARK                         _______ _______ _______ _____ _____    ______ ____
ROOT
ATOM      1  C   UNL     1       0.269   8.979  20.770  0.00  0.00    +0.000 C 
ATOM      2  O   UNL     1      -0.358   8.522  21.730  0.00  0.00    +0.000 OA
ATOM      3  N   UNL     1       1.388   8.333  20.246  0.00  0.00    +0.000 N 
ATOM      4  C   UNL     1       1.879   7.112  20.882  0.00  0.00    +0.000 C 
ATOM      5  C   UNL     1       1.953   5.973  19.858  0.00  0.00    +0.000 C 
ATOM      6  N   UNL     1       2.652   6.338  18.622  0.00  0.00    +0.000 N 
ATOM      7  C   UNL     1       2.555   7.617  18.099  0.00  0.00    +0.000 C 
ATOM      8  O   UNL     1       2.918   7.902  16.956  0.00  0.00    +0.000 OA
ATOM      9  C   UNL     1       2.150   8.731  19.063  0.00  0.00    +0.000 C 
ENDROOT
BRANCH   1  14
ATOM     10  C   UNL     1      -1.852  11.428  18.740  0.00  0.00    +0.000 A 
ATOM     11  C   UNL     1      -1.325  12.640  19.205  0.00  0.00    +0.000 A 
ATOM     12  C   UNL     1      -0.249  12.655  20.094  0.00  0.00    +0.000 A 
ATOM     13  C   UNL     1       0.273  11.454  20.575  0.00  0.00    +0.000 A 
ATOM     14  C   UNL     1      -0.259  10.231  20.149  0.00  0.00    +0.000 A 
ATOM     15  C   UNL     1      -1.261  10.229  19.169  0.00  0.00    +0.000 A 
BRANCH  10  20
ATOM     16  C   UNL     1      -6.444  12.242  17.552  0.00  0.00    +0.000 C 
ATOM     17  C   UNL     1      -5.049  11.818  17.345  0.00  0.00    +0.000 A 
ATOM     18  N   UNL     1      -4.450  11.411  16.247  0.00  0.00    +0.000 NA
ATOM     19  N   UNL     1      -3.135  11.167  16.589  0.00  0.00    +0.000 NA
ATOM     20  C   UNL     1      -3.026  11.430  17.876  0.00  0.00    +0.000 A 
ATOM     21  O   UNL     1      -4.212  11.854  18.427  0.00  0.00    +0.000 OA
ENDBRANCH  10  20
ENDBRANCH   1  14
BRANCH   6  22
ATOM     22  C   UNL     1       3.132   5.268  17.756  0.00  0.00    +0.000 C 
BRANCH  22  23
ATOM     23  C   UNL     1       4.639   5.171  17.769  0.00  0.00    +0.000 A 
ATOM     24  C   UNL     1       5.338   4.789  16.615  0.00  0.00    +0.000 A 
ATOM     25  C   UNL     1       6.729   4.688  16.620  0.00  0.00    +0.000 A 
ATOM     26  C   UNL     1       7.441   4.973  17.785  0.00  0.00    +0.000 A 
ATOM     27  C   UNL     1       6.757   5.375  18.926  0.00  0.00    +0.000 A 
ATOM     28  F   UNL     1       7.444   5.663  20.040  0.00  0.00    +0.000 F 
ATOM     29  C   UNL     1       5.368   5.482  18.927  0.00  0.00    +0.000 A 
ENDBRANCH  22  23
ENDBRANCH   6  22
TORSDOF 4
ENDMDL
MODEL 9
REMARK VINA RESULT:      -8.0      3.866      5.605
REMARK  Name = 
REMARK  5 active torsions:
REMARK  status: ('A' for Active; 'I' for Inactive)
REMARK    1  A    between atoms: C_1  and  C_2
REMARK    2  A    between atoms: C_5  and  C_6
REMARK    3  A    between atoms: C_10  and  C_11
REMARK    4  A    between atoms: N_16  and  C_17
REMARK    5  A    between atoms: C_17  and  C_18
REMARK                            x       y       z     vdW  Elec       q    Type
REMARK                         _______ _______ _______ _____ _____    ______ ____
ROOT
ATOM      1  C   UNL     1       3.019   5.704  19.204  0.00  0.00    +0.000 C 
ATOM      2  O   UNL     1       2.335   4.705  19.446  0.00  0.00    +0.000 OA
ATOM      3  N   UNL     1       4.379   5.612  18.908  0.00  0.00    +0.000 N 
ATOM      4  C   UNL     1       5.038   4.307  18.945  0.00  0.00    +0.000 C 
ATOM      5  C   UNL     1       5.724   4.021  17.605  0.00  0.00    +0.000 C 
ATOM      6  N   UNL     1       6.575   5.118  17.132  0.00  0.00    +0.000 N 
ATOM      7  C   UNL     1       6.229   6.439  17.366  0.00  0.00    +0.000 C 
ATOM      8  O   UNL     1       6.772   7.384  16.791  0.00  0.00    +0.000 OA
ATOM      9  C   UNL     1       5.264   6.709  18.519  0.00  0.00    +0.000 C 
ENDROOT
BRANCH   1  14
ATOM     10  C   UNL     1       1.164   8.867  20.285  0.00  0.00    +0.000 A 
ATOM     11  C   UNL     1       1.204   9.587  19.084  0.00  0.00    +0.000 A 
ATOM     12  C   UNL     1       1.748   9.020  17.930  0.00  0.00    +0.000 A 
ATOM     13  C   UNL     1       2.313   7.746  17.981  0.00  0.00    +0.000 A 
ATOM     14  C   UNL     1       2.313   7.020  19.179  0.00  0.00    +0.000 A 
ATOM     15  C   UNL     1       1.661   7.554  20.298  0.00  0.00    +0.000 A 
BRANCH  10  20
ATOM     16  C   UNL     1      -1.779  11.607  22.930  0.00  0.00    +0.000 C 
ATOM     17  C   UNL     1      -0.654  10.693  22.668  0.00  0.00    +0.000 A 
ATOM     18  N   UNL     1       0.165  10.106  23.515  0.00  0.00    +0.000 NA
ATOM     19  N   UNL     1       1.016   9.328  22.756  0.00  0.00    +0.000 NA
ATOM     20  C   UNL     1       0.666   9.504  21.498  0.00  0.00    +0.000 A 
ATOM     21  O   UNL     1      -0.398  10.364  21.365  0.00  0.00    +0.000 OA
ENDBRANCH  10  20
ENDBRANCH   1  14
BRANCH   6  22
ATOM     22  C   UNL     1       7.570   4.832  16.106  0.00  0.00    +0.000 C 
BRANCH  22  23
ATOM     23  C   UNL     1       6.928   4.513  14.777  0.00  0.00    +0.000 A 
ATOM     24  C   UNL     1       5.687   3.862  14.724  0.00  0.00    +0.000 A 
ATOM     25  C   UNL     1       5.090   3.556  13.501  0.00  0.00    +0.000 A 
ATOM     26  C   UNL     1       5.730   3.903  12.311  0.00  0.00    +0.000 A 
ATOM     27  C   UNL     1       6.949   4.568  12.356  0.00  0.00    +0.000 A 
ATOM     28  F   UNL     1       7.556   4.914  11.212  0.00  0.00    +0.000 F 
ATOM     29  C   UNL     1       7.549   4.881  13.574  0.00  0.00    +0.000 A 
ENDBRANCH  22  23
ENDBRANCH   6  22
TORSDOF 4
ENDMDL
