MODEL 1
REMARK VINA RESULT:      -8.6      0.000      0.000
REMARK  Name = 
REMARK  4 active torsions:
REMARK  status: ('A' for Active; 'I' for Inactive)
REMARK    1  A    between atoms: C_2  and  C_15
REMARK    2  A    between atoms: N_3  and  C_4
REMARK    3  A    between atoms: C_8  and  C_9
REMARK    4  A    between atoms: N_19  and  C_20
REMARK                            x       y       z     vdW  Elec       q    Type
REMARK                         _______ _______ _______ _____ _____    ______ ____
ROOT
ATOM      1  O   UNL     1       1.554   4.878  19.281  0.00  0.00    +0.000 OA
ATOM      2  C   UNL     1       2.696   5.184  18.952  0.00  0.00    +0.000 C 
ATOM      3  N   UNL     1       3.152   6.464  18.690  0.00  0.00    +0.000 N 
ATOM      4  H   UNL     1       4.127   6.568  18.434  0.00  0.00    +0.000 HD
ENDROOT
BRANCH   3   5
ATOM      5  C   UNL     1       2.408   7.664  18.760  0.00  0.00    +0.000 A 
ATOM      6  C   UNL     1       2.169   8.498  17.666  0.00  0.00    +0.000 A 
ATOM      7  C   UNL     1       1.413   9.662  17.813  0.00  0.00    +0.000 A 
ATOM      8  C   UNL     1       0.875   9.998  19.054  0.00  0.00    +0.000 A 
ATOM      9  C   UNL     1       1.089   9.176  20.165  0.00  0.00    +0.000 A 
ATOM     10  C   UNL     1       1.872   8.019  20.008  0.00  0.00    +0.000 A 
BRANCH   9  11
ATOM     11  C   UNL     1       0.494   9.499  21.461  0.00  0.00    +0.000 A 
ATOM     12  C   UNL     1      -0.663  10.170  21.807  0.00  0.00    +0.000 A 
ATOM     13  C   UNL     1      -0.686  10.181  23.213  0.00  0.00    +0.000 A 
ATOM     14  N   UNL     1       0.377   9.575  23.740  0.00  0.00    +0.000 NA
ATOM     15  N   UNL     1       1.081   9.183  22.664  0.00  0.00    +0.000 N 
ATOM     16  H   UNL     1       1.966   8.713  22.815  0.00  0.00    +0.000 HD
ENDBRANCH   9  11
ENDBRANCH   3   5
BRANCH   2  17
ATOM     17  C   UNL     1       3.739   4.089  18.804  0.00  0.00    +0.000 C 
ATOM     18  C   UNL     1       5.051   4.412  19.506  0.00  0.00    +0.000 C 
ATOM     19  C   UNL     1       6.071   4.492  18.404  0.00  0.00    +0.000 C 
ATOM     20  O   UNL     1       7.257   4.696  18.591  0.00  0.00    +0.000 OA
ATOM     21  N   UNL     1       5.438   4.302  17.177  0.00  0.00    +0.000 N 
ATOM     22  C   UNL     1       4.087   3.819  17.353  0.00  0.00    +0.000 C 
BRANCH  21  23
ATOM     23  C   UNL     1       6.181   4.006  15.950  0.00  0.00    +0.000 C 
ATOM     24  C   UNL     1       7.054   5.158  15.443  0.00  0.00    +0.000 C 
ATOM     25  C   UNL     1       7.225   4.927  13.945  0.00  0.00    +0.000 C 
ATOM     26  C   UNL     1       6.166   3.912  13.537  0.00  0.00    +0.000 C 
ATOM     27  C   UNL     1       5.269   3.735  14.751  0.00  0.00    +0.000 C 
ENDBRANCH  21  23
ENDBRANCH   2  17
TORSDOF 4
ENDMDL
MODEL 2
REMARK VINA RESULT:      -8.1      3.568      5.541
REMARK  Name = 
REMARK  4 active torsions:
REMARK  status: ('A' for Active; 'I' for Inactive)
REMARK    1  A    between atoms: C_2  and  C_15
REMARK    2  A    between atoms: N_3  and  C_4
REMARK    3  A    between atoms: C_8  and  C_9
REMARK    4  A    between atoms: N_19  and  C_20
REMARK                            x       y       z     vdW  Elec       q    Type
REMARK                         _______ _______ _______ _____ _____    ______ ____
ROOT
ATOM      1  O   UNL     1       2.160   8.854  17.165  0.00  0.00    +0.000 OA
ATOM      2  C   UNL     1       2.260   8.499  18.336  0.00  0.00    +0.000 C 
ATOM      3  N   UNL     1       1.547   9.010  19.406  0.00  0.00    +0.000 N 
ATOM      4  H   UNL     1       1.731   8.613  20.321  0.00  0.00    +0.000 HD
ENDROOT
BRANCH   3   5
ATOM      5  C   UNL     1       0.563  10.025  19.366  0.00  0.00    +0.000 A 
ATOM      6  C   UNL     1       0.520  11.103  20.251  0.00  0.00    +0.000 A 
ATOM      7  C   UNL     1      -0.478  12.074  20.140  0.00  0.00    +0.000 A 
ATOM      8  C   UNL     1      -1.438  11.981  19.134  0.00  0.00    +0.000 A 
ATOM      9  C   UNL     1      -1.412  10.917  18.226  0.00  0.00    +0.000 A 
ATOM     10  C   UNL     1      -0.416   9.935  18.365  0.00  0.00    +0.000 A 
BRANCH   9  11
ATOM     11  C   UNL     1      -2.390  10.834  17.141  0.00  0.00    +0.000 A 
ATOM     12  C   UNL     1      -2.478  10.011  16.036  0.00  0.00    +0.000 A 
ATOM     13  C   UNL     1      -3.632  10.427  15.348  0.00  0.00    +0.000 A 
ATOM     14  N   UNL     1      -4.239  11.448  15.952  0.00  0.00    +0.000 NA
ATOM     15  N   UNL     1      -3.465  11.684  17.024  0.00  0.00    +0.000 N 
ATOM     16  H   UNL     1      -3.715  12.452  17.637  0.00  0.00    +0.000 HD
ENDBRANCH   9  11
ENDBRANCH   3   5
BRANCH   2  17
ATOM     17  C   UNL     1       3.247   7.399  18.691  0.00  0.00    +0.000 C 
ATOM     18  C   UNL     1       3.752   6.632  17.476  0.00  0.00    +0.000 C 
ATOM     19  C   UNL     1       3.265   5.224  17.677  0.00  0.00    +0.000 C 
ATOM     20  O   UNL     1       3.514   4.306  16.916  0.00  0.00    +0.000 OA
ATOM     21  N   UNL     1       2.503   5.163  18.842  0.00  0.00    +0.000 N 
ATOM     22  C   UNL     1       2.647   6.368  19.627  0.00  0.00    +0.000 C 
BRANCH  21  23
ATOM     23  C   UNL     1       2.156   3.893  19.483  0.00  0.00    +0.000 C 
ATOM     24  C   UNL     1       1.043   3.994  20.531  0.00  0.00    +0.000 C 
ATOM     25  C   UNL     1       1.249   2.815  21.477  0.00  0.00    +0.000 C 
ATOM     26  C   UNL     1       2.655   2.290  21.221  0.00  0.00    +0.000 C 
ATOM     27  C   UNL     1       3.312   3.297  20.291  0.00  0.00    +0.000 C 
ENDBRANCH  21  23
ENDBRANCH   2  17
TORSDOF 4
ENDMDL
MODEL 3
REMARK VINA RESULT:      -7.9      2.556      9.219
REMARK  Name = 
REMARK  4 active torsions:
REMARK  status: ('A' for Active; 'I' for Inactive)
REMARK    1  A    between atoms: C_2  and  C_15
REMARK    2  A    between atoms: N_3  and  C_4
REMARK    3  A    between atoms: C_8  and  C_9
REMARK    4  A    between atoms: N_19  and  C_20
REMARK                            x       y       z     vdW  Elec       q    Type
REMARK                         _______ _______ _______ _____ _____    ______ ____
ROOT
ATOM      1  O   UNL     1       1.801   8.110  20.421  0.00  0.00    +0.000 OA
ATOM      2  C   UNL     1       1.747   8.453  19.244  0.00  0.00    +0.000 C 
ATOM      3  N   UNL     1       2.418   7.857  18.191  0.00  0.00    +0.000 N 
ATOM      4  H   UNL     1       2.273   8.246  17.266  0.00  0.00    +0.000 HD
ENDROOT
BRANCH   3   5
ATOM      5  C   UNL     1       3.280   6.738  18.254  0.00  0.00    +0.000 A 
ATOM      6  C   UNL     1       3.311   5.838  19.321  0.00  0.00    +0.000 A 
ATOM      7  C   UNL     1       4.183   4.748  19.304  0.00  0.00    +0.000 A 
ATOM      8  C   UNL     1       5.025   4.539  18.213  0.00  0.00    +0.000 A 
ATOM      9  C   UNL     1       5.007   5.419  17.126  0.00  0.00    +0.000 A 
ATOM     10  C   UNL     1       4.141   6.525  17.167  0.00  0.00    +0.000 A 
BRANCH   9  11
ATOM     11  C   UNL     1       5.857   5.184  15.959  0.00  0.00    +0.000 A 
ATOM     12  C   UNL     1       5.675   4.424  14.819  0.00  0.00    +0.000 A 
ATOM     13  C   UNL     1       6.855   4.580  14.071  0.00  0.00    +0.000 A 
ATOM     14  N   UNL     1       7.740   5.369  14.681  0.00  0.00    +0.000 NA
ATOM     15  N   UNL     1       7.120   5.711  15.824  0.00  0.00    +0.000 N 
ATOM     16  H   UNL     1       7.618   6.299  16.481  0.00  0.00    +0.000 HD
ENDBRANCH   9  11
ENDBRANCH   3   5
BRANCH   2  17
ATOM     17  C   UNL     1       0.878   9.639  18.861  0.00  0.00    +0.000 C 
ATOM     18  C   UNL     1       1.676  10.911  18.610  0.00  0.00    +0.000 C 
ATOM     19  C   UNL     1       1.213  11.875  19.667  0.00  0.00    +0.000 C 
ATOM     20  O   UNL     1       1.607  13.023  19.757  0.00  0.00    +0.000 OA
ATOM     21  N   UNL     1       0.292  11.238  20.497  0.00  0.00    +0.000 N 
ATOM     22  C   UNL     1      -0.138   9.978  19.934  0.00  0.00    +0.000 C 
BRANCH  21  23
ATOM     23  C   UNL     1      -0.576  11.979  21.415  0.00  0.00    +0.000 C 
ATOM     24  C   UNL     1      -0.904  11.239  22.715  0.00  0.00    +0.000 C 
ATOM     25  C   UNL     1      -2.223  11.824  23.211  0.00  0.00    +0.000 C 
ATOM     26  C   UNL     1      -2.831  12.583  22.039  0.00  0.00    +0.000 C 
ATOM     27  C   UNL     1      -1.967  12.249  20.834  0.00  0.00    +0.000 C 
ENDBRANCH  21  23
ENDBRANCH   2  17
TORSDOF 4
ENDMDL
MODEL 4
REMARK VINA RESULT:      -7.9      3.517      5.015
REMARK  Name = 
REMARK  4 active torsions:
REMARK  status: ('A' for Active; 'I' for Inactive)
REMARK    1  A    between atoms: C_2  and  C_15
REMARK    2  A    between atoms: N_3  and  C_4
REMARK    3  A    between atoms: C_8  and  C_9
REMARK    4  A    between atoms: N_19  and  C_20
REMARK                            x       y       z     vdW  Elec       q    Type
REMARK                         _______ _______ _______ _____ _____    ______ ____
ROOT
ATOM      1  O   UNL     1       2.225   8.863  17.157  0.00  0.00    +0.000 OA
ATOM      2  C   UNL     1       2.293   8.469  18.319  0.00  0.00    +0.000 C 
ATOM      3  N   UNL     1       1.566   8.961  19.388  0.00  0.00    +0.000 N 
ATOM      4  H   UNL     1       1.722   8.533  20.294  0.00  0.00    +0.000 HD
ENDROOT
BRANCH   3   5
ATOM      5  C   UNL     1       0.601   9.994  19.359  0.00  0.00    +0.000 A 
ATOM      6  C   UNL     1       0.595  11.079  20.237  0.00  0.00    +0.000 A 
ATOM      7  C   UNL     1      -0.386  12.068  20.137  0.00  0.00    +0.000 A 
ATOM      8  C   UNL     1      -1.365  11.987  19.149  0.00  0.00    +0.000 A 
ATOM      9  C   UNL     1      -1.377  10.916  18.249  0.00  0.00    +0.000 A 
ATOM     10  C   UNL     1      -0.398   9.916  18.376  0.00  0.00    +0.000 A 
BRANCH   9  11
ATOM     11  C   UNL     1      -2.376  10.846  17.182  0.00  0.00    +0.000 A 
ATOM     12  C   UNL     1      -2.483  10.036  16.068  0.00  0.00    +0.000 A 
ATOM     13  C   UNL     1      -3.652  10.458  15.408  0.00  0.00    +0.000 A 
ATOM     14  N   UNL     1      -4.249  11.470  16.038  0.00  0.00    +0.000 NA
ATOM     15  N   UNL     1      -3.455  11.694  17.098  0.00  0.00    +0.000 N 
ATOM     16  H   UNL     1      -3.695  12.453  17.725  0.00  0.00    +0.000 HD
ENDBRANCH   9  11
ENDBRANCH   3   5
BRANCH   2  17
ATOM     17  C   UNL     1       3.252   7.341  18.660  0.00  0.00    +0.000 C 
ATOM     18  C   UNL     1       4.332   7.134  17.607  0.00  0.00    +0.000 C 
ATOM     19  C   UNL     1       4.087   5.752  17.067  0.00  0.00    +0.000 C 
ATOM     20  O   UNL     1       4.787   5.219  16.225  0.00  0.00    +0.000 OA
ATOM     21  N   UNL     1       2.955   5.215  17.677  0.00  0.00    +0.000 N 
ATOM     22  C   UNL     1       2.542   6.010  18.812  0.00  0.00    +0.000 C 
BRANCH  21  23
ATOM     23  C   UNL     1       2.635   3.787  17.612  0.00  0.00    +0.000 C 
ATOM     24  C   UNL     1       1.349   3.390  18.344  0.00  0.00    +0.000 C 
ATOM     25  C   UNL     1       1.506   1.915  18.699  0.00  0.00    +0.000 C 
ATOM     26  C   UNL     1       2.983   1.582  18.535  0.00  0.00    +0.000 C 
ATOM     27  C   UNL     1       3.685   2.909  18.297  0.00  0.00    +0.000 C 
ENDBRANCH  21  23
ENDBRANCH   2  17
TORSDOF 4
ENDMDL
MODEL 5
REMARK VINA RESULT:      -7.7      2.902      8.880
REMARK  Name = 
REMARK  4 active torsions:
REMARK  status: ('A' for Active; 'I' for Inactive)
REMARK    1  A    between atoms: C_2  and  C_15
REMARK    2  A    between atoms: N_3  and  C_4
REMARK    3  A    between atoms: C_8  and  C_9
REMARK    4  A    between atoms: N_19  and  C_20
REMARK                            x       y       z     vdW  Elec       q    Type
REMARK                         _______ _______ _______ _____ _____    ______ ____
ROOT
ATOM      1  O   UNL     1      -0.315   7.659  21.228  0.00  0.00    +0.000 OA
ATOM      2  C   UNL     1       0.797   8.152  21.395  0.00  0.00    +0.000 C 
ATOM      3  N   UNL     1       1.996   7.621  20.957  0.00  0.00    +0.000 N 
ATOM      4  H   UNL     1       2.841   8.144  21.163  0.00  0.00    +0.000 HD
ENDROOT
BRANCH   3   5
ATOM      5  C   UNL     1       2.183   6.425  20.227  0.00  0.00    +0.000 A 
ATOM      6  C   UNL     1       1.530   5.226  20.518  0.00  0.00    +0.000 A 
ATOM      7  C   UNL     1       1.757   4.087  19.741  0.00  0.00    +0.000 A 
ATOM      8  C   UNL     1       2.631   4.142  18.656  0.00  0.00    +0.000 A 
ATOM      9  C   UNL     1       3.290   5.333  18.335  0.00  0.00    +0.000 A 
ATOM     10  C   UNL     1       3.070   6.464  19.140  0.00  0.00    +0.000 A 
BRANCH   9  11
ATOM     11  C   UNL     1       4.176   5.410  17.174  0.00  0.00    +0.000 A 
ATOM     12  C   UNL     1       4.770   4.433  16.398  0.00  0.00    +0.000 A 
ATOM     13  C   UNL     1       5.528   5.127  15.438  0.00  0.00    +0.000 A 
ATOM     14  N   UNL     1       5.443   6.449  15.585  0.00  0.00    +0.000 NA
ATOM     15  N   UNL     1       4.632   6.595  16.647  0.00  0.00    +0.000 N 
ATOM     16  H   UNL     1       4.437   7.533  16.974  0.00  0.00    +0.000 HD
ENDBRANCH   9  11
ENDBRANCH   3   5
BRANCH   2  17
ATOM     17  C   UNL     1       0.914   9.467  22.149  0.00  0.00    +0.000 C 
ATOM     18  C   UNL     1      -0.157   9.644  23.216  0.00  0.00    +0.000 C 
ATOM     19  C   UNL     1      -0.954  10.839  22.770  0.00  0.00    +0.000 C 
ATOM     20  O   UNL     1      -1.882  11.309  23.402  0.00  0.00    +0.000 OA
ATOM     21  N   UNL     1      -0.461  11.289  21.547  0.00  0.00    +0.000 N 
ATOM     22  C   UNL     1       0.805  10.668  21.230  0.00  0.00    +0.000 C 
BRANCH  21  23
ATOM     23  C   UNL     1      -0.801  12.606  21.004  0.00  0.00    +0.000 C 
ATOM     24  C   UNL     1      -0.628  12.732  19.487  0.00  0.00    +0.000 C 
ATOM     25  C   UNL     1      -0.414  14.216  19.210  0.00  0.00    +0.000 C 
ATOM     26  C   UNL     1      -0.076  14.865  20.546  0.00  0.00    +0.000 C 
ATOM     27  C   UNL     1       0.108  13.720  21.529  0.00  0.00    +0.000 C 
ENDBRANCH  21  23
ENDBRANCH   2  17
TORSDOF 4
ENDMDL
MODEL 6
REMARK VINA RESULT:      -7.6      2.180      8.761
REMARK  Name = 
REMARK  4 active torsions:
REMARK  status: ('A' for Active; 'I' for Inactive)
REMARK    1  A    between atoms: C_2  and  C_15
REMARK    2  A    between atoms: N_3  and  C_4
REMARK    3  A    between atoms: C_8  and  C_9
REMARK    4  A    between atoms: N_19  and  C_20
REMARK                            x       y       z     vdW  Elec       q    Type
REMARK                         _______ _______ _______ _____ _____    ______ ____
ROOT
ATOM      1  O   UNL     1       2.022   8.214  17.884  0.00  0.00    +0.000 OA
ATOM      2  C   UNL     1       2.112   7.820  19.044  0.00  0.00    +0.000 C 
ATOM      3  N   UNL     1       2.422   6.533  19.443  0.00  0.00    +0.000 N 
ATOM      4  H   UNL     1       2.468   6.353  20.441  0.00  0.00    +0.000 HD
ENDROOT
BRANCH   3   5
ATOM      5  C   UNL     1       2.706   5.426  18.610  0.00  0.00    +0.000 A 
ATOM      6  C   UNL     1       1.873   4.314  18.482  0.00  0.00    +0.000 A 
ATOM      7  C   UNL     1       2.216   3.264  17.627  0.00  0.00    +0.000 A 
ATOM      8  C   UNL     1       3.392   3.324  16.880  0.00  0.00    +0.000 A 
ATOM      9  C   UNL     1       4.240   4.432  16.980  0.00  0.00    +0.000 A 
ATOM     10  C   UNL     1       3.893   5.470  17.863  0.00  0.00    +0.000 A 
BRANCH   9  11
ATOM     11  C   UNL     1       5.453   4.522  16.169  0.00  0.00    +0.000 A 
ATOM     12  C   UNL     1       5.657   4.502  14.803  0.00  0.00    +0.000 A 
ATOM     13  C   UNL     1       7.048   4.604  14.628  0.00  0.00    +0.000 A 
ATOM     14  N   UNL     1       7.699   4.674  15.789  0.00  0.00    +0.000 NA
ATOM     15  N   UNL     1       6.717   4.610  16.704  0.00  0.00    +0.000 N 
ATOM     16  H   UNL     1       6.974   4.617  17.684  0.00  0.00    +0.000 HD
ENDBRANCH   9  11
ENDBRANCH   3   5
BRANCH   2  17
ATOM     17  C   UNL     1       1.868   8.803  20.177  0.00  0.00    +0.000 C 
ATOM     18  C   UNL     1       1.219   8.162  21.396  0.00  0.00    +0.000 C 
ATOM     19  C   UNL     1      -0.117   8.841  21.525  0.00  0.00    +0.000 C 
ATOM     20  O   UNL     1      -0.909   8.613  22.422  0.00  0.00    +0.000 OA
ATOM     21  N   UNL     1      -0.280   9.739  20.472  0.00  0.00    +0.000 N 
ATOM     22  C   UNL     1       0.962   9.945  19.762  0.00  0.00    +0.000 C 
BRANCH  21  23
ATOM     23  C   UNL     1      -1.314  10.776  20.482  0.00  0.00    +0.000 C 
ATOM     24  C   UNL     1      -1.756  11.244  19.092  0.00  0.00    +0.000 C 
ATOM     25  C   UNL     1      -2.306  12.654  19.279  0.00  0.00    +0.000 C 
ATOM     26  C   UNL     1      -1.831  13.130  20.646  0.00  0.00    +0.000 C 
ATOM     27  C   UNL     1      -0.845  12.080  21.132  0.00  0.00    +0.000 C 
ENDBRANCH  21  23
ENDBRANCH   2  17
TORSDOF 4
ENDMDL
MODEL 7
REMARK VINA RESULT:      -7.6      3.247      8.738
REMARK  Name = 
REMARK  4 active torsions:
REMARK  status: ('A' for Active; 'I' for Inactive)
REMARK    1  A    between atoms: C_2  and  C_15
REMARK    2  A    between atoms: N_3  and  C_4
REMARK    3  A    between atoms: C_8  and  C_9
REMARK    4  A    between atoms: N_19  and  C_20
REMARK                            x       y       z     vdW  Elec       q    Type
REMARK                         _______ _______ _______ _____ _____    ______ ____
ROOT
ATOM      1  O   UNL     1       1.481   8.714  20.622  0.00  0.00    +0.000 OA
ATOM      2  C   UNL     1       1.523   8.905  19.410  0.00  0.00    +0.000 C 
ATOM      3  N   UNL     1       2.120   8.077  18.476  0.00  0.00    +0.000 N 
ATOM      4  H   UNL     1       2.071   8.360  17.504  0.00  0.00    +0.000 HD
ENDROOT
BRANCH   3   5
ATOM      5  C   UNL     1       2.784   6.853  18.724  0.00  0.00    +0.000 A 
ATOM      6  C   UNL     1       2.406   5.949  19.717  0.00  0.00    +0.000 A 
ATOM      7  C   UNL     1       3.105   4.752  19.892  0.00  0.00    +0.000 A 
ATOM      8  C   UNL     1       4.183   4.443  19.064  0.00  0.00    +0.000 A 
ATOM      9  C   UNL     1       4.577   5.325  18.053  0.00  0.00    +0.000 A 
ATOM     10  C   UNL     1       3.879   6.536  17.904  0.00  0.00    +0.000 A 
BRANCH   9  11
ATOM     11  C   UNL     1       5.679   4.989  17.153  0.00  0.00    +0.000 A 
ATOM     12  C   UNL     1       5.795   5.027  15.777  0.00  0.00    +0.000 A 
ATOM     13  C   UNL     1       7.093   4.564  15.496  0.00  0.00    +0.000 A 
ATOM     14  N   UNL     1       7.763   4.239  16.601  0.00  0.00    +0.000 NA
ATOM     15  N   UNL     1       6.886   4.491  17.587  0.00  0.00    +0.000 N 
ATOM     16  H   UNL     1       7.165   4.291  18.540  0.00  0.00    +0.000 HD
ENDBRANCH   9  11
ENDBRANCH   3   5
BRANCH   2  17
ATOM     17  C   UNL     1       0.874  10.154  18.837  0.00  0.00    +0.000 C 
ATOM     18  C   UNL     1       0.279  11.063  19.904  0.00  0.00    +0.000 C 
ATOM     19  C   UNL     1      -1.198  11.078  19.621  0.00  0.00    +0.000 C 
ATOM     20  O   UNL     1      -2.002  11.738  20.252  0.00  0.00    +0.000 OA
ATOM     21  N   UNL     1      -1.469  10.229  18.550  0.00  0.00    +0.000 N 
ATOM     22  C   UNL     1      -0.253   9.827  17.878  0.00  0.00    +0.000 C 
BRANCH  21  23
ATOM     23  C   UNL     1      -2.743  10.262  17.828  0.00  0.00    +0.000 C 
ATOM     24  C   UNL     1      -2.648   9.857  16.354  0.00  0.00    +0.000 C 
ATOM     25  C   UNL     1      -3.834  10.521  15.660  0.00  0.00    +0.000 C 
ATOM     26  C   UNL     1      -4.357  11.586  16.614  0.00  0.00    +0.000 C 
ATOM     27  C   UNL     1      -3.344  11.667  17.743  0.00  0.00    +0.000 C 
ENDBRANCH  21  23
ENDBRANCH   2  17
TORSDOF 4
ENDMDL
MODEL 8
REMARK VINA RESULT:      -7.6      2.572      8.641
REMARK  Name = 
REMARK  4 active torsions:
REMARK  status: ('A' for Active; 'I' for Inactive)
REMARK    1  A    between atoms: C_2  and  C_15
REMARK    2  A    between atoms: N_3  and  C_4
REMARK    3  A    between atoms: C_8  and  C_9
REMARK    4  A    between atoms: N_19  and  C_20
REMARK                            x       y       z     vdW  Elec       q    Type
REMARK                         _______ _______ _______ _____ _____    ______ ____
ROOT
ATOM      1  O   UNL     1       2.584   8.522  17.338  0.00  0.00    +0.000 OA
ATOM      2  C   UNL     1       1.874   8.789  18.304  0.00  0.00    +0.000 C 
ATOM      3  N   UNL     1       1.701   8.000  19.428  0.00  0.00    +0.000 N 
ATOM      4  H   UNL     1       1.086   8.353  20.153  0.00  0.00    +0.000 HD
ENDROOT
BRANCH   3   5
ATOM      5  C   UNL     1       2.306   6.751  19.693  0.00  0.00    +0.000 A 
ATOM      6  C   UNL     1       1.703   5.736  20.438  0.00  0.00    +0.000 A 
ATOM      7  C   UNL     1       2.361   4.522  20.647  0.00  0.00    +0.000 A 
ATOM      8  C   UNL     1       3.625   4.306  20.102  0.00  0.00    +0.000 A 
ATOM      9  C   UNL     1       4.249   5.302  19.342  0.00  0.00    +0.000 A 
ATOM     10  C   UNL     1       3.585   6.527  19.160  0.00  0.00    +0.000 A 
BRANCH   9  11
ATOM     11  C   UNL     1       5.557   5.068  18.731  0.00  0.00    +0.000 A 
ATOM     12  C   UNL     1       5.928   4.677  17.459  0.00  0.00    +0.000 A 
ATOM     13  C   UNL     1       7.332   4.605  17.482  0.00  0.00    +0.000 A 
ATOM     14  N   UNL     1       7.834   4.913  18.678  0.00  0.00    +0.000 NA
ATOM     15  N   UNL     1       6.744   5.176  19.418  0.00  0.00    +0.000 N 
ATOM     16  H   UNL     1       6.873   5.413  20.394  0.00  0.00    +0.000 HD
ENDBRANCH   9  11
ENDBRANCH   3   5
BRANCH   2  17
ATOM     17  C   UNL     1       1.095  10.093  18.309  0.00  0.00    +0.000 C 
ATOM     18  C   UNL     1       1.989  11.325  18.340  0.00  0.00    +0.000 C 
ATOM     19  C   UNL     1       1.670  12.003  19.643  0.00  0.00    +0.000 C 
ATOM     20  O   UNL     1       2.169  13.055  20.000  0.00  0.00    +0.000 OA
ATOM     21  N   UNL     1       0.741  11.237  20.344  0.00  0.00    +0.000 N 
ATOM     22  C   UNL     1       0.171  10.206  19.506  0.00  0.00    +0.000 C 
BRANCH  21  23
ATOM     23  C   UNL     1      -0.009  11.768  21.485  0.00  0.00    +0.000 C 
ATOM     24  C   UNL     1      -0.474  10.707  22.488  0.00  0.00    +0.000 C 
ATOM     25  C   UNL     1      -1.687  11.303  23.196  0.00  0.00    +0.000 C 
ATOM     26  C   UNL     1      -2.143  12.489  22.357  0.00  0.00    +0.000 C 
ATOM     27  C   UNL     1      -1.326  12.432  21.077  0.00  0.00    +0.000 C 
ENDBRANCH  21  23
ENDBRANCH   2  17
TORSDOF 4
ENDMDL
MODEL 9
REMARK VINA RESULT:      -7.6      2.639      8.461
REMARK  Name = 
REMARK  4 active torsions:
REMARK  status: ('A' for Active; 'I' for Inactive)
REMARK    1  A    between atoms: C_2  and  C_15
REMARK    2  A    between atoms: N_3  and  C_4
REMARK    3  A    between atoms: C_8  and  C_9
REMARK    4  A    between atoms: N_19  and  C_20
REMARK                            x       y       z     vdW  Elec       q    Type
REMARK                         _______ _______ _______ _____ _____    ______ ____
ROOT
ATOM      1  O   UNL     1       2.020   7.940  19.826  0.00  0.00    +0.000 OA
ATOM      2  C   UNL     1       1.970   8.498  18.733  0.00  0.00    +0.000 C 
ATOM      3  N   UNL     1       2.699   8.153  17.609  0.00  0.00    +0.000 N 
ATOM      4  H   UNL     1       2.549   8.703  16.770  0.00  0.00    +0.000 HD
ENDROOT
BRANCH   3   5
ATOM      5  C   UNL     1       3.628   7.094  17.488  0.00  0.00    +0.000 A 
ATOM      6  C   UNL     1       4.693   7.093  16.586  0.00  0.00    +0.000 A 
ATOM      7  C   UNL     1       5.578   6.013  16.535  0.00  0.00    +0.000 A 
ATOM      8  C   UNL     1       5.413   4.929  17.395  0.00  0.00    +0.000 A 
ATOM      9  C   UNL     1       4.360   4.909  18.317  0.00  0.00    +0.000 A 
ATOM     10  C   UNL     1       3.464   5.992  18.341  0.00  0.00    +0.000 A 
BRANCH   9  11
ATOM     11  C   UNL     1       4.204   3.796  19.252  0.00  0.00    +0.000 A 
ATOM     12  C   UNL     1       3.162   3.419  20.077  0.00  0.00    +0.000 A 
ATOM     13  C   UNL     1       3.614   2.273  20.754  0.00  0.00    +0.000 A 
ATOM     14  N   UNL     1       4.856   1.938  20.406  0.00  0.00    +0.000 NA
ATOM     15  N   UNL     1       5.196   2.878  19.509  0.00  0.00    +0.000 N 
ATOM     16  H   UNL     1       6.128   2.849  19.113  0.00  0.00    +0.000 HD
ENDBRANCH   9  11
ENDBRANCH   3   5
BRANCH   2  17
ATOM     17  C   UNL     1       1.036   9.683  18.553  0.00  0.00    +0.000 C 
ATOM     18  C   UNL     1       1.771  10.997  18.326  0.00  0.00    +0.000 C 
ATOM     19  C   UNL     1       1.409  11.853  19.509  0.00  0.00    +0.000 C 
ATOM     20  O   UNL     1       1.784  13.002  19.654  0.00  0.00    +0.000 OA
ATOM     21  N   UNL     1       0.602  11.120  20.376  0.00  0.00    +0.000 N 
ATOM     22  C   UNL     1       0.141   9.897  19.758  0.00  0.00    +0.000 C 
BRANCH  21  23
ATOM     23  C   UNL     1      -0.173  11.753  21.446  0.00  0.00    +0.000 C 
ATOM     24  C   UNL     1      -0.575  10.809  22.583  0.00  0.00    +0.000 C 
ATOM     25  C   UNL     1      -1.818  11.423  23.219  0.00  0.00    +0.000 C 
ATOM     26  C   UNL     1      -2.343  12.462  22.237  0.00  0.00    +0.000 C 
ATOM     27  C   UNL     1      -1.528  12.282  20.967  0.00  0.00    +0.000 C 
ENDBRANCH  21  23
ENDBRANCH   2  17
TORSDOF 4
ENDMDL
