MODEL 1
REMARK VINA RESULT:      -8.5      0.000      0.000
REMARK  Name = 
REMARK  4 active torsions:
REMARK  status: ('A' for Active; 'I' for Inactive)
REMARK    1  A    between atoms: C_1  and  C_2
REMARK    2  A    between atoms: C_2  and  C_3
REMARK    3  A    between atoms: C_2  and  C_17
REMARK    4  A    between atoms: C_8  and  O_9
REMARK                            x       y       z     vdW  Elec       q    Type
REMARK                         _______ _______ _______ _____ _____    ______ ____
ROOT
ATOM      1  C   UNL     1       1.499   9.574  18.582  0.00  0.00    +0.000 C 
ATOM      2  O   UNL     1       1.960   9.489  17.440  0.00  0.00    +0.000 OA
ATOM      3  N   UNL     1       1.560   8.598  19.534  0.00  0.00    +0.000 N 
ATOM      4  C   UNL     1       2.178   7.349  19.374  0.00  0.00    +0.000 A 
ATOM      5  N   UNL     1       2.932   7.111  18.303  0.00  0.00    +0.000 NA
ATOM      6  C   UNL     1       3.438   5.889  18.199  0.00  0.00    +0.000 A 
ATOM      7  C   UNL     1       3.260   4.870  19.097  0.00  0.00    +0.000 A 
ATOM      8  C   UNL     1       2.454   5.199  20.175  0.00  0.00    +0.000 A 
ATOM      9  N   UNL     1       1.933   6.442  20.338  0.00  0.00    +0.000 NA
ATOM     10  C   UNL     1       2.141   4.176  21.239  0.00  0.00    +0.000 C 
ATOM     11  C   UNL     1       2.366   2.735  20.772  0.00  0.00    +0.000 C 
ATOM     12  C   UNL     1       3.733   2.607  20.108  0.00  0.00    +0.000 C 
ATOM     13  C   UNL     1       3.817   3.495  18.866  0.00  0.00    +0.000 C 
ATOM     14  H   UNL     1       1.032   8.666  20.397  0.00  0.00    +0.000 HD
ENDROOT
BRANCH   1  16
ATOM     15  C   UNL     1       1.132  11.215  20.454  0.00  0.00    +0.000 C 
ATOM     16  C   UNL     1       0.792  10.866  19.007  0.00  0.00    +0.000 C 
BRANCH  16  17
ATOM     17  C   UNL     1      -0.681  10.849  18.647  0.00  0.00    +0.000 A 
ATOM     18  C   UNL     1      -1.060  10.094  17.526  0.00  0.00    +0.000 A 
ATOM     19  C   UNL     1      -2.403   9.909  17.221  0.00  0.00    +0.000 A 
ATOM     20  C   UNL     1      -3.392  10.576  17.947  0.00  0.00    +0.000 A 
ATOM     21  C   UNL     1      -4.739  10.408  17.636  0.00  0.00    +0.000 A 
ATOM     22  C   UNL     1      -5.645  11.415  17.938  0.00  0.00    +0.000 A 
ATOM     23  C   UNL     1      -5.279  12.407  18.838  0.00  0.00    +0.000 A 
ATOM     24  C   UNL     1      -4.013  12.372  19.434  0.00  0.00    +0.000 A 
ATOM     25  C   UNL     1      -3.021  11.501  18.942  0.00  0.00    +0.000 A 
ATOM     26  C   UNL     1      -1.677  11.548  19.353  0.00  0.00    +0.000 A 
ENDBRANCH  16  17
ENDBRANCH   1  16
BRANCH   6  27
ATOM     27  O   UNL     1       4.161   5.712  17.064  0.00  0.00    +0.000 OA
ATOM     28  H   UNL     1       4.834   6.408  17.196  0.00  0.00    +0.000 HD
ENDBRANCH   6  27
TORSDOF 3
ENDMDL
MODEL 2
REMARK VINA RESULT:      -8.5      1.160      1.881
REMARK  Name = 
REMARK  4 active torsions:
REMARK  status: ('A' for Active; 'I' for Inactive)
REMARK    1  A    between atoms: C_1  and  C_2
REMARK    2  A    between atoms: C_2  and  C_3
REMARK    3  A    between atoms: C_2  and  C_17
REMARK    4  A    between atoms: C_8  and  O_9
REMARK                            x       y       z     vdW  Elec       q    Type
REMARK                         _______ _______ _______ _____ _____    ______ ____
ROOT
ATOM      1  C   UNL     1       1.751   9.005  19.163  0.00  0.00    +0.000 C 
ATOM      2  O   UNL     1       2.333   9.278  18.109  0.00  0.00    +0.000 OA
ATOM      3  N   UNL     1       1.685   7.766  19.731  0.00  0.00    +0.000 N 
ATOM      4  C   UNL     1       2.287   6.608  19.219  0.00  0.00    +0.000 A 
ATOM      5  N   UNL     1       3.148   6.696  18.208  0.00  0.00    +0.000 NA
ATOM      6  C   UNL     1       3.634   5.550  17.746  0.00  0.00    +0.000 A 
ATOM      7  C   UNL     1       3.334   4.302  18.227  0.00  0.00    +0.000 A 
ATOM      8  C   UNL     1       2.423   4.302  19.270  0.00  0.00    +0.000 A 
ATOM      9  N   UNL     1       1.916   5.447  19.792  0.00  0.00    +0.000 NA
ATOM     10  C   UNL     1       1.972   3.002  19.892  0.00  0.00    +0.000 C 
ATOM     11  C   UNL     1       2.213   1.789  18.990  0.00  0.00    +0.000 C 
ATOM     12  C   UNL     1       3.640   1.809  18.455  0.00  0.00    +0.000 C 
ATOM     13  C   UNL     1       3.881   3.053  17.600  0.00  0.00    +0.000 C 
ATOM     14  H   UNL     1       1.067   7.573  20.512  0.00  0.00    +0.000 HD
ENDROOT
BRANCH   1  16
ATOM     15  C   UNL     1       0.994   9.810  21.423  0.00  0.00    +0.000 C 
ATOM     16  C   UNL     1       1.033  10.122  19.929  0.00  0.00    +0.000 C 
BRANCH  16  17
ATOM     17  C   UNL     1      -0.290  10.489  19.283  0.00  0.00    +0.000 A 
ATOM     18  C   UNL     1      -1.193  11.240  20.050  0.00  0.00    +0.000 A 
ATOM     19  C   UNL     1      -2.358  11.739  19.481  0.00  0.00    +0.000 A 
ATOM     20  C   UNL     1      -2.712  11.393  18.175  0.00  0.00    +0.000 A 
ATOM     21  C   UNL     1      -3.886  11.876  17.603  0.00  0.00    +0.000 A 
ATOM     22  C   UNL     1      -4.507  11.154  16.594  0.00  0.00    +0.000 A 
ATOM     23  C   UNL     1      -3.795  10.162  15.935  0.00  0.00    +0.000 A 
ATOM     24  C   UNL     1      -2.462   9.914  16.285  0.00  0.00    +0.000 A 
ATOM     25  C   UNL     1      -1.922  10.471  17.460  0.00  0.00    +0.000 A 
ATOM     26  C   UNL     1      -0.666  10.112  17.981  0.00  0.00    +0.000 A 
ENDBRANCH  16  17
ENDBRANCH   1  16
BRANCH   6  27
ATOM     27  O   UNL     1       4.472   5.719  16.692  0.00  0.00    +0.000 OA
ATOM     28  H   UNL     1       3.820   5.980  16.012  0.00  0.00    +0.000 HD
ENDBRANCH   6  27
TORSDOF 3
ENDMDL
MODEL 3
REMARK VINA RESULT:      -8.5      2.811      8.640
REMARK  Name = 
REMARK  4 active torsions:
REMARK  status: ('A' for Active; 'I' for Inactive)
REMARK    1  A    between atoms: C_1  and  C_2
REMARK    2  A    between atoms: C_2  and  C_3
REMARK    3  A    between atoms: C_2  and  C_17
REMARK    4  A    between atoms: C_8  and  O_9
REMARK                            x       y       z     vdW  Elec       q    Type
REMARK                         _______ _______ _______ _____ _____    ______ ____
ROOT
ATOM      1  C   UNL     1       1.805   8.254  19.776  0.00  0.00    +0.000 C 
ATOM      2  O   UNL     1       1.791   7.560  20.796  0.00  0.00    +0.000 OA
ATOM      3  N   UNL     1       1.138   9.433  19.612  0.00  0.00    +0.000 N 
ATOM      4  C   UNL     1       0.343  10.056  20.585  0.00  0.00    +0.000 A 
ATOM      5  N   UNL     1       0.351   9.605  21.839  0.00  0.00    +0.000 NA
ATOM      6  C   UNL     1      -0.467  10.215  22.688  0.00  0.00    +0.000 A 
ATOM      7  C   UNL     1      -1.298  11.262  22.387  0.00  0.00    +0.000 A 
ATOM      8  C   UNL     1      -1.251  11.660  21.062  0.00  0.00    +0.000 A 
ATOM      9  N   UNL     1      -0.415  11.084  20.160  0.00  0.00    +0.000 NA
ATOM     10  C   UNL     1      -2.126  12.785  20.567  0.00  0.00    +0.000 C 
ATOM     11  C   UNL     1      -3.323  13.061  21.482  0.00  0.00    +0.000 C 
ATOM     12  C   UNL     1      -2.861  13.166  22.931  0.00  0.00    +0.000 C 
ATOM     13  C   UNL     1      -2.240  11.849  23.398  0.00  0.00    +0.000 C 
ATOM     14  H   UNL     1       1.064   9.879  18.704  0.00  0.00    +0.000 HD
ENDROOT
BRANCH   1  16
ATOM     15  C   UNL     1       2.207   8.535  17.308  0.00  0.00    +0.000 C 
ATOM     16  C   UNL     1       2.633   7.792  18.571  0.00  0.00    +0.000 C 
BRANCH  16  17
ATOM     17  C   UNL     1       2.691   6.279  18.474  0.00  0.00    +0.000 A 
ATOM     18  C   UNL     1       1.592   5.629  17.892  0.00  0.00    +0.000 A 
ATOM     19  C   UNL     1       1.634   4.264  17.634  0.00  0.00    +0.000 A 
ATOM     20  C   UNL     1       2.717   3.496  18.068  0.00  0.00    +0.000 A 
ATOM     21  C   UNL     1       2.758   2.125  17.828  0.00  0.00    +0.000 A 
ATOM     22  C   UNL     1       3.484   1.300  18.676  0.00  0.00    +0.000 A 
ATOM     23  C   UNL     1       4.424   1.864  19.527  0.00  0.00    +0.000 A 
ATOM     24  C   UNL     1       4.634   3.248  19.512  0.00  0.00    +0.000 A 
ATOM     25  C   UNL     1       3.733   4.095  18.838  0.00  0.00    +0.000 A 
ATOM     26  C   UNL     1       3.763   5.497  18.942  0.00  0.00    +0.000 A 
ENDBRANCH  16  17
ENDBRANCH   1  16
BRANCH   6  27
ATOM     27  O   UNL     1      -0.433   9.675  23.932  0.00  0.00    +0.000 OA
ATOM     28  H   UNL     1      -0.933   8.853  23.762  0.00  0.00    +0.000 HD
ENDBRANCH   6  27
TORSDOF 3
ENDMDL
MODEL 4
REMARK VINA RESULT:      -8.4      8.076     10.718
REMARK  Name = 
REMARK  4 active torsions:
REMARK  status: ('A' for Active; 'I' for Inactive)
REMARK    1  A    between atoms: C_1  and  C_2
REMARK    2  A    between atoms: C_2  and  C_3
REMARK    3  A    between atoms: C_2  and  C_17
REMARK    4  A    between atoms: C_8  and  O_9
REMARK                            x       y       z     vdW  Elec       q    Type
REMARK                         _______ _______ _______ _____ _____    ______ ____
ROOT
ATOM      1  C   UNL     1       7.393   7.823  17.768  0.00  0.00    +0.000 C 
ATOM      2  O   UNL     1       6.804   8.392  16.844  0.00  0.00    +0.000 OA
ATOM      3  N   UNL     1       8.316   8.400  18.591  0.00  0.00    +0.000 N 
ATOM      4  C   UNL     1       8.727   9.739  18.533  0.00  0.00    +0.000 A 
ATOM      5  N   UNL     1       8.073  10.604  17.759  0.00  0.00    +0.000 NA
ATOM      6  C   UNL     1       8.556  11.839  17.719  0.00  0.00    +0.000 A 
ATOM      7  C   UNL     1       9.650  12.294  18.407  0.00  0.00    +0.000 A 
ATOM      8  C   UNL     1      10.276  11.329  19.178  0.00  0.00    +0.000 A 
ATOM      9  N   UNL     1       9.807  10.058  19.271  0.00  0.00    +0.000 NA
ATOM     10  C   UNL     1      11.511  11.667  19.976  0.00  0.00    +0.000 C 
ATOM     11  C   UNL     1      12.220  12.931  19.481  0.00  0.00    +0.000 C 
ATOM     12  C   UNL     1      11.211  14.061  19.304  0.00  0.00    +0.000 C 
ATOM     13  C   UNL     1      10.166  13.695  18.250  0.00  0.00    +0.000 C 
ATOM     14  H   UNL     1       8.876   7.846  19.230  0.00  0.00    +0.000 HD
ENDROOT
BRANCH   1  16
ATOM     15  C   UNL     1       8.209   5.715  18.873  0.00  0.00    +0.000 C 
ATOM     16  C   UNL     1       7.090   6.347  18.049  0.00  0.00    +0.000 C 
BRANCH  16  17
ATOM     17  C   UNL     1       6.680   5.605  16.790  0.00  0.00    +0.000 A 
ATOM     18  C   UNL     1       5.621   4.692  16.898  0.00  0.00    +0.000 A 
ATOM     19  C   UNL     1       5.092   4.087  15.765  0.00  0.00    +0.000 A 
ATOM     20  C   UNL     1       5.690   4.278  14.517  0.00  0.00    +0.000 A 
ATOM     21  C   UNL     1       5.175   3.661  13.379  0.00  0.00    +0.000 A 
ATOM     22  C   UNL     1       6.013   3.390  12.306  0.00  0.00    +0.000 A 
ATOM     23  C   UNL     1       7.243   4.028  12.229  0.00  0.00    +0.000 A 
ATOM     24  C   UNL     1       7.615   4.942  13.223  0.00  0.00    +0.000 A 
ATOM     25  C   UNL     1       6.880   5.025  14.421  0.00  0.00    +0.000 A 
ATOM     26  C   UNL     1       7.302   5.767  15.539  0.00  0.00    +0.000 A 
ENDBRANCH  16  17
ENDBRANCH   1  16
BRANCH   6  27
ATOM     27  O   UNL     1       7.862  12.650  16.880  0.00  0.00    +0.000 OA
ATOM     28  H   UNL     1       7.015  12.161  16.854  0.00  0.00    +0.000 HD
ENDBRANCH   6  27
TORSDOF 3
ENDMDL
MODEL 5
REMARK VINA RESULT:      -8.4      2.268      7.855
REMARK  Name = 
REMARK  4 active torsions:
REMARK  status: ('A' for Active; 'I' for Inactive)
REMARK    1  A    between atoms: C_1  and  C_2
REMARK    2  A    between atoms: C_2  and  C_3
REMARK    3  A    between atoms: C_2  and  C_17
REMARK    4  A    between atoms: C_8  and  O_9
REMARK                            x       y       z     vdW  Elec       q    Type
REMARK                         _______ _______ _______ _____ _____    ______ ____
ROOT
ATOM      1  C   UNL     1       2.393   8.568  18.103  0.00  0.00    +0.000 C 
ATOM      2  O   UNL     1       2.210   9.261  17.098  0.00  0.00    +0.000 OA
ATOM      3  N   UNL     1       1.743   8.714  19.294  0.00  0.00    +0.000 N 
ATOM      4  C   UNL     1       0.746   9.663  19.561  0.00  0.00    +0.000 A 
ATOM      5  N   UNL     1       0.226  10.380  18.567  0.00  0.00    +0.000 NA
ATOM      6  C   UNL     1      -0.674  11.294  18.908  0.00  0.00    +0.000 A 
ATOM      7  C   UNL     1      -1.114  11.548  20.180  0.00  0.00    +0.000 A 
ATOM      8  C   UNL     1      -0.514  10.766  21.153  0.00  0.00    +0.000 A 
ATOM      9  N   UNL     1       0.394   9.803  20.853  0.00  0.00    +0.000 NA
ATOM     10  C   UNL     1      -0.873  10.944  22.608  0.00  0.00    +0.000 C 
ATOM     11  C   UNL     1      -1.523  12.298  22.906  0.00  0.00    +0.000 C 
ATOM     12  C   UNL     1      -2.641  12.572  21.907  0.00  0.00    +0.000 C 
ATOM     13  C   UNL     1      -2.090  12.648  20.483  0.00  0.00    +0.000 C 
ATOM     14  H   UNL     1       2.044   8.218  20.126  0.00  0.00    +0.000 HD
ENDROOT
BRANCH   1  16
ATOM     15  C   UNL     1       4.113   7.398  16.687  0.00  0.00    +0.000 C 
ATOM     16  C   UNL     1       3.426   7.436  18.050  0.00  0.00    +0.000 C 
BRANCH  16  17
ATOM     17  C   UNL     1       2.851   6.125  18.551  0.00  0.00    +0.000 A 
ATOM     18  C   UNL     1       2.034   5.402  17.669  0.00  0.00    +0.000 A 
ATOM     19  C   UNL     1       1.592   4.127  18.000  0.00  0.00    +0.000 A 
ATOM     20  C   UNL     1       1.847   3.597  19.267  0.00  0.00    +0.000 A 
ATOM     21  C   UNL     1       1.394   2.326  19.612  0.00  0.00    +0.000 A 
ATOM     22  C   UNL     1       1.152   2.020  20.944  0.00  0.00    +0.000 A 
ATOM     23  C   UNL     1       1.678   2.839  21.932  0.00  0.00    +0.000 A 
ATOM     24  C   UNL     1       2.453   3.950  21.576  0.00  0.00    +0.000 A 
ATOM     25  C   UNL     1       2.487   4.390  20.239  0.00  0.00    +0.000 A 
ATOM     26  C   UNL     1       3.075   5.604  19.839  0.00  0.00    +0.000 A 
ENDBRANCH  16  17
ENDBRANCH   1  16
BRANCH   6  27
ATOM     27  O   UNL     1      -1.128  12.009  17.848  0.00  0.00    +0.000 OA
ATOM     28  H   UNL     1      -0.617  12.831  17.981  0.00  0.00    +0.000 HD
ENDBRANCH   6  27
TORSDOF 3
ENDMDL
MODEL 6
REMARK VINA RESULT:      -8.4      1.893      3.136
REMARK  Name = 
REMARK  4 active torsions:
REMARK  status: ('A' for Active; 'I' for Inactive)
REMARK    1  A    between atoms: C_1  and  C_2
REMARK    2  A    between atoms: C_2  and  C_3
REMARK    3  A    between atoms: C_2  and  C_17
REMARK    4  A    between atoms: C_8  and  O_9
REMARK                            x       y       z     vdW  Elec       q    Type
REMARK                         _______ _______ _______ _____ _____    ______ ____
ROOT
ATOM      1  C   UNL     1       1.392   8.654  19.954  0.00  0.00    +0.000 C 
ATOM      2  O   UNL     1       1.034   7.731  20.691  0.00  0.00    +0.000 OA
ATOM      3  N   UNL     1       2.203   8.527  18.864  0.00  0.00    +0.000 N 
ATOM      4  C   UNL     1       2.745   7.322  18.394  0.00  0.00    +0.000 A 
ATOM      5  N   UNL     1       2.326   6.162  18.898  0.00  0.00    +0.000 NA
ATOM      6  C   UNL     1       2.924   5.071  18.439  0.00  0.00    +0.000 A 
ATOM      7  C   UNL     1       3.916   5.038  17.494  0.00  0.00    +0.000 A 
ATOM      8  C   UNL     1       4.298   6.287  17.032  0.00  0.00    +0.000 A 
ATOM      9  N   UNL     1       3.701   7.431  17.453  0.00  0.00    +0.000 NA
ATOM     10  C   UNL     1       5.397   6.421  16.006  0.00  0.00    +0.000 C 
ATOM     11  C   UNL     1       6.300   5.187  15.929  0.00  0.00    +0.000 C 
ATOM     12  C   UNL     1       5.453   3.923  15.834  0.00  0.00    +0.000 C 
ATOM     13  C   UNL     1       4.583   3.759  17.080  0.00  0.00    +0.000 C 
ATOM     14  H   UNL     1       2.585   9.338  18.389  0.00  0.00    +0.000 HD
ENDROOT
BRANCH   1  16
ATOM     15  C   UNL     1       0.837  10.322  21.755  0.00  0.00    +0.000 C 
ATOM     16  C   UNL     1       0.903  10.077  20.250  0.00  0.00    +0.000 C 
BRANCH  16  17
ATOM     17  C   UNL     1      -0.343  10.422  19.456  0.00  0.00    +0.000 A 
ATOM     18  C   UNL     1      -1.321  11.195  20.100  0.00  0.00    +0.000 A 
ATOM     19  C   UNL     1      -2.418  11.675  19.394  0.00  0.00    +0.000 A 
ATOM     20  C   UNL     1      -2.632  11.287  18.070  0.00  0.00    +0.000 A 
ATOM     21  C   UNL     1      -3.739  11.750  17.362  0.00  0.00    +0.000 A 
ATOM     22  C   UNL     1      -4.251  10.995  16.316  0.00  0.00    +0.000 A 
ATOM     23  C   UNL     1      -3.474   9.985  15.767  0.00  0.00    +0.000 A 
ATOM     24  C   UNL     1      -2.186   9.749  16.264  0.00  0.00    +0.000 A 
ATOM     25  C   UNL     1      -1.773  10.344  17.472  0.00  0.00    +0.000 A 
ATOM     26  C   UNL     1      -0.580  10.004  18.134  0.00  0.00    +0.000 A 
ENDBRANCH  16  17
ENDBRANCH   1  16
BRANCH   6  27
ATOM     27  O   UNL     1       2.472   3.934  19.028  0.00  0.00    +0.000 OA
ATOM     28  H   UNL     1       2.946   3.275  18.483  0.00  0.00    +0.000 HD
ENDBRANCH   6  27
TORSDOF 3
ENDMDL
MODEL 7
REMARK VINA RESULT:      -8.3      3.550      8.958
REMARK  Name = 
REMARK  4 active torsions:
REMARK  status: ('A' for Active; 'I' for Inactive)
REMARK    1  A    between atoms: C_1  and  C_2
REMARK    2  A    between atoms: C_2  and  C_3
REMARK    3  A    between atoms: C_2  and  C_17
REMARK    4  A    between atoms: C_8  and  O_9
REMARK                            x       y       z     vdW  Elec       q    Type
REMARK                         _______ _______ _______ _____ _____    ______ ____
ROOT
ATOM      1  C   UNL     1       3.753   6.521  18.098  0.00  0.00    +0.000 C 
ATOM      2  O   UNL     1       3.863   7.339  17.181  0.00  0.00    +0.000 OA
ATOM      3  N   UNL     1       2.943   6.658  19.188  0.00  0.00    +0.000 N 
ATOM      4  C   UNL     1       2.090   7.744  19.430  0.00  0.00    +0.000 A 
ATOM      5  N   UNL     1       1.875   8.648  18.476  0.00  0.00    +0.000 NA
ATOM      6  C   UNL     1       1.097   9.673  18.801  0.00  0.00    +0.000 A 
ATOM      7  C   UNL     1       0.495   9.868  20.016  0.00  0.00    +0.000 A 
ATOM      8  C   UNL     1       0.780   8.888  20.952  0.00  0.00    +0.000 A 
ATOM      9  N   UNL     1       1.551   7.809  20.662  0.00  0.00    +0.000 NA
ATOM     10  C   UNL     1       0.213   8.973  22.348  0.00  0.00    +0.000 C 
ATOM     11  C   UNL     1      -0.241  10.386  22.727  0.00  0.00    +0.000 C 
ATOM     12  C   UNL     1      -1.109  10.971  21.619  0.00  0.00    +0.000 C 
ATOM     13  C   UNL     1      -0.318  11.093  20.317  0.00  0.00    +0.000 C 
ATOM     14  H   UNL     1       3.009   6.029  19.980  0.00  0.00    +0.000 HD
ENDROOT
BRANCH   1  16
ATOM     15  C   UNL     1       5.415   5.071  19.310  0.00  0.00    +0.000 C 
ATOM     16  C   UNL     1       4.574   5.227  18.046  0.00  0.00    +0.000 C 
BRANCH  16  17
ATOM     17  C   UNL     1       5.307   5.077  16.726  0.00  0.00    +0.000 A 
ATOM     18  C   UNL     1       6.444   5.875  16.529  0.00  0.00    +0.000 A 
ATOM     19  C   UNL     1       7.252   5.690  15.413  0.00  0.00    +0.000 A 
ATOM     20  C   UNL     1       6.873   4.799  14.406  0.00  0.00    +0.000 A 
ATOM     21  C   UNL     1       7.669   4.621  13.277  0.00  0.00    +0.000 A 
ATOM     22  C   UNL     1       7.089   4.206  12.087  0.00  0.00    +0.000 A 
ATOM     23  C   UNL     1       5.818   3.649  12.111  0.00  0.00    +0.000 A 
ATOM     24  C   UNL     1       5.147   3.502  13.330  0.00  0.00    +0.000 A 
ATOM     25  C   UNL     1       5.630   4.143  14.487  0.00  0.00    +0.000 A 
ATOM     26  C   UNL     1       4.910   4.208  15.694  0.00  0.00    +0.000 A 
ENDBRANCH  16  17
ENDBRANCH   1  16
BRANCH   6  27
ATOM     27  O   UNL     1       0.958  10.570  17.792  0.00  0.00    +0.000 OA
ATOM     28  H   UNL     1       0.385  10.048  17.195  0.00  0.00    +0.000 HD
ENDBRANCH   6  27
TORSDOF 3
ENDMDL
MODEL 8
REMARK VINA RESULT:      -8.3      1.669      2.369
REMARK  Name = 
REMARK  4 active torsions:
REMARK  status: ('A' for Active; 'I' for Inactive)
REMARK    1  A    between atoms: C_1  and  C_2
REMARK    2  A    between atoms: C_2  and  C_3
REMARK    3  A    between atoms: C_2  and  C_17
REMARK    4  A    between atoms: C_8  and  O_9
REMARK                            x       y       z     vdW  Elec       q    Type
REMARK                         _______ _______ _______ _____ _____    ______ ____
ROOT
ATOM      1  C   UNL     1       0.818  10.082  19.130  0.00  0.00    +0.000 C 
ATOM      2  O   UNL     1       0.592   9.707  20.284  0.00  0.00    +0.000 OA
ATOM      3  N   UNL     1       1.598   9.426  18.222  0.00  0.00    +0.000 N 
ATOM      4  C   UNL     1       2.252   8.207  18.450  0.00  0.00    +0.000 A 
ATOM      5  N   UNL     1       1.983   7.501  19.547  0.00  0.00    +0.000 NA
ATOM      6  C   UNL     1       2.682   6.385  19.715  0.00  0.00    +0.000 A 
ATOM      7  C   UNL     1       3.636   5.901  18.858  0.00  0.00    +0.000 A 
ATOM      8  C   UNL     1       3.860   6.702  17.751  0.00  0.00    +0.000 A 
ATOM      9  N   UNL     1       3.155   7.839  17.522  0.00  0.00    +0.000 NA
ATOM     10  C   UNL     1       4.899   6.317  16.725  0.00  0.00    +0.000 C 
ATOM     11  C   UNL     1       5.930   5.320  17.260  0.00  0.00    +0.000 C 
ATOM     12  C   UNL     1       5.226   4.162  17.958  0.00  0.00    +0.000 C 
ATOM     13  C   UNL     1       4.426   4.662  19.161  0.00  0.00    +0.000 C 
ATOM     14  H   UNL     1       1.869   9.858  17.346  0.00  0.00    +0.000 HD
ENDROOT
BRANCH   1  16
ATOM     15  C   UNL     1       0.671  12.572  19.465  0.00  0.00    +0.000 C 
ATOM     16  C   UNL     1       0.185  11.388  18.634  0.00  0.00    +0.000 C 
BRANCH  16  17
ATOM     17  C   UNL     1      -1.317  11.257  18.461  0.00  0.00    +0.000 A 
ATOM     18  C   UNL     1      -1.775  10.404  17.447  0.00  0.00    +0.000 A 
ATOM     19  C   UNL     1      -3.130  10.118  17.323  0.00  0.00    +0.000 A 
ATOM     20  C   UNL     1      -4.067  10.775  18.123  0.00  0.00    +0.000 A 
ATOM     21  C   UNL     1      -5.427  10.506  17.994  0.00  0.00    +0.000 A 
ATOM     22  C   UNL     1      -6.356  11.476  18.342  0.00  0.00    +0.000 A 
ATOM     23  C   UNL     1      -5.953  12.549  19.125  0.00  0.00    +0.000 A 
ATOM     24  C   UNL     1      -4.625  12.632  19.560  0.00  0.00    +0.000 A 
ATOM     25  C   UNL     1      -3.643  11.788  19.005  0.00  0.00    +0.000 A 
ATOM     26  C   UNL     1      -2.265  11.944  19.241  0.00  0.00    +0.000 A 
ENDBRANCH  16  17
ENDBRANCH   1  16
BRANCH   6  27
ATOM     27  O   UNL     1       2.381   5.744  20.872  0.00  0.00    +0.000 OA
ATOM     28  H   UNL     1       2.673   4.841  20.633  0.00  0.00    +0.000 HD
ENDBRANCH   6  27
TORSDOF 3
ENDMDL
MODEL 9
REMARK VINA RESULT:      -8.2      6.126      9.289
REMARK  Name = 
REMARK  4 active torsions:
REMARK  status: ('A' for Active; 'I' for Inactive)
REMARK    1  A    between atoms: C_1  and  C_2
REMARK    2  A    between atoms: C_2  and  C_3
REMARK    3  A    between atoms: C_2  and  C_17
REMARK    4  A    between atoms: C_8  and  O_9
REMARK                            x       y       z     vdW  Elec       q    Type
REMARK                         _______ _______ _______ _____ _____    ______ ____
ROOT
ATOM      1  C   UNL     1       7.661   6.851  18.105  0.00  0.00    +0.000 C 
ATOM      2  O   UNL     1       8.175   6.639  19.206  0.00  0.00    +0.000 OA
ATOM      3  N   UNL     1       7.616   8.060  17.472  0.00  0.00    +0.000 N 
ATOM      4  C   UNL     1       8.165   9.252  17.965  0.00  0.00    +0.000 A 
ATOM      5  N   UNL     1       8.958   9.228  19.035  0.00  0.00    +0.000 NA
ATOM      6  C   UNL     1       9.396  10.403  19.470  0.00  0.00    +0.000 A 
ATOM      7  C   UNL     1       9.111  11.620  18.910  0.00  0.00    +0.000 A 
ATOM      8  C   UNL     1       8.272  11.555  17.810  0.00  0.00    +0.000 A 
ATOM      9  N   UNL     1       7.818  10.377  17.313  0.00  0.00    +0.000 NA
ATOM     10  C   UNL     1       7.845  12.815  17.097  0.00  0.00    +0.000 C 
ATOM     11  C   UNL     1       8.007  14.074  17.952  0.00  0.00    +0.000 C 
ATOM     12  C   UNL     1       9.396  14.105  18.580  0.00  0.00    +0.000 C 
ATOM     13  C   UNL     1       9.597  12.908  19.510  0.00  0.00    +0.000 C 
ATOM     14  H   UNL     1       7.049   8.204  16.644  0.00  0.00    +0.000 HD
ENDROOT
BRANCH   1  16
ATOM     15  C   UNL     1       7.111   5.902  15.840  0.00  0.00    +0.000 C 
ATOM     16  C   UNL     1       7.012   5.686  17.348  0.00  0.00    +0.000 C 
BRANCH  16  17
ATOM     17  C   UNL     1       5.634   5.358  17.892  0.00  0.00    +0.000 A 
ATOM     18  C   UNL     1       4.611   6.287  17.653  0.00  0.00    +0.000 A 
ATOM     19  C   UNL     1       3.295   5.990  17.989  0.00  0.00    +0.000 A 
ATOM     20  C   UNL     1       2.991   4.820  18.688  0.00  0.00    +0.000 A 
ATOM     21  C   UNL     1       1.677   4.524  19.043  0.00  0.00    +0.000 A 
ATOM     22  C   UNL     1       1.428   3.721  20.146  0.00  0.00    +0.000 A 
ATOM     23  C   UNL     1       2.457   2.951  20.670  0.00  0.00    +0.000 A 
ATOM     24  C   UNL     1       3.723   2.985  20.073  0.00  0.00    +0.000 A 
ATOM     25  C   UNL     1       4.032   3.976  19.121  0.00  0.00    +0.000 A 
ATOM     26  C   UNL     1       5.330   4.198  18.628  0.00  0.00    +0.000 A 
ENDBRANCH  16  17
ENDBRANCH   1  16
BRANCH   6  27
ATOM     27  O   UNL     1      10.164  10.300  20.584  0.00  0.00    +0.000 OA
ATOM     28  H   UNL     1      11.041  10.208  20.163  0.00  0.00    +0.000 HD
ENDBRANCH   6  27
TORSDOF 3
ENDMDL
