MODEL 1
REMARK VINA RESULT:      -9.1      0.000      0.000
REMARK  Name = 
REMARK  5 active torsions:
REMARK  status: ('A' for Active; 'I' for Inactive)
REMARK    1  A    between atoms: C_1  and  C_2
REMARK    2  A    between atoms: C_5  and  C_6
REMARK    3  A    between atoms: C_8  and  N_9
REMARK    4  A    between atoms: C_10  and  C_12
REMARK    5  A    between atoms: C_23  and  C_24
REMARK                            x       y       z     vdW  Elec       q    Type
REMARK                         _______ _______ _______ _____ _____    ______ ____
ROOT
ATOM      1  N   UNL     1       1.634   6.304  20.848  0.00  0.00    +0.000 N 
ATOM      2  C   UNL     1       1.716   7.594  20.343  0.00  0.00    +0.000 C 
ATOM      3  O   UNL     1       2.195   7.863  19.245  0.00  0.00    +0.000 OA
ATOM      4  H   UNL     1       0.984   6.132  21.600  0.00  0.00    +0.000 HD
ENDROOT
BRANCH   2   5
ATOM      5  C   UNL     1       1.150   8.646  21.153  0.00  0.00    +0.000 A 
ATOM      6  N   UNL     1       1.363   8.917  22.478  0.00  0.00    +0.000 N 
ATOM      7  N   UNL     1       0.760  10.042  22.918  0.00  0.00    +0.000 NA
ATOM      8  C   UNL     1       0.168  10.526  21.824  0.00  0.00    +0.000 A 
ATOM      9  C   UNL     1       0.349   9.682  20.712  0.00  0.00    +0.000 A 
ATOM     10  C   UNL     1      -0.188   9.976  19.354  0.00  0.00    +0.000 C 
ATOM     11  C   UNL     1      -1.266  11.067  19.415  0.00  0.00    +0.000 C 
ATOM     12  C   UNL     1      -0.832  12.241  20.310  0.00  0.00    +0.000 C 
ATOM     13  C   UNL     1      -0.599  11.803  21.772  0.00  0.00    +0.000 C 
ATOM     14  H   UNL     1       1.948   8.414  23.137  0.00  0.00    +0.000 HD
ENDBRANCH   2   5
BRANCH   1  17
ATOM     15  C   UNL     1       3.873   4.100  18.758  0.00  0.00    +0.000 A 
ATOM     16  C   UNL     1       3.345   5.222  19.425  0.00  0.00    +0.000 A 
ATOM     17  C   UNL     1       2.191   5.162  20.215  0.00  0.00    +0.000 A 
ATOM     18  C   UNL     1       1.572   3.927  20.387  0.00  0.00    +0.000 A 
ATOM     19  C   UNL     1       2.076   2.792  19.741  0.00  0.00    +0.000 A 
ATOM     20  C   UNL     1       3.219   2.862  18.922  0.00  0.00    +0.000 A 
ATOM     21  C   UNL     1       3.707   1.606  18.248  0.00  0.00    +0.000 C 
BRANCH  15  26
ATOM     22  C   UNL     1       7.071   4.715  15.029  0.00  0.00    +0.000 C 
ATOM     23  C   UNL     1       6.534   4.539  16.391  0.00  0.00    +0.000 A 
ATOM     24  C   UNL     1       7.196   4.504  17.592  0.00  0.00    +0.000 A 
ATOM     25  O   UNL     1       6.275   4.328  18.574  0.00  0.00    +0.000 OA
ATOM     26  C   UNL     1       5.069   4.267  17.917  0.00  0.00    +0.000 A 
ATOM     27  N   UNL     1       5.184   4.383  16.606  0.00  0.00    +0.000 NA
ENDBRANCH  15  26
ENDBRANCH   1  17
TORSDOF 3
ENDMDL
MODEL 2
REMARK VINA RESULT:      -8.7      1.466      1.833
REMARK  Name = 
REMARK  5 active torsions:
REMARK  status: ('A' for Active; 'I' for Inactive)
REMARK    1  A    between atoms: C_1  and  C_2
REMARK    2  A    between atoms: C_5  and  C_6
REMARK    3  A    between atoms: C_8  and  N_9
REMARK    4  A    between atoms: C_10  and  C_12
REMARK    5  A    between atoms: C_23  and  C_24
REMARK                            x       y       z     vdW  Elec       q    Type
REMARK                         _______ _______ _______ _____ _____    ______ ____
ROOT
ATOM      1  N   UNL     1       2.080   7.433  20.056  0.00  0.00    +0.000 N 
ATOM      2  C   UNL     1       1.655   8.396  19.151  0.00  0.00    +0.000 C 
ATOM      3  O   UNL     1       1.534   8.188  17.948  0.00  0.00    +0.000 OA
ATOM      4  H   UNL     1       1.879   7.583  21.033  0.00  0.00    +0.000 HD
ENDROOT
BRANCH   2   5
ATOM      5  C   UNL     1       1.295   9.683  19.694  0.00  0.00    +0.000 A 
ATOM      6  N   UNL     1       1.410  10.920  19.120  0.00  0.00    +0.000 N 
ATOM      7  N   UNL     1       0.882  11.925  19.852  0.00  0.00    +0.000 NA
ATOM      8  C   UNL     1       0.381  11.300  20.920  0.00  0.00    +0.000 A 
ATOM      9  C   UNL     1       0.639   9.916  20.889  0.00  0.00    +0.000 A 
ATOM     10  C   UNL     1       0.185   8.966  21.941  0.00  0.00    +0.000 C 
ATOM     11  C   UNL     1      -0.230   9.715  23.215  0.00  0.00    +0.000 C 
ATOM     12  C   UNL     1      -1.107  10.937  22.892  0.00  0.00    +0.000 C 
ATOM     13  C   UNL     1      -0.364  11.973  22.021  0.00  0.00    +0.000 C 
ATOM     14  H   UNL     1       1.788  11.158  18.208  0.00  0.00    +0.000 HD
ENDBRANCH   2   5
BRANCH   1  17
ATOM     15  C   UNL     1       3.962   4.641  18.353  0.00  0.00    +0.000 A 
ATOM     16  C   UNL     1       3.545   5.926  18.751  0.00  0.00    +0.000 A 
ATOM     17  C   UNL     1       2.530   6.137  19.691  0.00  0.00    +0.000 A 
ATOM     18  C   UNL     1       1.944   5.026  20.292  0.00  0.00    +0.000 A 
ATOM     19  C   UNL     1       2.341   3.736  19.921  0.00  0.00    +0.000 A 
ATOM     20  C   UNL     1       3.340   3.527  18.952  0.00  0.00    +0.000 A 
ATOM     21  C   UNL     1       3.716   2.113  18.591  0.00  0.00    +0.000 C 
BRANCH  15  26
ATOM     22  C   UNL     1       6.532   4.138  14.151  0.00  0.00    +0.000 C 
ATOM     23  C   UNL     1       6.217   4.317  15.580  0.00  0.00    +0.000 A 
ATOM     24  C   UNL     1       7.064   4.500  16.644  0.00  0.00    +0.000 A 
ATOM     25  O   UNL     1       6.309   4.626  17.766  0.00  0.00    +0.000 OA
ATOM     26  C   UNL     1       5.010   4.517  17.327  0.00  0.00    +0.000 A 
ATOM     27  N   UNL     1       4.914   4.324  16.025  0.00  0.00    +0.000 NA
ENDBRANCH  15  26
ENDBRANCH   1  17
TORSDOF 3
ENDMDL
MODEL 3
REMARK VINA RESULT:      -8.3      0.957      1.124
REMARK  Name = 
REMARK  5 active torsions:
REMARK  status: ('A' for Active; 'I' for Inactive)
REMARK    1  A    between atoms: C_1  and  C_2
REMARK    2  A    between atoms: C_5  and  C_6
REMARK    3  A    between atoms: C_8  and  N_9
REMARK    4  A    between atoms: C_10  and  C_12
REMARK    5  A    between atoms: C_23  and  C_24
REMARK                            x       y       z     vdW  Elec       q    Type
REMARK                         _______ _______ _______ _____ _____    ______ ____
ROOT
ATOM      1  N   UNL     1       1.083   6.541  21.085  0.00  0.00    +0.000 N 
ATOM      2  C   UNL     1       1.294   7.841  20.647  0.00  0.00    +0.000 C 
ATOM      3  O   UNL     1       1.903   8.119  19.618  0.00  0.00    +0.000 OA
ATOM      4  H   UNL     1       0.347   6.383  21.756  0.00  0.00    +0.000 HD
ENDROOT
BRANCH   2   5
ATOM      5  C   UNL     1       0.706   8.896  21.438  0.00  0.00    +0.000 A 
ATOM      6  N   UNL     1       0.841   9.141  22.777  0.00  0.00    +0.000 N 
ATOM      7  N   UNL     1       0.242  10.276  23.198  0.00  0.00    +0.000 NA
ATOM      8  C   UNL     1      -0.266  10.792  22.077  0.00  0.00    +0.000 A 
ATOM      9  C   UNL     1      -0.037   9.961  20.964  0.00  0.00    +0.000 A 
ATOM     10  C   UNL     1      -0.479  10.289  19.580  0.00  0.00    +0.000 C 
ATOM     11  C   UNL     1      -1.529  11.409  19.591  0.00  0.00    +0.000 C 
ATOM     12  C   UNL     1      -1.121  12.557  20.531  0.00  0.00    +0.000 C 
ATOM     13  C   UNL     1      -0.993  12.091  21.997  0.00  0.00    +0.000 C 
ATOM     14  H   UNL     1       1.370   8.612  23.464  0.00  0.00    +0.000 HD
ENDBRANCH   2   5
BRANCH   1  17
ATOM     15  C   UNL     1       3.393   4.283  19.134  0.00  0.00    +0.000 A 
ATOM     16  C   UNL     1       2.863   5.412  19.789  0.00  0.00    +0.000 A 
ATOM     17  C   UNL     1       1.638   5.390  20.466  0.00  0.00    +0.000 A 
ATOM     18  C   UNL     1       0.942   4.186  20.535  0.00  0.00    +0.000 A 
ATOM     19  C   UNL     1       1.446   3.046  19.899  0.00  0.00    +0.000 A 
ATOM     20  C   UNL     1       2.663   3.079  19.192  0.00  0.00    +0.000 A 
ATOM     21  C   UNL     1       3.147   1.819  18.522  0.00  0.00    +0.000 C 
BRANCH  15  26
ATOM     22  C   UNL     1       8.160   4.499  17.812  0.00  0.00    +0.000 C 
ATOM     23  C   UNL     1       6.687   4.516  17.730  0.00  0.00    +0.000 A 
ATOM     24  C   UNL     1       5.876   4.670  16.634  0.00  0.00    +0.000 A 
ATOM     25  O   UNL     1       4.586   4.609  17.055  0.00  0.00    +0.000 OA
ATOM     26  C   UNL     1       4.669   4.411  18.413  0.00  0.00    +0.000 A 
ATOM     27  N   UNL     1       5.912   4.357  18.856  0.00  0.00    +0.000 NA
ENDBRANCH  15  26
ENDBRANCH   1  17
TORSDOF 3
ENDMDL
MODEL 4
REMARK VINA RESULT:      -8.3      2.845      8.992
REMARK  Name = 
REMARK  5 active torsions:
REMARK  status: ('A' for Active; 'I' for Inactive)
REMARK    1  A    between atoms: C_1  and  C_2
REMARK    2  A    between atoms: C_5  and  C_6
REMARK    3  A    between atoms: C_8  and  N_9
REMARK    4  A    between atoms: C_10  and  C_12
REMARK    5  A    between atoms: C_23  and  C_24
REMARK                            x       y       z     vdW  Elec       q    Type
REMARK                         _______ _______ _______ _____ _____    ______ ____
ROOT
ATOM      1  N   UNL     1       1.869   8.404  17.686  0.00  0.00    +0.000 N 
ATOM      2  C   UNL     1       2.362   7.497  18.614  0.00  0.00    +0.000 C 
ATOM      3  O   UNL     1       2.141   7.572  19.818  0.00  0.00    +0.000 OA
ATOM      4  H   UNL     1       1.845   8.122  16.717  0.00  0.00    +0.000 HD
ENDROOT
BRANCH   2   5
ATOM      5  C   UNL     1       3.127   6.389  18.095  0.00  0.00    +0.000 A 
ATOM      6  N   UNL     1       4.379   6.393  17.543  0.00  0.00    +0.000 N 
ATOM      7  N   UNL     1       4.862   5.167  17.248  0.00  0.00    +0.000 NA
ATOM      8  C   UNL     1       3.893   4.346  17.658  0.00  0.00    +0.000 A 
ATOM      9  C   UNL     1       2.782   5.051  18.159  0.00  0.00    +0.000 A 
ATOM     10  C   UNL     1       1.560   4.395  18.700  0.00  0.00    +0.000 C 
ATOM     11  C   UNL     1       1.499   2.919  18.282  0.00  0.00    +0.000 C 
ATOM     12  C   UNL     1       2.859   2.222  18.470  0.00  0.00    +0.000 C 
ATOM     13  C   UNL     1       3.963   2.858  17.597  0.00  0.00    +0.000 C 
ATOM     14  H   UNL     1       4.994   7.186  17.384  0.00  0.00    +0.000 HD
ENDBRANCH   2   5
BRANCH   1  17
ATOM     15  C   UNL     1      -0.915  10.925  18.045  0.00  0.00    +0.000 A 
ATOM     16  C   UNL     1      -0.212   9.741  17.753  0.00  0.00    +0.000 A 
ATOM     17  C   UNL     1       1.152   9.581  18.024  0.00  0.00    +0.000 A 
ATOM     18  C   UNL     1       1.826  10.623  18.655  0.00  0.00    +0.000 A 
ATOM     19  C   UNL     1       1.154  11.811  18.963  0.00  0.00    +0.000 A 
ATOM     20  C   UNL     1      -0.211  11.980  18.661  0.00  0.00    +0.000 A 
ATOM     21  C   UNL     1      -0.875  13.286  19.010  0.00  0.00    +0.000 C 
BRANCH  15  26
ATOM     22  C   UNL     1      -5.859  11.186  18.052  0.00  0.00    +0.000 C 
ATOM     23  C   UNL     1      -4.466  11.143  17.572  0.00  0.00    +0.000 A 
ATOM     24  C   UNL     1      -3.980  11.233  16.292  0.00  0.00    +0.000 A 
ATOM     25  O   UNL     1      -2.626  11.150  16.349  0.00  0.00    +0.000 OA
ATOM     26  C   UNL     1      -2.340  11.016  17.688  0.00  0.00    +0.000 A 
ATOM     27  N   UNL     1      -3.417  11.001  18.452  0.00  0.00    +0.000 NA
ENDBRANCH  15  26
ENDBRANCH   1  17
TORSDOF 3
ENDMDL
MODEL 5
REMARK VINA RESULT:      -8.3      2.033      8.563
REMARK  Name = 
REMARK  5 active torsions:
REMARK  status: ('A' for Active; 'I' for Inactive)
REMARK    1  A    between atoms: C_1  and  C_2
REMARK    2  A    between atoms: C_5  and  C_6
REMARK    3  A    between atoms: C_8  and  N_9
REMARK    4  A    between atoms: C_10  and  C_12
REMARK    5  A    between atoms: C_23  and  C_24
REMARK                            x       y       z     vdW  Elec       q    Type
REMARK                         _______ _______ _______ _____ _____    ______ ____
ROOT
ATOM      1  N   UNL     1       4.645   4.776  16.384  0.00  0.00    +0.000 N 
ATOM      2  C   UNL     1       6.033   4.742  16.397  0.00  0.00    +0.000 C 
ATOM      3  O   UNL     1       6.696   4.517  17.405  0.00  0.00    +0.000 OA
ATOM      4  H   UNL     1       4.179   4.676  15.495  0.00  0.00    +0.000 HD
ENDROOT
BRANCH   2   5
ATOM      5  C   UNL     1       6.698   4.931  15.130  0.00  0.00    +0.000 A 
ATOM      6  N   UNL     1       7.842   5.631  14.858  0.00  0.00    +0.000 N 
ATOM      7  N   UNL     1       8.266   5.530  13.580  0.00  0.00    +0.000 NA
ATOM      8  C   UNL     1       7.376   4.705  13.023  0.00  0.00    +0.000 A 
ATOM      9  C   UNL     1       6.365   4.332  13.929  0.00  0.00    +0.000 A 
ATOM     10  C   UNL     1       5.248   3.409  13.589  0.00  0.00    +0.000 C 
ATOM     11  C   UNL     1       5.115   3.245  12.068  0.00  0.00    +0.000 C 
ATOM     12  C   UNL     1       6.485   3.028  11.402  0.00  0.00    +0.000 C 
ATOM     13  C   UNL     1       7.432   4.229  11.611  0.00  0.00    +0.000 C 
ATOM     14  H   UNL     1       8.424   6.161  15.501  0.00  0.00    +0.000 HD
ENDBRANCH   2   5
BRANCH   1  17
ATOM     15  C   UNL     1       2.470   5.683  19.331  0.00  0.00    +0.000 A 
ATOM     16  C   UNL     1       3.237   5.779  18.154  0.00  0.00    +0.000 A 
ATOM     17  C   UNL     1       3.833   4.670  17.544  0.00  0.00    +0.000 A 
ATOM     18  C   UNL     1       3.613   3.412  18.099  0.00  0.00    +0.000 A 
ATOM     19  C   UNL     1       2.851   3.283  19.266  0.00  0.00    +0.000 A 
ATOM     20  C   UNL     1       2.279   4.405  19.895  0.00  0.00    +0.000 A 
ATOM     21  C   UNL     1       1.475   4.200  21.153  0.00  0.00    +0.000 C 
BRANCH  15  26
ATOM     22  C   UNL     1       0.430   9.088  22.290  0.00  0.00    +0.000 C 
ATOM     23  C   UNL     1       1.058   8.459  21.113  0.00  0.00    +0.000 A 
ATOM     24  C   UNL     1       1.429   9.019  19.917  0.00  0.00    +0.000 A 
ATOM     25  O   UNL     1       1.974   8.043  19.146  0.00  0.00    +0.000 OA
ATOM     26  C   UNL     1       1.915   6.910  19.923  0.00  0.00    +0.000 A 
ATOM     27  N   UNL     1       1.366   7.117  21.106  0.00  0.00    +0.000 NA
ENDBRANCH  15  26
ENDBRANCH   1  17
TORSDOF 3
ENDMDL
MODEL 6
REMARK VINA RESULT:      -8.2      2.503      8.358
REMARK  Name = 
REMARK  5 active torsions:
REMARK  status: ('A' for Active; 'I' for Inactive)
REMARK    1  A    between atoms: C_1  and  C_2
REMARK    2  A    between atoms: C_5  and  C_6
REMARK    3  A    between atoms: C_8  and  N_9
REMARK    4  A    between atoms: C_10  and  C_12
REMARK    5  A    between atoms: C_23  and  C_24
REMARK                            x       y       z     vdW  Elec       q    Type
REMARK                         _______ _______ _______ _____ _____    ______ ____
ROOT
ATOM      1  N   UNL     1       1.753   7.860  21.002  0.00  0.00    +0.000 N 
ATOM      2  C   UNL     1       2.082   7.536  19.693  0.00  0.00    +0.000 C 
ATOM      3  O   UNL     1       1.822   8.253  18.731  0.00  0.00    +0.000 OA
ATOM      4  H   UNL     1       2.243   7.383  21.744  0.00  0.00    +0.000 HD
ENDROOT
BRANCH   2   5
ATOM      5  C   UNL     1       2.816   6.309  19.493  0.00  0.00    +0.000 A 
ATOM      6  N   UNL     1       4.061   6.132  18.953  0.00  0.00    +0.000 N 
ATOM      7  N   UNL     1       4.512   4.860  19.002  0.00  0.00    +0.000 NA
ATOM      8  C   UNL     1       3.531   4.207  19.628  0.00  0.00    +0.000 A 
ATOM      9  C   UNL     1       2.443   5.049  19.923  0.00  0.00    +0.000 A 
ATOM     10  C   UNL     1       1.213   4.597  20.631  0.00  0.00    +0.000 C 
ATOM     11  C   UNL     1       1.115   3.064  20.635  0.00  0.00    +0.000 C 
ATOM     12  C   UNL     1       2.462   2.413  20.998  0.00  0.00    +0.000 C 
ATOM     13  C   UNL     1       3.568   2.758  19.977  0.00  0.00    +0.000 C 
ATOM     14  H   UNL     1       4.690   6.835  18.578  0.00  0.00    +0.000 HD
ENDBRANCH   2   5
BRANCH   1  17
ATOM     15  C   UNL     1       0.246  11.319  21.022  0.00  0.00    +0.000 A 
ATOM     16  C   UNL     1       0.972  10.179  20.630  0.00  0.00    +0.000 A 
ATOM     17  C   UNL     1       0.983   8.993  21.374  0.00  0.00    +0.000 A 
ATOM     18  C   UNL     1       0.200   8.927  22.523  0.00  0.00    +0.000 A 
ATOM     19  C   UNL     1      -0.538  10.043  22.936  0.00  0.00    +0.000 A 
ATOM     20  C   UNL     1      -0.521  11.244  22.202  0.00  0.00    +0.000 A 
ATOM     21  C   UNL     1      -1.330  12.412  22.704  0.00  0.00    +0.000 C 
BRANCH  15  26
ATOM     22  C   UNL     1       1.506  15.625  18.928  0.00  0.00    +0.000 C 
ATOM     23  C   UNL     1       0.781  14.374  19.216  0.00  0.00    +0.000 A 
ATOM     24  C   UNL     1      -0.314  13.835  18.589  0.00  0.00    +0.000 A 
ATOM     25  O   UNL     1      -0.617  12.664  19.205  0.00  0.00    +0.000 OA
ATOM     26  C   UNL     1       0.327  12.535  20.197  0.00  0.00    +0.000 A 
ATOM     27  N   UNL     1       1.178  13.543  20.240  0.00  0.00    +0.000 NA
ENDBRANCH  15  26
ENDBRANCH   1  17
TORSDOF 3
ENDMDL
MODEL 7
REMARK VINA RESULT:      -8.1      2.536      8.462
REMARK  Name = 
REMARK  5 active torsions:
REMARK  status: ('A' for Active; 'I' for Inactive)
REMARK    1  A    between atoms: C_1  and  C_2
REMARK    2  A    between atoms: C_5  and  C_6
REMARK    3  A    between atoms: C_8  and  N_9
REMARK    4  A    between atoms: C_10  and  C_12
REMARK    5  A    between atoms: C_23  and  C_24
REMARK                            x       y       z     vdW  Elec       q    Type
REMARK                         _______ _______ _______ _____ _____    ______ ____
ROOT
ATOM      1  N   UNL     1       1.693   7.997  21.094  0.00  0.00    +0.000 N 
ATOM      2  C   UNL     1       1.956   7.710  19.761  0.00  0.00    +0.000 C 
ATOM      3  O   UNL     1       1.608   8.433  18.832  0.00  0.00    +0.000 OA
ATOM      4  H   UNL     1       2.246   7.528  21.795  0.00  0.00    +0.000 HD
ENDROOT
BRANCH   2   5
ATOM      5  C   UNL     1       2.727   6.521  19.493  0.00  0.00    +0.000 A 
ATOM      6  N   UNL     1       3.940   6.407  18.869  0.00  0.00    +0.000 N 
ATOM      7  N   UNL     1       4.449   5.156  18.867  0.00  0.00    +0.000 NA
ATOM      8  C   UNL     1       3.542   4.451  19.546  0.00  0.00    +0.000 A 
ATOM      9  C   UNL     1       2.440   5.239  19.926  0.00  0.00    +0.000 A 
ATOM     10  C   UNL     1       1.281   4.723  20.706  0.00  0.00    +0.000 C 
ATOM     11  C   UNL     1       1.251   3.188  20.692  0.00  0.00    +0.000 C 
ATOM     12  C   UNL     1       2.646   2.593  20.953  0.00  0.00    +0.000 C 
ATOM     13  C   UNL     1       3.666   3.001  19.868  0.00  0.00    +0.000 C 
ATOM     14  H   UNL     1       4.511   7.143  18.465  0.00  0.00    +0.000 HD
ENDBRANCH   2   5
BRANCH   1  17
ATOM     15  C   UNL     1       0.259  11.468  21.459  0.00  0.00    +0.000 A 
ATOM     16  C   UNL     1       1.013  10.374  20.993  0.00  0.00    +0.000 A 
ATOM     17  C   UNL     1       0.899   9.088  21.534  0.00  0.00    +0.000 A 
ATOM     18  C   UNL     1      -0.036   8.877  22.543  0.00  0.00    +0.000 A 
ATOM     19  C   UNL     1      -0.804   9.943  23.025  0.00  0.00    +0.000 A 
ATOM     20  C   UNL     1      -0.665  11.242  22.500  0.00  0.00    +0.000 A 
ATOM     21  C   UNL     1      -1.514  12.349  23.067  0.00  0.00    +0.000 C 
BRANCH  15  26
ATOM     22  C   UNL     1       0.009  15.615  18.766  0.00  0.00    +0.000 C 
ATOM     23  C   UNL     1       0.457  14.623  19.760  0.00  0.00    +0.000 A 
ATOM     24  C   UNL     1       1.474  14.705  20.677  0.00  0.00    +0.000 A 
ATOM     25  O   UNL     1       1.500  13.543  21.381  0.00  0.00    +0.000 OA
ATOM     26  C   UNL     1       0.475  12.792  20.855  0.00  0.00    +0.000 A 
ATOM     27  N   UNL     1      -0.169  13.402  19.877  0.00  0.00    +0.000 NA
ENDBRANCH  15  26
ENDBRANCH   1  17
TORSDOF 3
ENDMDL
MODEL 8
REMARK VINA RESULT:      -8.1      1.943      2.286
REMARK  Name = 
REMARK  5 active torsions:
REMARK  status: ('A' for Active; 'I' for Inactive)
REMARK    1  A    between atoms: C_1  and  C_2
REMARK    2  A    between atoms: C_5  and  C_6
REMARK    3  A    between atoms: C_8  and  N_9
REMARK    4  A    between atoms: C_10  and  C_12
REMARK    5  A    between atoms: C_23  and  C_24
REMARK                            x       y       z     vdW  Elec       q    Type
REMARK                         _______ _______ _______ _____ _____    ______ ____
ROOT
ATOM      1  N   UNL     1       1.836   7.888  19.506  0.00  0.00    +0.000 N 
ATOM      2  C   UNL     1       1.829   8.779  18.441  0.00  0.00    +0.000 C 
ATOM      3  O   UNL     1       2.294   8.518  17.336  0.00  0.00    +0.000 OA
ATOM      4  H   UNL     1       1.195   8.056  20.266  0.00  0.00    +0.000 HD
ENDROOT
BRANCH   2   5
ATOM      5  C   UNL     1       1.184  10.051  18.664  0.00  0.00    +0.000 A 
ATOM      6  N   UNL     1       1.728  11.221  19.120  0.00  0.00    +0.000 N 
ATOM      7  N   UNL     1       0.875  12.268  19.119  0.00  0.00    +0.000 NA
ATOM      8  C   UNL     1      -0.247  11.754  18.611  0.00  0.00    +0.000 A 
ATOM      9  C   UNL     1      -0.121  10.377  18.345  0.00  0.00    +0.000 A 
ATOM     10  C   UNL     1      -1.208   9.544  17.761  0.00  0.00    +0.000 C 
ATOM     11  C   UNL     1      -2.563  10.260  17.863  0.00  0.00    +0.000 C 
ATOM     12  C   UNL     1      -2.454  11.737  17.444  0.00  0.00    +0.000 C 
ATOM     13  C   UNL     1      -1.493  12.531  18.354  0.00  0.00    +0.000 C 
ATOM     14  H   UNL     1       2.687  11.402  19.400  0.00  0.00    +0.000 HD
ENDBRANCH   2   5
BRANCH   1  17
ATOM     15  C   UNL     1       4.063   5.017  18.486  0.00  0.00    +0.000 A 
ATOM     16  C   UNL     1       3.458   6.287  18.541  0.00  0.00    +0.000 A 
ATOM     17  C   UNL     1       2.478   6.622  19.482  0.00  0.00    +0.000 A 
ATOM     18  C   UNL     1       2.125   5.670  20.436  0.00  0.00    +0.000 A 
ATOM     19  C   UNL     1       2.712   4.400  20.411  0.00  0.00    +0.000 A 
ATOM     20  C   UNL     1       3.675   4.057  19.443  0.00  0.00    +0.000 A 
ATOM     21  C   UNL     1       4.263   2.669  19.465  0.00  0.00    +0.000 C 
BRANCH  15  26
ATOM     22  C   UNL     1       6.410   3.997  14.248  0.00  0.00    +0.000 C 
ATOM     23  C   UNL     1       6.170   4.322  15.666  0.00  0.00    +0.000 A 
ATOM     24  C   UNL     1       7.073   4.553  16.674  0.00  0.00    +0.000 A 
ATOM     25  O   UNL     1       6.377   4.820  17.809  0.00  0.00    +0.000 OA
ATOM     26  C   UNL     1       5.055   4.744  17.435  0.00  0.00    +0.000 A 
ATOM     27  N   UNL     1       4.891   4.440  16.161  0.00  0.00    +0.000 NA
ENDBRANCH  15  26
ENDBRANCH   1  17
TORSDOF 3
ENDMDL
MODEL 9
REMARK VINA RESULT:      -8.1      2.950      8.955
REMARK  Name = 
REMARK  5 active torsions:
REMARK  status: ('A' for Active; 'I' for Inactive)
REMARK    1  A    between atoms: C_1  and  C_2
REMARK    2  A    between atoms: C_5  and  C_6
REMARK    3  A    between atoms: C_8  and  N_9
REMARK    4  A    between atoms: C_10  and  C_12
REMARK    5  A    between atoms: C_23  and  C_24
REMARK                            x       y       z     vdW  Elec       q    Type
REMARK                         _______ _______ _______ _____ _____    ______ ____
ROOT
ATOM      1  N   UNL     1       1.732   8.567  18.275  0.00  0.00    +0.000 N 
ATOM      2  C   UNL     1       2.094   7.784  19.363  0.00  0.00    +0.000 C 
ATOM      3  O   UNL     1       1.864   8.095  20.528  0.00  0.00    +0.000 OA
ATOM      4  H   UNL     1       1.689   8.125  17.369  0.00  0.00    +0.000 HD
ENDROOT
BRANCH   2   5
ATOM      5  C   UNL     1       2.725   6.519  19.071  0.00  0.00    +0.000 A 
ATOM      6  N   UNL     1       3.811   6.264  18.278  0.00  0.00    +0.000 N 
ATOM      7  N   UNL     1       4.221   4.978  18.294  0.00  0.00    +0.000 NA
ATOM      8  C   UNL     1       3.384   4.396  19.156  0.00  0.00    +0.000 A 
ATOM      9  C   UNL     1       2.417   5.297  19.640  0.00  0.00    +0.000 A 
ATOM     10  C   UNL     1       1.364   4.930  20.626  0.00  0.00    +0.000 C 
ATOM     11  C   UNL     1       1.220   3.406  20.734  0.00  0.00    +0.000 C 
ATOM     12  C   UNL     1       2.592   2.713  20.822  0.00  0.00    +0.000 C 
ATOM     13  C   UNL     1       3.452   2.964  19.565  0.00  0.00    +0.000 C 
ATOM     14  H   UNL     1       4.363   6.922  17.736  0.00  0.00    +0.000 HD
ENDBRANCH   2   5
BRANCH   1  17
ATOM     15  C   UNL     1      -0.786  11.376  18.369  0.00  0.00    +0.000 A 
ATOM     16  C   UNL     1      -0.220  10.088  18.312  0.00  0.00    +0.000 A 
ATOM     17  C   UNL     1       1.160   9.862  18.379  0.00  0.00    +0.000 A 
ATOM     18  C   UNL     1       2.001  10.957  18.560  0.00  0.00    +0.000 A 
ATOM     19  C   UNL     1       1.467  12.249  18.625  0.00  0.00    +0.000 A 
ATOM     20  C   UNL     1       0.081  12.475  18.526  0.00  0.00    +0.000 A 
ATOM     21  C   UNL     1      -0.429  13.891  18.594  0.00  0.00    +0.000 C 
BRANCH  15  26
ATOM     22  C   UNL     1      -5.611  12.168  19.146  0.00  0.00    +0.000 C 
ATOM     23  C   UNL     1      -4.343  11.841  18.469  0.00  0.00    +0.000 A 
ATOM     24  C   UNL     1      -4.114  11.516  17.155  0.00  0.00    +0.000 A 
ATOM     25  O   UNL     1      -2.781  11.304  17.002  0.00  0.00    +0.000 OA
ATOM     26  C   UNL     1      -2.246  11.519  18.250  0.00  0.00    +0.000 A 
ATOM     27  N   UNL     1      -3.152  11.835  19.158  0.00  0.00    +0.000 NA
ENDBRANCH  15  26
ENDBRANCH   1  17
TORSDOF 3
ENDMDL
