MODEL 1
REMARK VINA RESULT:      -7.3      0.000      0.000
REMARK  Name = 
REMARK  5 active torsions:
REMARK  status: ('A' for Active; 'I' for Inactive)
REMARK    1  A    between atoms: C_1  and  N_2
REMARK    2  A    between atoms: C_3  and  C_5
REMARK    3  A    between atoms: C_13  and  C_15
REMARK    4  A    between atoms: C_15  and  C_16
REMARK    5  A    between atoms: C_20  and  C_21
REMARK                            x       y       z     vdW  Elec       q    Type
REMARK                         _______ _______ _______ _____ _____    ______ ____
ROOT
ATOM      1  C   UNL     1       5.825   5.366  16.928  0.00  0.00    +0.000 C 
ATOM      2  C   UNL     1       7.231   4.691  16.750  0.00  0.00    +0.000 C 
ATOM      3  C   UNL     1       7.701   4.428  15.294  0.00  0.00    +0.000 C 
ATOM      4  O   UNL     1       6.711   4.586  14.296  0.00  0.00    +0.000 OA
ATOM      5  C   UNL     1       5.488   4.036  14.730  0.00  0.00    +0.000 C 
ATOM      6  C   UNL     1       4.894   5.012  15.728  0.00  0.00    +0.000 C 
ATOM      7  C   UNL     1       3.678   4.298  16.283  0.00  0.00    +0.000 C 
ATOM      8  N   UNL     1       3.567   4.790  17.611  0.00  0.00    +0.000 N 
ATOM      9  C   UNL     1       2.355   4.577  18.244  0.00  0.00    +0.000 C 
ATOM     10  O   UNL     1       1.462   3.901  17.744  0.00  0.00    +0.000 OA
ATOM     11  C   UNL     1       4.921   4.973  18.157  0.00  0.00    +0.000 C 
ENDROOT
BRANCH   1  14
ATOM     12  C   UNL     1       7.815   8.555  17.790  0.00  0.00    +0.000 C 
ATOM     13  N   UNL     1       7.509   7.157  17.551  0.00  0.00    +0.000 N 
ATOM     14  C   UNL     1       6.209   6.798  17.365  0.00  0.00    +0.000 C 
ATOM     15  O   UNL     1       5.314   7.645  17.465  0.00  0.00    +0.000 OA
ATOM     16  H   UNL     1       8.260   6.532  17.329  0.00  0.00    +0.000 HD
ENDBRANCH   1  14
BRANCH   9  17
ATOM     17  C   UNL     1       2.098   5.226  19.581  0.00  0.00    +0.000 C 
ATOM     18  C   UNL     1       2.673   4.490  20.794  0.00  0.00    +0.000 C 
ATOM     19  C   UNL     1       1.194   4.506  20.571  0.00  0.00    +0.000 C 
BRANCH  17  20
ATOM     20  C   UNL     1       2.159   6.737  19.514  0.00  0.00    +0.000 A 
ATOM     21  C   UNL     1       2.205   7.378  18.262  0.00  0.00    +0.000 A 
ATOM     22  C   UNL     1       1.729   8.677  18.107  0.00  0.00    +0.000 A 
ATOM     23  C   UNL     1       1.244   9.374  19.212  0.00  0.00    +0.000 A 
ATOM     24  C   UNL     1       1.335   8.804  20.485  0.00  0.00    +0.000 A 
ATOM     25  C   UNL     1       1.833   7.510  20.638  0.00  0.00    +0.000 A 
BRANCH  24  26
ATOM     26  C   UNL     1       0.808   9.488  21.617  0.00  0.00    +0.000 C 
ATOM     27  N   UNL     1       0.362  10.075  22.521  0.00  0.00    +0.000 NA
ENDBRANCH  24  26
ENDBRANCH  17  20
ENDBRANCH   9  17
TORSDOF 4
ENDMDL
MODEL 2
REMARK VINA RESULT:      -7.2      2.426      6.494
REMARK  Name = 
REMARK  5 active torsions:
REMARK  status: ('A' for Active; 'I' for Inactive)
REMARK    1  A    between atoms: C_1  and  N_2
REMARK    2  A    between atoms: C_3  and  C_5
REMARK    3  A    between atoms: C_13  and  C_15
REMARK    4  A    between atoms: C_15  and  C_16
REMARK    5  A    between atoms: C_20  and  C_21
REMARK                            x       y       z     vdW  Elec       q    Type
REMARK                         _______ _______ _______ _____ _____    ______ ____
ROOT
ATOM      1  C   UNL     1       2.278   7.145  19.452  0.00  0.00    +0.000 C 
ATOM      2  C   UNL     1       2.026   8.133  20.644  0.00  0.00    +0.000 C 
ATOM      3  C   UNL     1       0.949   9.230  20.429  0.00  0.00    +0.000 C 
ATOM      4  O   UNL     1       0.496   9.385  19.098  0.00  0.00    +0.000 OA
ATOM      5  C   UNL     1       1.579   9.303  18.200  0.00  0.00    +0.000 C 
ATOM      6  C   UNL     1       1.954   7.837  18.093  0.00  0.00    +0.000 C 
ATOM      7  C   UNL     1       3.217   7.827  17.257  0.00  0.00    +0.000 C 
ATOM      8  N   UNL     1       3.937   6.699  17.734  0.00  0.00    +0.000 N 
ATOM      9  C   UNL     1       4.964   6.241  16.928  0.00  0.00    +0.000 C 
ATOM     10  O   UNL     1       5.321   6.835  15.917  0.00  0.00    +0.000 OA
ATOM     11  C   UNL     1       3.731   6.595  19.187  0.00  0.00    +0.000 C 
ENDROOT
BRANCH   1  14
ATOM     12  C   UNL     1       0.946   3.536  19.716  0.00  0.00    +0.000 C 
ATOM     13  N   UNL     1       1.402   4.786  19.138  0.00  0.00    +0.000 N 
ATOM     14  C   UNL     1       1.623   5.844  19.967  0.00  0.00    +0.000 C 
ATOM     15  O   UNL     1       1.372   5.746  21.173  0.00  0.00    +0.000 OA
ATOM     16  H   UNL     1       1.735   4.785  18.193  0.00  0.00    +0.000 HD
ENDBRANCH   1  14
BRANCH   9  17
ATOM     17  C   UNL     1       5.652   4.945  17.278  0.00  0.00    +0.000 C 
ATOM     18  C   UNL     1       7.090   5.076  17.787  0.00  0.00    +0.000 C 
ATOM     19  C   UNL     1       6.835   4.504  16.428  0.00  0.00    +0.000 C 
BRANCH  17  20
ATOM     20  C   UNL     1       4.713   3.942  17.912  0.00  0.00    +0.000 A 
ATOM     21  C   UNL     1       3.778   3.259  17.113  0.00  0.00    +0.000 A 
ATOM     22  C   UNL     1       3.298   2.008  17.488  0.00  0.00    +0.000 A 
ATOM     23  C   UNL     1       3.708   1.441  18.694  0.00  0.00    +0.000 A 
ATOM     24  C   UNL     1       4.514   2.176  19.566  0.00  0.00    +0.000 A 
ATOM     25  C   UNL     1       4.976   3.439  19.195  0.00  0.00    +0.000 A 
BRANCH  24  26
ATOM     26  C   UNL     1       4.972   1.595  20.784  0.00  0.00    +0.000 C 
ATOM     27  N   UNL     1       5.381   1.134  21.773  0.00  0.00    +0.000 NA
ENDBRANCH  24  26
ENDBRANCH  17  20
ENDBRANCH   9  17
TORSDOF 4
ENDMDL
MODEL 3
REMARK VINA RESULT:      -7.2      2.891      7.122
REMARK  Name = 
REMARK  5 active torsions:
REMARK  status: ('A' for Active; 'I' for Inactive)
REMARK    1  A    between atoms: C_1  and  N_2
REMARK    2  A    between atoms: C_3  and  C_5
REMARK    3  A    between atoms: C_13  and  C_15
REMARK    4  A    between atoms: C_15  and  C_16
REMARK    5  A    between atoms: C_20  and  C_21
REMARK                            x       y       z     vdW  Elec       q    Type
REMARK                         _______ _______ _______ _____ _____    ______ ____
ROOT
ATOM      1  C   UNL     1       3.369   3.370  19.940  0.00  0.00    +0.000 C 
ATOM      2  C   UNL     1       2.874   3.113  21.406  0.00  0.00    +0.000 C 
ATOM      3  C   UNL     1       1.349   2.896  21.601  0.00  0.00    +0.000 C 
ATOM      4  O   UNL     1       0.541   3.209  20.483  0.00  0.00    +0.000 OA
ATOM      5  C   UNL     1       0.991   4.396  19.871  0.00  0.00    +0.000 C 
ATOM      6  C   UNL     1       2.246   4.045  19.095  0.00  0.00    +0.000 C 
ATOM      7  C   UNL     1       2.776   5.377  18.603  0.00  0.00    +0.000 C 
ATOM      8  N   UNL     1       4.183   5.190  18.551  0.00  0.00    +0.000 N 
ATOM      9  C   UNL     1       4.898   6.118  17.815  0.00  0.00    +0.000 C 
ATOM     10  O   UNL     1       4.375   7.116  17.330  0.00  0.00    +0.000 OA
ATOM     11  C   UNL     1       4.583   4.343  19.685  0.00  0.00    +0.000 C 
ENDROOT
BRANCH   1  14
ATOM     12  C   UNL     1       5.484   0.151  20.126  0.00  0.00    +0.000 C 
ATOM     13  N   UNL     1       5.000   1.488  20.416  0.00  0.00    +0.000 N 
ATOM     14  C   UNL     1       4.061   2.033  19.594  0.00  0.00    +0.000 C 
ATOM     15  O   UNL     1       3.686   1.416  18.590  0.00  0.00    +0.000 OA
ATOM     16  H   UNL     1       5.209   1.891  21.309  0.00  0.00    +0.000 HD
ENDBRANCH   1  14
BRANCH   9  17
ATOM     17  C   UNL     1       6.367   5.885  17.564  0.00  0.00    +0.000 C 
ATOM     18  C   UNL     1       7.235   5.733  18.815  0.00  0.00    +0.000 C 
ATOM     19  C   UNL     1       7.351   6.968  17.978  0.00  0.00    +0.000 C 
BRANCH  17  20
ATOM     20  C   UNL     1       6.615   5.004  16.358  0.00  0.00    +0.000 A 
ATOM     21  C   UNL     1       5.785   3.893  16.122  0.00  0.00    +0.000 A 
ATOM     22  C   UNL     1       5.603   3.398  14.834  0.00  0.00    +0.000 A 
ATOM     23  C   UNL     1       6.290   3.976  13.767  0.00  0.00    +0.000 A 
ATOM     24  C   UNL     1       7.233   4.978  14.011  0.00  0.00    +0.000 A 
ATOM     25  C   UNL     1       7.426   5.456  15.307  0.00  0.00    +0.000 A 
BRANCH  24  26
ATOM     26  C   UNL     1       7.912   5.603  12.926  0.00  0.00    +0.000 C 
ATOM     27  N   UNL     1       8.445   6.145  12.043  0.00  0.00    +0.000 NA
ENDBRANCH  24  26
ENDBRANCH  17  20
ENDBRANCH   9  17
TORSDOF 4
ENDMDL
MODEL 4
REMARK VINA RESULT:      -7.0      3.014      7.649
REMARK  Name = 
REMARK  5 active torsions:
REMARK  status: ('A' for Active; 'I' for Inactive)
REMARK    1  A    between atoms: C_1  and  N_2
REMARK    2  A    between atoms: C_3  and  C_5
REMARK    3  A    between atoms: C_13  and  C_15
REMARK    4  A    between atoms: C_15  and  C_16
REMARK    5  A    between atoms: C_20  and  C_21
REMARK                            x       y       z     vdW  Elec       q    Type
REMARK                         _______ _______ _______ _____ _____    ______ ____
ROOT
ATOM      1  C   UNL     1       0.420  10.649  20.711  0.00  0.00    +0.000 C 
ATOM      2  C   UNL     1      -0.959  11.393  20.782  0.00  0.00    +0.000 C 
ATOM      3  C   UNL     1      -1.415  11.892  22.179  0.00  0.00    +0.000 C 
ATOM      4  O   UNL     1      -0.667  11.401  23.275  0.00  0.00    +0.000 OA
ATOM      5  C   UNL     1      -0.380  10.032  23.097  0.00  0.00    +0.000 C 
ATOM      6  C   UNL     1       0.730   9.944  22.067  0.00  0.00    +0.000 C 
ATOM      7  C   UNL     1       0.878   8.461  21.791  0.00  0.00    +0.000 C 
ATOM      8  N   UNL     1       1.303   8.403  20.437  0.00  0.00    +0.000 N 
ATOM      9  C   UNL     1       1.846   7.202  20.016  0.00  0.00    +0.000 C 
ATOM     10  O   UNL     1       1.857   6.201  20.725  0.00  0.00    +0.000 OA
ATOM     11  C   UNL     1       0.619   9.468  19.687  0.00  0.00    +0.000 C 
ENDROOT
BRANCH   1  14
ATOM     12  C   UNL     1       2.187  12.859  18.091  0.00  0.00    +0.000 C 
ATOM     13  N   UNL     1       1.471  11.742  18.678  0.00  0.00    +0.000 N 
ATOM     14  C   UNL     1       1.321  11.705  20.032  0.00  0.00    +0.000 C 
ATOM     15  O   UNL     1       1.845  12.576  20.735  0.00  0.00    +0.000 OA
ATOM     16  H   UNL     1       0.937  11.145  18.077  0.00  0.00    +0.000 HD
ENDBRANCH   1  14
BRANCH   9  17
ATOM     17  C   UNL     1       2.484   7.120  18.652  0.00  0.00    +0.000 C 
ATOM     18  C   UNL     1       3.174   8.398  18.168  0.00  0.00    +0.000 C 
ATOM     19  C   UNL     1       1.894   7.960  17.528  0.00  0.00    +0.000 C 
BRANCH  17  20
ATOM     20  C   UNL     1       3.117   5.772  18.387  0.00  0.00    +0.000 A 
ATOM     21  C   UNL     1       2.343   4.733  17.836  0.00  0.00    +0.000 A 
ATOM     22  C   UNL     1       2.937   3.717  17.094  0.00  0.00    +0.000 A 
ATOM     23  C   UNL     1       4.321   3.695  16.932  0.00  0.00    +0.000 A 
ATOM     24  C   UNL     1       5.112   4.633  17.601  0.00  0.00    +0.000 A 
ATOM     25  C   UNL     1       4.513   5.637  18.362  0.00  0.00    +0.000 A 
BRANCH  24  26
ATOM     26  C   UNL     1       6.524   4.646  17.414  0.00  0.00    +0.000 C 
ATOM     27  N   UNL     1       7.683   4.642  17.296  0.00  0.00    +0.000 NA
ENDBRANCH  24  26
ENDBRANCH  17  20
ENDBRANCH   9  17
TORSDOF 4
ENDMDL
MODEL 5
REMARK VINA RESULT:      -6.9      3.019      5.017
REMARK  Name = 
REMARK  5 active torsions:
REMARK  status: ('A' for Active; 'I' for Inactive)
REMARK    1  A    between atoms: C_1  and  N_2
REMARK    2  A    between atoms: C_3  and  C_5
REMARK    3  A    between atoms: C_13  and  C_15
REMARK    4  A    between atoms: C_15  and  C_16
REMARK    5  A    between atoms: C_20  and  C_21
REMARK                            x       y       z     vdW  Elec       q    Type
REMARK                         _______ _______ _______ _____ _____    ______ ____
ROOT
ATOM      1  C   UNL     1       2.463   5.654  18.524  0.00  0.00    +0.000 C 
ATOM      2  C   UNL     1       2.272   4.355  17.666  0.00  0.00    +0.000 C 
ATOM      3  C   UNL     1       3.558   3.687  17.112  0.00  0.00    +0.000 C 
ATOM      4  O   UNL     1       4.740   4.457  17.219  0.00  0.00    +0.000 OA
ATOM      5  C   UNL     1       4.475   5.805  16.900  0.00  0.00    +0.000 C 
ATOM      6  C   UNL     1       3.757   6.408  18.091  0.00  0.00    +0.000 C 
ATOM      7  C   UNL     1       3.350   7.793  17.630  0.00  0.00    +0.000 C 
ATOM      8  N   UNL     1       2.151   8.056  18.344  0.00  0.00    +0.000 N 
ATOM      9  C   UNL     1       1.739   9.377  18.385  0.00  0.00    +0.000 C 
ATOM     10  O   UNL     1       2.301  10.261  17.748  0.00  0.00    +0.000 OA
ATOM     11  C   UNL     1       1.387   6.804  18.450  0.00  0.00    +0.000 C 
ENDROOT
BRANCH   1  14
ATOM     12  C   UNL     1       2.219   3.455  21.682  0.00  0.00    +0.000 C 
ATOM     13  N   UNL     1       2.348   3.836  20.288  0.00  0.00    +0.000 N 
ATOM     14  C   UNL     1       2.166   5.143  19.952  0.00  0.00    +0.000 C 
ATOM     15  O   UNL     1       1.835   5.963  20.816  0.00  0.00    +0.000 OA
ATOM     16  H   UNL     1       2.760   3.185  19.648  0.00  0.00    +0.000 HD
ENDBRANCH   1  14
BRANCH   9  17
ATOM     17  C   UNL     1       0.580   9.759  19.272  0.00  0.00    +0.000 C 
ATOM     18  C   UNL     1       0.957  10.352  20.632  0.00  0.00    +0.000 C 
ATOM     19  C   UNL     1       0.370   8.977  20.561  0.00  0.00    +0.000 C 
BRANCH  17  20
ATOM     20  C   UNL     1      -0.583  10.333  18.492  0.00  0.00    +0.000 A 
ATOM     21  C   UNL     1      -1.045   9.670  17.340  0.00  0.00    +0.000 A 
ATOM     22  C   UNL     1      -2.364   9.809  16.917  0.00  0.00    +0.000 A 
ATOM     23  C   UNL     1      -3.229  10.654  17.612  0.00  0.00    +0.000 A 
ATOM     24  C   UNL     1      -2.740  11.433  18.663  0.00  0.00    +0.000 A 
ATOM     25  C   UNL     1      -1.412  11.306  19.070  0.00  0.00    +0.000 A 
BRANCH  24  26
ATOM     26  C   UNL     1      -3.621  12.271  19.406  0.00  0.00    +0.000 C 
ATOM     27  N   UNL     1      -4.361  12.964  19.981  0.00  0.00    +0.000 NA
ENDBRANCH  24  26
ENDBRANCH  17  20
ENDBRANCH   9  17
TORSDOF 4
ENDMDL
MODEL 6
REMARK VINA RESULT:      -6.9      2.320      6.245
REMARK  Name = 
REMARK  5 active torsions:
REMARK  status: ('A' for Active; 'I' for Inactive)
REMARK    1  A    between atoms: C_1  and  N_2
REMARK    2  A    between atoms: C_3  and  C_5
REMARK    3  A    between atoms: C_13  and  C_15
REMARK    4  A    between atoms: C_15  and  C_16
REMARK    5  A    between atoms: C_20  and  C_21
REMARK                            x       y       z     vdW  Elec       q    Type
REMARK                         _______ _______ _______ _____ _____    ______ ____
ROOT
ATOM      1  C   UNL     1       2.141   7.454  18.663  0.00  0.00    +0.000 C 
ATOM      2  C   UNL     1       0.972   8.408  18.232  0.00  0.00    +0.000 C 
ATOM      3  C   UNL     1       0.562   9.513  19.241  0.00  0.00    +0.000 C 
ATOM      4  O   UNL     1       1.106   9.383  20.541  0.00  0.00    +0.000 OA
ATOM      5  C   UNL     1       1.075   8.035  20.951  0.00  0.00    +0.000 C 
ATOM      6  C   UNL     1       2.193   7.323  20.216  0.00  0.00    +0.000 C 
ATOM      7  C   UNL     1       2.006   5.860  20.561  0.00  0.00    +0.000 C 
ATOM      8  N   UNL     1       2.488   5.171  19.416  0.00  0.00    +0.000 N 
ATOM      9  C   UNL     1       2.759   3.824  19.579  0.00  0.00    +0.000 C 
ATOM     10  O   UNL     1       2.492   3.220  20.613  0.00  0.00    +0.000 OA
ATOM     11  C   UNL     1       2.119   5.942  18.218  0.00  0.00    +0.000 C 
ENDROOT
BRANCH   1  14
ATOM     12  C   UNL     1       5.477   7.690  16.744  0.00  0.00    +0.000 C 
ATOM     13  N   UNL     1       4.491   7.281  17.726  0.00  0.00    +0.000 N 
ATOM     14  C   UNL     1       3.303   7.946  17.771  0.00  0.00    +0.000 C 
ATOM     15  O   UNL     1       3.110   8.916  17.030  0.00  0.00    +0.000 OA
ATOM     16  H   UNL     1       4.619   6.408  18.201  0.00  0.00    +0.000 HD
ENDBRANCH   1  14
BRANCH   9  17
ATOM     17  C   UNL     1       3.441   3.070  18.465  0.00  0.00    +0.000 C 
ATOM     18  C   UNL     1       2.525   2.204  17.596  0.00  0.00    +0.000 C 
ATOM     19  C   UNL     1       3.483   1.551  18.542  0.00  0.00    +0.000 C 
BRANCH  17  20
ATOM     20  C   UNL     1       4.561   3.864  17.828  0.00  0.00    +0.000 A 
ATOM     21  C   UNL     1       5.654   4.280  18.610  0.00  0.00    +0.000 A 
ATOM     22  C   UNL     1       6.900   4.508  18.033  0.00  0.00    +0.000 A 
ATOM     23  C   UNL     1       7.060   4.371  16.655  0.00  0.00    +0.000 A 
ATOM     24  C   UNL     1       5.947   4.109  15.851  0.00  0.00    +0.000 A 
ATOM     25  C   UNL     1       4.697   3.902  16.433  0.00  0.00    +0.000 A 
BRANCH  24  26
ATOM     26  C   UNL     1       6.103   3.928  14.447  0.00  0.00    +0.000 C 
ATOM     27  N   UNL     1       6.267   3.769  13.303  0.00  0.00    +0.000 NA
ENDBRANCH  24  26
ENDBRANCH  17  20
ENDBRANCH   9  17
TORSDOF 4
ENDMDL
MODEL 7
REMARK VINA RESULT:      -6.6      3.003      5.039
REMARK  Name = 
REMARK  5 active torsions:
REMARK  status: ('A' for Active; 'I' for Inactive)
REMARK    1  A    between atoms: C_1  and  N_2
REMARK    2  A    between atoms: C_3  and  C_5
REMARK    3  A    between atoms: C_13  and  C_15
REMARK    4  A    between atoms: C_15  and  C_16
REMARK    5  A    between atoms: C_20  and  C_21
REMARK                            x       y       z     vdW  Elec       q    Type
REMARK                         _______ _______ _______ _____ _____    ______ ____
ROOT
ATOM      1  C   UNL     1       2.588   5.424  18.647  0.00  0.00    +0.000 C 
ATOM      2  C   UNL     1       2.363   4.207  17.683  0.00  0.00    +0.000 C 
ATOM      3  C   UNL     1       3.615   3.650  16.955  0.00  0.00    +0.000 C 
ATOM      4  O   UNL     1       4.776   4.455  17.036  0.00  0.00    +0.000 OA
ATOM      5  C   UNL     1       4.440   5.814  16.877  0.00  0.00    +0.000 C 
ATOM      6  C   UNL     1       3.813   6.270  18.181  0.00  0.00    +0.000 C 
ATOM      7  C   UNL     1       3.321   7.675  17.898  0.00  0.00    +0.000 C 
ATOM      8  N   UNL     1       2.184   7.818  18.737  0.00  0.00    +0.000 N 
ATOM      9  C   UNL     1       1.734   9.109  18.946  0.00  0.00    +0.000 C 
ATOM     10  O   UNL     1       2.207  10.074  18.354  0.00  0.00    +0.000 OA
ATOM     11  C   UNL     1       1.474   6.530  18.783  0.00  0.00    +0.000 C 
ENDROOT
BRANCH   1  14
ATOM     12  C   UNL     1       2.413   2.850  21.514  0.00  0.00    +0.000 C 
ATOM     13  N   UNL     1       2.378   3.412  20.176  0.00  0.00    +0.000 N 
ATOM     14  C   UNL     1       2.439   4.766  20.037  0.00  0.00    +0.000 C 
ATOM     15  O   UNL     1       2.458   5.489  21.039  0.00  0.00    +0.000 OA
ATOM     16  H   UNL     1       2.514   2.800  19.395  0.00  0.00    +0.000 HD
ENDBRANCH   1  14
BRANCH   9  17
ATOM     17  C   UNL     1       0.649   9.356  19.964  0.00  0.00    +0.000 C 
ATOM     18  C   UNL     1       1.130   9.587  21.399  0.00  0.00    +0.000 C 
ATOM     19  C   UNL     1       0.428   8.312  21.049  0.00  0.00    +0.000 C 
BRANCH  17  20
ATOM     20  C   UNL     1      -0.494  10.177  19.407  0.00  0.00    +0.000 A 
ATOM     21  C   UNL     1      -0.596  11.542  19.733  0.00  0.00    +0.000 A 
ATOM     22  C   UNL     1      -1.240  12.433  18.880  0.00  0.00    +0.000 A 
ATOM     23  C   UNL     1      -1.837  11.965  17.710  0.00  0.00    +0.000 A 
ATOM     24  C   UNL     1      -1.874  10.592  17.454  0.00  0.00    +0.000 A 
ATOM     25  C   UNL     1      -1.245   9.700  18.323  0.00  0.00    +0.000 A 
BRANCH  24  26
ATOM     26  C   UNL     1      -2.446  10.103  16.244  0.00  0.00    +0.000 C 
ATOM     27  N   UNL     1      -2.909   9.738  15.239  0.00  0.00    +0.000 NA
ENDBRANCH  24  26
ENDBRANCH  17  20
ENDBRANCH   9  17
TORSDOF 4
ENDMDL
MODEL 8
REMARK VINA RESULT:      -6.6      3.303      7.829
REMARK  Name = 
REMARK  5 active torsions:
REMARK  status: ('A' for Active; 'I' for Inactive)
REMARK    1  A    between atoms: C_1  and  N_2
REMARK    2  A    between atoms: C_3  and  C_5
REMARK    3  A    between atoms: C_13  and  C_15
REMARK    4  A    between atoms: C_15  and  C_16
REMARK    5  A    between atoms: C_20  and  C_21
REMARK                            x       y       z     vdW  Elec       q    Type
REMARK                         _______ _______ _______ _____ _____    ______ ____
ROOT
ATOM      1  C   UNL     1      -0.173  11.216  20.168  0.00  0.00    +0.000 C 
ATOM      2  C   UNL     1      -1.629  11.800  20.203  0.00  0.00    +0.000 C 
ATOM      3  C   UNL     1      -2.052  12.548  21.496  0.00  0.00    +0.000 C 
ATOM      4  O   UNL     1      -1.178  12.400  22.599  0.00  0.00    +0.000 OA
ATOM      5  C   UNL     1      -0.732  11.066  22.693  0.00  0.00    +0.000 C 
ATOM      6  C   UNL     1       0.311  10.871  21.609  0.00  0.00    +0.000 C 
ATOM      7  C   UNL     1       0.628   9.390  21.647  0.00  0.00    +0.000 C 
ATOM      8  N   UNL     1       0.969   9.076  20.304  0.00  0.00    +0.000 N 
ATOM      9  C   UNL     1       1.631   7.878  20.103  0.00  0.00    +0.000 C 
ATOM     10  O   UNL     1       1.816   7.070  21.007  0.00  0.00    +0.000 OA
ATOM     11  C   UNL     1       0.107   9.864  19.408  0.00  0.00    +0.000 C 
ENDROOT
BRANCH   1  14
ATOM     12  C   UNL     1       2.514  13.104  18.147  0.00  0.00    +0.000 C 
ATOM     13  N   UNL     1       1.895  12.313  19.194  0.00  0.00    +0.000 N 
ATOM     14  C   UNL     1       0.539  12.185  19.198  0.00  0.00    +0.000 C 
ATOM     15  O   UNL     1      -0.140  12.789  18.360  0.00  0.00    +0.000 OA
ATOM     16  H   UNL     1       2.477  11.722  19.757  0.00  0.00    +0.000 HD
ENDBRANCH   1  14
BRANCH   9  17
ATOM     17  C   UNL     1       2.184   7.563  18.736  0.00  0.00    +0.000 C 
ATOM     18  C   UNL     1       2.944   8.702  18.052  0.00  0.00    +0.000 C 
ATOM     19  C   UNL     1       1.600   8.294  17.535  0.00  0.00    +0.000 C 
BRANCH  17  20
ATOM     20  C   UNL     1       2.694   6.142  18.629  0.00  0.00    +0.000 A 
ATOM     21  C   UNL     1       1.893   5.157  18.022  0.00  0.00    +0.000 A 
ATOM     22  C   UNL     1       2.467   4.040  17.422  0.00  0.00    +0.000 A 
ATOM     23  C   UNL     1       3.850   3.866  17.464  0.00  0.00    +0.000 A 
ATOM     24  C   UNL     1       4.639   4.757  18.196  0.00  0.00    +0.000 A 
ATOM     25  C   UNL     1       4.056   5.863  18.813  0.00  0.00    +0.000 A 
BRANCH  24  26
ATOM     26  C   UNL     1       6.056   4.612  18.214  0.00  0.00    +0.000 C 
ATOM     27  N   UNL     1       7.219   4.531  18.239  0.00  0.00    +0.000 NA
ENDBRANCH  24  26
ENDBRANCH  17  20
ENDBRANCH   9  17
TORSDOF 4
ENDMDL
MODEL 9
REMARK VINA RESULT:      -6.6      1.524      2.125
REMARK  Name = 
REMARK  5 active torsions:
REMARK  status: ('A' for Active; 'I' for Inactive)
REMARK    1  A    between atoms: C_1  and  N_2
REMARK    2  A    between atoms: C_3  and  C_5
REMARK    3  A    between atoms: C_13  and  C_15
REMARK    4  A    between atoms: C_15  and  C_16
REMARK    5  A    between atoms: C_20  and  C_21
REMARK                            x       y       z     vdW  Elec       q    Type
REMARK                         _______ _______ _______ _____ _____    ______ ____
ROOT
ATOM      1  C   UNL     1       6.169   5.165  16.271  0.00  0.00    +0.000 C 
ATOM      2  C   UNL     1       7.623   4.810  15.800  0.00  0.00    +0.000 C 
ATOM      3  C   UNL     1       7.923   4.952  14.284  0.00  0.00    +0.000 C 
ATOM      4  O   UNL     1       6.792   5.135  13.454  0.00  0.00    +0.000 OA
ATOM      5  C   UNL     1       5.740   4.293  13.869  0.00  0.00    +0.000 C 
ATOM      6  C   UNL     1       5.147   4.910  15.121  0.00  0.00    +0.000 C 
ATOM      7  C   UNL     1       4.145   3.886  15.614  0.00  0.00    +0.000 C 
ATOM      8  N   UNL     1       4.143   4.057  17.024  0.00  0.00    +0.000 N 
ATOM      9  C   UNL     1       3.078   3.498  17.708  0.00  0.00    +0.000 C 
ATOM     10  O   UNL     1       2.240   2.792  17.156  0.00  0.00    +0.000 OA
ATOM     11  C   UNL     1       5.515   4.362  17.459  0.00  0.00    +0.000 C 
ENDROOT
BRANCH   1  14
ATOM     12  C   UNL     1       7.742   8.405  17.647  0.00  0.00    +0.000 C 
ATOM     13  N   UNL     1       7.626   7.058  17.122  0.00  0.00    +0.000 N 
ATOM     14  C   UNL     1       6.383   6.517  16.988  0.00  0.00    +0.000 C 
ATOM     15  O   UNL     1       5.391   7.146  17.371  0.00  0.00    +0.000 OA
ATOM     16  H   UNL     1       8.426   6.642  16.686  0.00  0.00    +0.000 HD
ENDBRANCH   1  14
BRANCH   9  17
ATOM     17  C   UNL     1       2.912   3.791  19.178  0.00  0.00    +0.000 C 
ATOM     18  C   UNL     1       4.099   3.408  20.066  0.00  0.00    +0.000 C 
ATOM     19  C   UNL     1       2.831   2.617  20.143  0.00  0.00    +0.000 C 
BRANCH  17  20
ATOM     20  C   UNL     1       2.162   5.081  19.431  0.00  0.00    +0.000 A 
ATOM     21  C   UNL     1       1.692   5.372  20.725  0.00  0.00    +0.000 A 
ATOM     22  C   UNL     1       1.503   6.688  21.136  0.00  0.00    +0.000 A 
ATOM     23  C   UNL     1       1.734   7.733  20.243  0.00  0.00    +0.000 A 
ATOM     24  C   UNL     1       2.053   7.450  18.913  0.00  0.00    +0.000 A 
ATOM     25  C   UNL     1       2.221   6.128  18.500  0.00  0.00    +0.000 A 
BRANCH  24  26
ATOM     26  C   UNL     1       2.331   8.507  18.000  0.00  0.00    +0.000 C 
ATOM     27  N   UNL     1       2.541   9.398  17.278  0.00  0.00    +0.000 NA
ENDBRANCH  24  26
ENDBRANCH  17  20
ENDBRANCH   9  17
TORSDOF 4
ENDMDL
