MODEL 1
REMARK VINA RESULT:      -8.2      0.000      0.000
REMARK  Name = 
REMARK  7 active torsions:
REMARK  status: ('A' for Active; 'I' for Inactive)
REMARK    1  A    between atoms: C_1  and  C_2
REMARK    2  A    between atoms: C_2  and  C_3
REMARK    3  A    between atoms: C_9  and  O_10
REMARK    4  A    between atoms: O_10  and  C_11
REMARK    5  A    between atoms: C_11  and  C_12
REMARK    6  A    between atoms: N_14  and  C_15
REMARK    7  A    between atoms: C_18  and  N_19
REMARK                            x       y       z     vdW  Elec       q    Type
REMARK                         _______ _______ _______ _____ _____    ______ ____
ROOT
ATOM      1  C   UNL     1       0.918   9.550  18.700  0.00  0.00    +0.000 C 
ATOM      2  O   UNL     1      -0.058   9.822  17.991  0.00  0.00    +0.000 OA
ATOM      3  N   UNL     1       1.049   9.858  20.048  0.00  0.00    +0.000 N 
ATOM      4  H   UNL     1       1.980   9.795  20.445  0.00  0.00    +0.000 HD
ENDROOT
BRANCH   3   5
ATOM      5  C   UNL     1       0.059  10.499  20.821  0.00  0.00    +0.000 A 
ATOM      6  C   UNL     1      -0.637  11.618  20.359  0.00  0.00    +0.000 A 
ATOM      7  C   UNL     1      -1.543  12.289  21.172  0.00  0.00    +0.000 A 
ATOM      8  C   UNL     1      -1.755  11.850  22.478  0.00  0.00    +0.000 A 
ATOM      9  C   UNL     1      -1.092  10.708  22.945  0.00  0.00    +0.000 A 
ATOM     10  C   UNL     1      -0.209  10.016  22.106  0.00  0.00    +0.000 A 
BRANCH   8  11
ATOM     11  N   UNL     1      -2.610  12.581  23.340  0.00  0.00    +0.000 N 
ATOM     12  C   UNL     1      -2.463  13.887  23.756  0.00  0.00    +0.000 A 
ATOM     13  C   UNL     1      -3.458  14.133  24.667  0.00  0.00    +0.000 A 
ATOM     14  C   UNL     1      -4.170  12.926  24.743  0.00  0.00    +0.000 A 
ATOM     15  N   UNL     1      -3.701  12.003  23.903  0.00  0.00    +0.000 NA
ENDBRANCH   8  11
ENDBRANCH   3   5
BRANCH   1  16
ATOM     16  C   UNL     1       2.116   8.838  18.095  0.00  0.00    +0.000 C 
BRANCH  16  17
ATOM     17  O   UNL     1       2.426   7.712  18.906  0.00  0.00    +0.000 OA
BRANCH  17  26
ATOM     18  C   UNL     1       0.884   2.835  18.814  0.00  0.00    +0.000 C 
ATOM     19  C   UNL     1       2.228   3.330  19.355  0.00  0.00    +0.000 C 
ATOM     20  C   UNL     1       2.482   2.769  20.755  0.00  0.00    +0.000 C 
ATOM     21  C   UNL     1       3.389   3.008  18.390  0.00  0.00    +0.000 C 
ATOM     22  C   UNL     1       3.699   4.365  17.883  0.00  0.00    +0.000 A 
ATOM     23  C   UNL     1       4.606   4.731  16.904  0.00  0.00    +0.000 A 
ATOM     24  C   UNL     1       4.749   6.089  16.615  0.00  0.00    +0.000 A 
ATOM     25  C   UNL     1       3.991   7.048  17.310  0.00  0.00    +0.000 A 
ATOM     26  C   UNL     1       3.079   6.674  18.304  0.00  0.00    +0.000 A 
ATOM     27  C   UNL     1       2.951   5.319  18.568  0.00  0.00    +0.000 A 
ATOM     28  O   UNL     1       2.123   4.769  19.507  0.00  0.00    +0.000 OA
ENDBRANCH  17  26
ENDBRANCH  16  17
ENDBRANCH   1  16
TORSDOF 5
ENDMDL
MODEL 2
REMARK VINA RESULT:      -8.2      2.974      3.455
REMARK  Name = 
REMARK  7 active torsions:
REMARK  status: ('A' for Active; 'I' for Inactive)
REMARK    1  A    between atoms: C_1  and  C_2
REMARK    2  A    between atoms: C_2  and  C_3
REMARK    3  A    between atoms: C_9  and  O_10
REMARK    4  A    between atoms: O_10  and  C_11
REMARK    5  A    between atoms: C_11  and  C_12
REMARK    6  A    between atoms: N_14  and  C_15
REMARK    7  A    between atoms: C_18  and  N_19
REMARK                            x       y       z     vdW  Elec       q    Type
REMARK                         _______ _______ _______ _____ _____    ______ ____
ROOT
ATOM      1  C   UNL     1       1.028   9.239  18.776  0.00  0.00    +0.000 C 
ATOM      2  O   UNL     1       0.691   9.242  19.966  0.00  0.00    +0.000 OA
ATOM      3  N   UNL     1       0.265   9.721  17.719  0.00  0.00    +0.000 N 
ATOM      4  H   UNL     1       0.548   9.445  16.786  0.00  0.00    +0.000 HD
ENDROOT
BRANCH   3   5
ATOM      5  C   UNL     1      -1.002  10.324  17.858  0.00  0.00    +0.000 A 
ATOM      6  C   UNL     1      -1.224  11.398  18.722  0.00  0.00    +0.000 A 
ATOM      7  C   UNL     1      -2.500  11.918  18.911  0.00  0.00    +0.000 A 
ATOM      8  C   UNL     1      -3.583  11.352  18.240  0.00  0.00    +0.000 A 
ATOM      9  C   UNL     1      -3.371  10.297  17.343  0.00  0.00    +0.000 A 
ATOM     10  C   UNL     1      -2.078   9.804  17.130  0.00  0.00    +0.000 A 
BRANCH   8  11
ATOM     11  N   UNL     1      -4.896  11.819  18.495  0.00  0.00    +0.000 N 
ATOM     12  C   UNL     1      -5.389  12.330  19.677  0.00  0.00    +0.000 A 
ATOM     13  C   UNL     1      -6.731  12.543  19.494  0.00  0.00    +0.000 A 
ATOM     14  C   UNL     1      -6.972  12.143  18.170  0.00  0.00    +0.000 A 
ATOM     15  N   UNL     1      -5.861  11.759  17.543  0.00  0.00    +0.000 NA
ENDBRANCH   8  11
ENDBRANCH   3   5
BRANCH   1  16
ATOM     16  C   UNL     1       2.369   8.651  18.371  0.00  0.00    +0.000 C 
BRANCH  16  17
ATOM     17  O   UNL     1       2.140   7.379  17.778  0.00  0.00    +0.000 OA
BRANCH  17  26
ATOM     18  C   UNL     1       1.125   2.457  18.733  0.00  0.00    +0.000 C 
ATOM     19  C   UNL     1       1.909   3.396  19.654  0.00  0.00    +0.000 C 
ATOM     20  C   UNL     1       1.355   3.337  21.078  0.00  0.00    +0.000 C 
ATOM     21  C   UNL     1       3.424   3.102  19.617  0.00  0.00    +0.000 C 
ATOM     22  C   UNL     1       3.908   4.291  18.877  0.00  0.00    +0.000 A 
ATOM     23  C   UNL     1       5.192   4.570  18.443  0.00  0.00    +0.000 A 
ATOM     24  C   UNL     1       5.415   5.782  17.788  0.00  0.00    +0.000 A 
ATOM     25  C   UNL     1       4.358   6.687  17.584  0.00  0.00    +0.000 A 
ATOM     26  C   UNL     1       3.062   6.402  18.029  0.00  0.00    +0.000 A 
ATOM     27  C   UNL     1       2.865   5.190  18.673  0.00  0.00    +0.000 A 
ATOM     28  O   UNL     1       1.676   4.748  19.184  0.00  0.00    +0.000 OA
ENDBRANCH  17  26
ENDBRANCH  16  17
ENDBRANCH   1  16
TORSDOF 5
ENDMDL
MODEL 3
REMARK VINA RESULT:      -8.1      7.333      9.124
REMARK  Name = 
REMARK  7 active torsions:
REMARK  status: ('A' for Active; 'I' for Inactive)
REMARK    1  A    between atoms: C_1  and  C_2
REMARK    2  A    between atoms: C_2  and  C_3
REMARK    3  A    between atoms: C_9  and  O_10
REMARK    4  A    between atoms: O_10  and  C_11
REMARK    5  A    between atoms: C_11  and  C_12
REMARK    6  A    between atoms: N_14  and  C_15
REMARK    7  A    between atoms: C_18  and  N_19
REMARK                            x       y       z     vdW  Elec       q    Type
REMARK                         _______ _______ _______ _____ _____    ______ ____
ROOT
ATOM      1  C   UNL     1       8.118   7.915  18.110  0.00  0.00    +0.000 C 
ATOM      2  O   UNL     1       7.877   8.086  16.909  0.00  0.00    +0.000 OA
ATOM      3  N   UNL     1       8.720   8.840  18.953  0.00  0.00    +0.000 N 
ATOM      4  H   UNL     1       9.073   8.493  19.837  0.00  0.00    +0.000 HD
ENDROOT
BRANCH   3   5
ATOM      5  C   UNL     1       9.113  10.138  18.564  0.00  0.00    +0.000 A 
ATOM      6  C   UNL     1      10.366  10.663  18.885  0.00  0.00    +0.000 A 
ATOM      7  C   UNL     1      10.698  11.977  18.570  0.00  0.00    +0.000 A 
ATOM      8  C   UNL     1       9.763  12.792  17.936  0.00  0.00    +0.000 A 
ATOM      9  C   UNL     1       8.514  12.269  17.576  0.00  0.00    +0.000 A 
ATOM     10  C   UNL     1       8.202  10.934  17.862  0.00  0.00    +0.000 A 
BRANCH   8  11
ATOM     11  N   UNL     1      10.062  14.155  17.692  0.00  0.00    +0.000 N 
ATOM     12  C   UNL     1      11.170  14.668  17.052  0.00  0.00    +0.000 A 
ATOM     13  C   UNL     1      11.093  16.034  17.148  0.00  0.00    +0.000 A 
ATOM     14  C   UNL     1       9.904  16.269  17.855  0.00  0.00    +0.000 A 
ATOM     15  N   UNL     1       9.247  15.145  18.137  0.00  0.00    +0.000 NA
ENDBRANCH   8  11
ENDBRANCH   3   5
BRANCH   1  16
ATOM     16  C   UNL     1       7.769   6.592  18.769  0.00  0.00    +0.000 C 
BRANCH  16  17
ATOM     17  O   UNL     1       8.034   5.545  17.844  0.00  0.00    +0.000 OA
BRANCH  17  26
ATOM     18  C   UNL     1       3.394   4.647  19.802  0.00  0.00    +0.000 C 
ATOM     19  C   UNL     1       4.289   3.603  19.128  0.00  0.00    +0.000 C 
ATOM     20  C   UNL     1       4.425   2.363  20.012  0.00  0.00    +0.000 C 
ATOM     21  C   UNL     1       3.789   3.245  17.713  0.00  0.00    +0.000 C 
ATOM     22  C   UNL     1       4.835   3.895  16.888  0.00  0.00    +0.000 A 
ATOM     23  C   UNL     1       4.899   4.005  15.510  0.00  0.00    +0.000 A 
ATOM     24  C   UNL     1       6.010   4.639  14.952  0.00  0.00    +0.000 A 
ATOM     25  C   UNL     1       7.031   5.144  15.778  0.00  0.00    +0.000 A 
ATOM     26  C   UNL     1       6.964   5.025  17.171  0.00  0.00    +0.000 A 
ATOM     27  C   UNL     1       5.848   4.396  17.700  0.00  0.00    +0.000 A 
ATOM     28  O   UNL     1       5.617   4.180  19.031  0.00  0.00    +0.000 OA
ENDBRANCH  17  26
ENDBRANCH  16  17
ENDBRANCH   1  16
TORSDOF 5
ENDMDL
MODEL 4
REMARK VINA RESULT:      -8.1      2.514      3.719
REMARK  Name = 
REMARK  7 active torsions:
REMARK  status: ('A' for Active; 'I' for Inactive)
REMARK    1  A    between atoms: C_1  and  C_2
REMARK    2  A    between atoms: C_2  and  C_3
REMARK    3  A    between atoms: C_9  and  O_10
REMARK    4  A    between atoms: O_10  and  C_11
REMARK    5  A    between atoms: C_11  and  C_12
REMARK    6  A    between atoms: N_14  and  C_15
REMARK    7  A    between atoms: C_18  and  N_19
REMARK                            x       y       z     vdW  Elec       q    Type
REMARK                         _______ _______ _______ _____ _____    ______ ____
ROOT
ATOM      1  C   UNL     1       1.512   8.951  18.588  0.00  0.00    +0.000 C 
ATOM      2  O   UNL     1       1.352   8.838  19.809  0.00  0.00    +0.000 OA
ATOM      3  N   UNL     1       0.694   9.674  17.729  0.00  0.00    +0.000 N 
ATOM      4  H   UNL     1       0.795   9.491  16.737  0.00  0.00    +0.000 HD
ENDROOT
BRANCH   3   5
ATOM      5  C   UNL     1      -0.431  10.421  18.137  0.00  0.00    +0.000 A 
ATOM      6  C   UNL     1      -0.347  11.423  19.105  0.00  0.00    +0.000 A 
ATOM      7  C   UNL     1      -1.483  12.085  19.558  0.00  0.00    +0.000 A 
ATOM      8  C   UNL     1      -2.733  11.736  19.049  0.00  0.00    +0.000 A 
ATOM      9  C   UNL     1      -2.830  10.757  18.052  0.00  0.00    +0.000 A 
ATOM     10  C   UNL     1      -1.677  10.123  17.575  0.00  0.00    +0.000 A 
BRANCH   8  11
ATOM     11  N   UNL     1      -3.903  12.343  19.569  0.00  0.00    +0.000 N 
ATOM     12  C   UNL     1      -3.982  13.294  20.564  0.00  0.00    +0.000 A 
ATOM     13  C   UNL     1      -5.314  13.503  20.815  0.00  0.00    +0.000 A 
ATOM     14  C   UNL     1      -5.978  12.644  19.925  0.00  0.00    +0.000 A 
ATOM     15  N   UNL     1      -5.136  11.983  19.130  0.00  0.00    +0.000 NA
ENDBRANCH   8  11
ENDBRANCH   3   5
BRANCH   1  16
ATOM     16  C   UNL     1       2.673   8.245  17.910  0.00  0.00    +0.000 C 
BRANCH  16  17
ATOM     17  O   UNL     1       3.105   7.182  18.750  0.00  0.00    +0.000 OA
BRANCH  17  26
ATOM     18  C   UNL     1       7.357   4.565  17.633  0.00  0.00    +0.000 C 
ATOM     19  C   UNL     1       6.252   4.930  16.637  0.00  0.00    +0.000 C 
ATOM     20  C   UNL     1       6.850   5.586  15.391  0.00  0.00    +0.000 C 
ATOM     21  C   UNL     1       5.377   3.711  16.278  0.00  0.00    +0.000 C 
ATOM     22  C   UNL     1       4.123   4.066  16.982  0.00  0.00    +0.000 A 
ATOM     23  C   UNL     1       2.968   3.316  17.113  0.00  0.00    +0.000 A 
ATOM     24  C   UNL     1       1.892   3.880  17.800  0.00  0.00    +0.000 A 
ATOM     25  C   UNL     1       1.991   5.177  18.335  0.00  0.00    +0.000 A 
ATOM     26  C   UNL     1       3.159   5.935  18.195  0.00  0.00    +0.000 A 
ATOM     27  C   UNL     1       4.214   5.350  17.513  0.00  0.00    +0.000 A 
ATOM     28  O   UNL     1       5.424   5.940  17.269  0.00  0.00    +0.000 OA
ENDBRANCH  17  26
ENDBRANCH  16  17
ENDBRANCH   1  16
TORSDOF 5
ENDMDL
MODEL 5
REMARK VINA RESULT:      -8.0      0.682      1.245
REMARK  Name = 
REMARK  7 active torsions:
REMARK  status: ('A' for Active; 'I' for Inactive)
REMARK    1  A    between atoms: C_1  and  C_2
REMARK    2  A    between atoms: C_2  and  C_3
REMARK    3  A    between atoms: C_9  and  O_10
REMARK    4  A    between atoms: O_10  and  C_11
REMARK    5  A    between atoms: C_11  and  C_12
REMARK    6  A    between atoms: N_14  and  C_15
REMARK    7  A    between atoms: C_18  and  N_19
REMARK                            x       y       z     vdW  Elec       q    Type
REMARK                         _______ _______ _______ _____ _____    ______ ____
ROOT
ATOM      1  C   UNL     1       0.981   9.601  18.845  0.00  0.00    +0.000 C 
ATOM      2  O   UNL     1       0.009  10.084  18.253  0.00  0.00    +0.000 OA
ATOM      3  N   UNL     1       1.303   9.816  20.180  0.00  0.00    +0.000 N 
ATOM      4  H   UNL     1       2.240   9.561  20.472  0.00  0.00    +0.000 HD
ENDROOT
BRANCH   3   5
ATOM      5  C   UNL     1       0.537  10.596  21.071  0.00  0.00    +0.000 A 
ATOM      6  C   UNL     1      -0.230  10.025  22.088  0.00  0.00    +0.000 A 
ATOM      7  C   UNL     1      -1.048  10.807  22.897  0.00  0.00    +0.000 A 
ATOM      8  C   UNL     1      -1.118  12.183  22.684  0.00  0.00    +0.000 A 
ATOM      9  C   UNL     1      -0.328  12.774  21.690  0.00  0.00    +0.000 A 
ATOM     10  C   UNL     1       0.522  11.985  20.906  0.00  0.00    +0.000 A 
BRANCH   8  11
ATOM     11  N   UNL     1      -2.016  12.971  23.446  0.00  0.00    +0.000 N 
ATOM     12  C   UNL     1      -3.353  12.729  23.680  0.00  0.00    +0.000 A 
ATOM     13  C   UNL     1      -3.843  13.810  24.367  0.00  0.00    +0.000 A 
ATOM     14  C   UNL     1      -2.736  14.660  24.517  0.00  0.00    +0.000 A 
ATOM     15  N   UNL     1      -1.618  14.137  24.015  0.00  0.00    +0.000 NA
ENDBRANCH   8  11
ENDBRANCH   3   5
BRANCH   1  16
ATOM     16  C   UNL     1       1.954   8.706  18.096  0.00  0.00    +0.000 C 
BRANCH  16  17
ATOM     17  O   UNL     1       2.270   7.594  18.925  0.00  0.00    +0.000 OA
BRANCH  17  26
ATOM     18  C   UNL     1       0.918   2.661  18.865  0.00  0.00    +0.000 C 
ATOM     19  C   UNL     1       2.229   3.215  19.431  0.00  0.00    +0.000 C 
ATOM     20  C   UNL     1       2.470   2.682  20.844  0.00  0.00    +0.000 C 
ATOM     21  C   UNL     1       3.424   2.924  18.498  0.00  0.00    +0.000 C 
ATOM     22  C   UNL     1       3.694   4.286  17.979  0.00  0.00    +0.000 A 
ATOM     23  C   UNL     1       4.609   4.674  17.017  0.00  0.00    +0.000 A 
ATOM     24  C   UNL     1       4.708   6.032  16.713  0.00  0.00    +0.000 A 
ATOM     25  C   UNL     1       3.896   6.971  17.376  0.00  0.00    +0.000 A 
ATOM     26  C   UNL     1       2.976   6.574  18.353  0.00  0.00    +0.000 A 
ATOM     27  C   UNL     1       2.894   5.219  18.633  0.00  0.00    +0.000 A 
ATOM     28  O   UNL     1       2.065   4.650  19.560  0.00  0.00    +0.000 OA
ENDBRANCH  17  26
ENDBRANCH  16  17
ENDBRANCH   1  16
TORSDOF 5
ENDMDL
MODEL 6
REMARK VINA RESULT:      -8.0      1.193      2.784
REMARK  Name = 
REMARK  7 active torsions:
REMARK  status: ('A' for Active; 'I' for Inactive)
REMARK    1  A    between atoms: C_1  and  C_2
REMARK    2  A    between atoms: C_2  and  C_3
REMARK    3  A    between atoms: C_9  and  O_10
REMARK    4  A    between atoms: O_10  and  C_11
REMARK    5  A    between atoms: C_11  and  C_12
REMARK    6  A    between atoms: N_14  and  C_15
REMARK    7  A    between atoms: C_18  and  N_19
REMARK                            x       y       z     vdW  Elec       q    Type
REMARK                         _______ _______ _______ _____ _____    ______ ____
ROOT
ATOM      1  C   UNL     1       1.414   9.025  18.787  0.00  0.00    +0.000 C 
ATOM      2  O   UNL     1       0.737   9.781  18.079  0.00  0.00    +0.000 OA
ATOM      3  N   UNL     1       1.436   9.023  20.176  0.00  0.00    +0.000 N 
ATOM      4  H   UNL     1       2.199   8.528  20.622  0.00  0.00    +0.000 HD
ENDROOT
BRANCH   3   5
ATOM      5  C   UNL     1       0.651   9.867  20.989  0.00  0.00    +0.000 A 
ATOM      6  C   UNL     1       0.010   9.407  22.140  0.00  0.00    +0.000 A 
ATOM      7  C   UNL     1      -0.832  10.234  22.875  0.00  0.00    +0.000 A 
ATOM      8  C   UNL     1      -1.054  11.544  22.453  0.00  0.00    +0.000 A 
ATOM      9  C   UNL     1      -0.391  12.032  21.319  0.00  0.00    +0.000 A 
ATOM     10  C   UNL     1       0.484  11.203  20.607  0.00  0.00    +0.000 A 
BRANCH   8  11
ATOM     11  N   UNL     1      -1.979  12.364  23.146  0.00  0.00    +0.000 N 
ATOM     12  C   UNL     1      -1.800  13.669  23.554  0.00  0.00    +0.000 A 
ATOM     13  C   UNL     1      -2.908  14.017  24.283  0.00  0.00    +0.000 A 
ATOM     14  C   UNL     1      -3.715  12.869  24.264  0.00  0.00    +0.000 A 
ATOM     15  N   UNL     1      -3.189  11.887  23.532  0.00  0.00    +0.000 NA
ENDBRANCH   8  11
ENDBRANCH   3   5
BRANCH   1  16
ATOM     16  C   UNL     1       2.336   8.007  18.139  0.00  0.00    +0.000 C 
BRANCH  16  17
ATOM     17  O   UNL     1       2.558   6.950  19.064  0.00  0.00    +0.000 OA
BRANCH  17  26
ATOM     18  C   UNL     1       6.849   4.766  17.334  0.00  0.00    +0.000 C 
ATOM     19  C   UNL     1       5.561   4.952  16.527  0.00  0.00    +0.000 C 
ATOM     20  C   UNL     1       5.863   5.603  15.177  0.00  0.00    +0.000 C 
ATOM     21  C   UNL     1       4.789   3.626  16.363  0.00  0.00    +0.000 C 
ATOM     22  C   UNL     1       3.634   3.877  17.256  0.00  0.00    +0.000 A 
ATOM     23  C   UNL     1       2.613   3.010  17.607  0.00  0.00    +0.000 A 
ATOM     24  C   UNL     1       1.606   3.487  18.446  0.00  0.00    +0.000 A 
ATOM     25  C   UNL     1       1.636   4.814  18.913  0.00  0.00    +0.000 A 
ATOM     26  C   UNL     1       2.668   5.688  18.551  0.00  0.00    +0.000 A 
ATOM     27  C   UNL     1       3.659   5.189  17.721  0.00  0.00    +0.000 A 
ATOM     28  O   UNL     1       4.734   5.896  17.256  0.00  0.00    +0.000 OA
ENDBRANCH  17  26
ENDBRANCH  16  17
ENDBRANCH   1  16
TORSDOF 5
ENDMDL
MODEL 7
REMARK VINA RESULT:      -8.0      7.040      8.656
REMARK  Name = 
REMARK  7 active torsions:
REMARK  status: ('A' for Active; 'I' for Inactive)
REMARK    1  A    between atoms: C_1  and  C_2
REMARK    2  A    between atoms: C_2  and  C_3
REMARK    3  A    between atoms: C_9  and  O_10
REMARK    4  A    between atoms: O_10  and  C_11
REMARK    5  A    between atoms: C_11  and  C_12
REMARK    6  A    between atoms: N_14  and  C_15
REMARK    7  A    between atoms: C_18  and  N_19
REMARK                            x       y       z     vdW  Elec       q    Type
REMARK                         _______ _______ _______ _____ _____    ______ ____
ROOT
ATOM      1  C   UNL     1       8.194   8.264  18.284  0.00  0.00    +0.000 C 
ATOM      2  O   UNL     1       7.570   8.824  17.375  0.00  0.00    +0.000 OA
ATOM      3  N   UNL     1       9.047   8.891  19.184  0.00  0.00    +0.000 N 
ATOM      4  H   UNL     1       9.671   8.295  19.715  0.00  0.00    +0.000 HD
ENDROOT
BRANCH   3   5
ATOM      5  C   UNL     1       9.298  10.278  19.213  0.00  0.00    +0.000 A 
ATOM      6  C   UNL     1       9.269  11.015  20.398  0.00  0.00    +0.000 A 
ATOM      7  C   UNL     1       9.428  12.397  20.391  0.00  0.00    +0.000 A 
ATOM      8  C   UNL     1       9.608  13.065  19.181  0.00  0.00    +0.000 A 
ATOM      9  C   UNL     1       9.675  12.336  17.987  0.00  0.00    +0.000 A 
ATOM     10  C   UNL     1       9.551  10.941  18.007  0.00  0.00    +0.000 A 
BRANCH   8  11
ATOM     11  N   UNL     1       9.683  14.480  19.158  0.00  0.00    +0.000 N 
ATOM     12  C   UNL     1       8.900  15.371  19.860  0.00  0.00    +0.000 A 
ATOM     13  C   UNL     1       9.251  16.630  19.442  0.00  0.00    +0.000 A 
ATOM     14  C   UNL     1      10.261  16.414  18.490  0.00  0.00    +0.000 A 
ATOM     15  N   UNL     1      10.568  15.124  18.355  0.00  0.00    +0.000 NA
ENDBRANCH   8  11
ENDBRANCH   3   5
BRANCH   1  16
ATOM     16  C   UNL     1       8.075   6.761  18.468  0.00  0.00    +0.000 C 
BRANCH  16  17
ATOM     17  O   UNL     1       6.696   6.427  18.551  0.00  0.00    +0.000 OA
BRANCH  17  26
ATOM     18  C   UNL     1       1.815   4.989  18.019  0.00  0.00    +0.000 C 
ATOM     19  C   UNL     1       2.994   4.047  18.277  0.00  0.00    +0.000 C 
ATOM     20  C   UNL     1       2.687   3.113  19.449  0.00  0.00    +0.000 C 
ATOM     21  C   UNL     1       3.390   3.262  17.009  0.00  0.00    +0.000 C 
ATOM     22  C   UNL     1       4.677   3.918  16.680  0.00  0.00    +0.000 A 
ATOM     23  C   UNL     1       5.491   3.712  15.581  0.00  0.00    +0.000 A 
ATOM     24  C   UNL     1       6.684   4.431  15.503  0.00  0.00    +0.000 A 
ATOM     25  C   UNL     1       7.040   5.334  16.522  0.00  0.00    +0.000 A 
ATOM     26  C   UNL     1       6.215   5.535  17.634  0.00  0.00    +0.000 A 
ATOM     27  C   UNL     1       5.034   4.813  17.686  0.00  0.00    +0.000 A 
ATOM     28  O   UNL     1       4.113   4.869  18.696  0.00  0.00    +0.000 OA
ENDBRANCH  17  26
ENDBRANCH  16  17
ENDBRANCH   1  16
TORSDOF 5
ENDMDL
MODEL 8
REMARK VINA RESULT:      -7.9      0.984      1.186
REMARK  Name = 
REMARK  7 active torsions:
REMARK  status: ('A' for Active; 'I' for Inactive)
REMARK    1  A    between atoms: C_1  and  C_2
REMARK    2  A    between atoms: C_2  and  C_3
REMARK    3  A    between atoms: C_9  and  O_10
REMARK    4  A    between atoms: O_10  and  C_11
REMARK    5  A    between atoms: C_11  and  C_12
REMARK    6  A    between atoms: N_14  and  C_15
REMARK    7  A    between atoms: C_18  and  N_19
REMARK                            x       y       z     vdW  Elec       q    Type
REMARK                         _______ _______ _______ _____ _____    ______ ____
ROOT
ATOM      1  C   UNL     1       1.796   9.580  18.507  0.00  0.00    +0.000 C 
ATOM      2  O   UNL     1       1.887  10.767  18.172  0.00  0.00    +0.000 OA
ATOM      3  N   UNL     1       1.038   9.094  19.566  0.00  0.00    +0.000 N 
ATOM      4  H   UNL     1       1.236   8.150  19.877  0.00  0.00    +0.000 HD
ENDROOT
BRANCH   3   5
ATOM      5  C   UNL     1       0.224   9.892  20.397  0.00  0.00    +0.000 A 
ATOM      6  C   UNL     1      -0.556  10.935  19.895  0.00  0.00    +0.000 A 
ATOM      7  C   UNL     1      -1.280  11.766  20.744  0.00  0.00    +0.000 A 
ATOM      8  C   UNL     1      -1.219  11.566  22.122  0.00  0.00    +0.000 A 
ATOM      9  C   UNL     1      -0.469  10.502  22.639  0.00  0.00    +0.000 A 
ATOM     10  C   UNL     1       0.226   9.647  21.774  0.00  0.00    +0.000 A 
BRANCH   8  11
ATOM     11  N   UNL     1      -1.882  12.462  22.997  0.00  0.00    +0.000 N 
ATOM     12  C   UNL     1      -3.151  12.336  23.521  0.00  0.00    +0.000 A 
ATOM     13  C   UNL     1      -3.415  13.487  24.218  0.00  0.00    +0.000 A 
ATOM     14  C   UNL     1      -2.250  14.258  24.073  0.00  0.00    +0.000 A 
ATOM     15  N   UNL     1      -1.300  13.624  23.387  0.00  0.00    +0.000 NA
ENDBRANCH   8  11
ENDBRANCH   3   5
BRANCH   1  16
ATOM     16  C   UNL     1       2.574   8.519  17.748  0.00  0.00    +0.000 C 
BRANCH  16  17
ATOM     17  O   UNL     1       2.040   7.244  18.085  0.00  0.00    +0.000 OA
BRANCH  17  26
ATOM     18  C   UNL     1       0.819   2.333  18.831  0.00  0.00    +0.000 C 
ATOM     19  C   UNL     1       1.796   3.144  19.687  0.00  0.00    +0.000 C 
ATOM     20  C   UNL     1       1.453   3.003  21.171  0.00  0.00    +0.000 C 
ATOM     21  C   UNL     1       3.264   2.761  19.401  0.00  0.00    +0.000 C 
ATOM     22  C   UNL     1       3.720   3.974  18.682  0.00  0.00    +0.000 A 
ATOM     23  C   UNL     1       4.944   4.208  18.080  0.00  0.00    +0.000 A 
ATOM     24  C   UNL     1       5.157   5.453  17.486  0.00  0.00    +0.000 A 
ATOM     25  C   UNL     1       4.149   6.435  17.510  0.00  0.00    +0.000 A 
ATOM     26  C   UNL     1       2.915   6.195  18.124  0.00  0.00    +0.000 A 
ATOM     27  C   UNL     1       2.727   4.950  18.702  0.00  0.00    +0.000 A 
ATOM     28  O   UNL     1       1.596   4.542  19.355  0.00  0.00    +0.000 OA
ENDBRANCH  17  26
ENDBRANCH  16  17
ENDBRANCH   1  16
TORSDOF 5
ENDMDL
MODEL 9
REMARK VINA RESULT:      -7.9      3.460      4.970
REMARK  Name = 
REMARK  7 active torsions:
REMARK  status: ('A' for Active; 'I' for Inactive)
REMARK    1  A    between atoms: C_1  and  C_2
REMARK    2  A    between atoms: C_2  and  C_3
REMARK    3  A    between atoms: C_9  and  O_10
REMARK    4  A    between atoms: O_10  and  C_11
REMARK    5  A    between atoms: C_11  and  C_12
REMARK    6  A    between atoms: N_14  and  C_15
REMARK    7  A    between atoms: C_18  and  N_19
REMARK                            x       y       z     vdW  Elec       q    Type
REMARK                         _______ _______ _______ _____ _____    ______ ____
ROOT
ATOM      1  C   UNL     1       1.616   4.845  20.840  0.00  0.00    +0.000 C 
ATOM      2  O   UNL     1       0.466   4.723  20.402  0.00  0.00    +0.000 OA
ATOM      3  N   UNL     1       2.340   6.029  20.892  0.00  0.00    +0.000 N 
ATOM      4  H   UNL     1       3.338   5.950  21.047  0.00  0.00    +0.000 HD
ENDROOT
BRANCH   3   5
ATOM      5  C   UNL     1       1.846   7.285  20.483  0.00  0.00    +0.000 A 
ATOM      6  C   UNL     1       1.037   8.071  21.305  0.00  0.00    +0.000 A 
ATOM      7  C   UNL     1       0.487   9.264  20.847  0.00  0.00    +0.000 A 
ATOM      8  C   UNL     1       0.734   9.681  19.540  0.00  0.00    +0.000 A 
ATOM      9  C   UNL     1       1.573   8.921  18.714  0.00  0.00    +0.000 A 
ATOM     10  C   UNL     1       2.152   7.741  19.196  0.00  0.00    +0.000 A 
BRANCH   8  11
ATOM     11  N   UNL     1       0.106  10.848  19.039  0.00  0.00    +0.000 N 
ATOM     12  C   UNL     1      -1.123  10.939  18.421  0.00  0.00    +0.000 A 
ATOM     13  C   UNL     1      -1.268  12.238  18.005  0.00  0.00    +0.000 A 
ATOM     14  C   UNL     1      -0.085  12.872  18.417  0.00  0.00    +0.000 A 
ATOM     15  N   UNL     1       0.724  12.056  19.092  0.00  0.00    +0.000 NA
ENDBRANCH   8  11
ENDBRANCH   3   5
BRANCH   1  16
ATOM     16  C   UNL     1       2.360   3.626  21.358  0.00  0.00    +0.000 C 
BRANCH  16  17
ATOM     17  O   UNL     1       3.613   3.548  20.690  0.00  0.00    +0.000 OA
BRANCH  17  26
ATOM     18  C   UNL     1       7.361   4.746  17.420  0.00  0.00    +0.000 C 
ATOM     19  C   UNL     1       5.923   5.269  17.352  0.00  0.00    +0.000 C 
ATOM     20  C   UNL     1       5.914   6.793  17.222  0.00  0.00    +0.000 C 
ATOM     21  C   UNL     1       5.119   4.593  16.222  0.00  0.00    +0.000 C 
ATOM     22  C   UNL     1       4.204   3.741  17.019  0.00  0.00    +0.000 A 
ATOM     23  C   UNL     1       3.282   2.814  16.568  0.00  0.00    +0.000 A 
ATOM     24  C   UNL     1       2.502   2.149  17.515  0.00  0.00    +0.000 A 
ATOM     25  C   UNL     1       2.656   2.427  18.885  0.00  0.00    +0.000 A 
ATOM     26  C   UNL     1       3.586   3.370  19.336  0.00  0.00    +0.000 A 
ATOM     27  C   UNL     1       4.352   4.012  18.376  0.00  0.00    +0.000 A 
ATOM     28  O   UNL     1       5.299   4.967  18.627  0.00  0.00    +0.000 OA
ENDBRANCH  17  26
ENDBRANCH  16  17
ENDBRANCH   1  16
TORSDOF 5
ENDMDL
