MODEL 1
REMARK VINA RESULT:      -8.8      0.000      0.000
REMARK  Name = 
REMARK  3 active torsions:
REMARK  status: ('A' for Active; 'I' for Inactive)
REMARK    1  A    between atoms: C_7  and  C_8
REMARK    2  A    between atoms: N_10  and  C_11
REMARK    3  A    between atoms: C_17  and  C_18
REMARK                            x       y       z     vdW  Elec       q    Type
REMARK                         _______ _______ _______ _____ _____    ______ ____
ROOT
ATOM      1  C   UNL     1       2.720   5.767  18.108  0.00  0.00    +0.000 C 
ATOM      2  O   UNL     1       2.160   4.685  17.971  0.00  0.00    +0.000 OA
ATOM      3  N   UNL     1       3.899   6.081  17.477  0.00  0.00    +0.000 N 
ATOM      4  H   UNL     1       4.301   6.995  17.657  0.00  0.00    +0.000 HD
ENDROOT
BRANCH   1  11
ATOM      5  O   UNL     1       0.420  12.187  21.776  0.00  0.00    +0.000 OA
ATOM      6  C   UNL     1       0.555  11.261  20.981  0.00  0.00    +0.000 C 
ATOM      7  C   UNL     1       0.325  11.417  19.498  0.00  0.00    +0.000 C 
ATOM      8  C   UNL     1       1.272  10.559  18.671  0.00  0.00    +0.000 C 
ATOM      9  C   UNL     1       1.407   9.163  19.220  0.00  0.00    +0.000 A 
ATOM     10  C   UNL     1       1.906   8.118  18.420  0.00  0.00    +0.000 A 
ATOM     11  C   UNL     1       2.115   6.839  18.964  0.00  0.00    +0.000 A 
ATOM     12  C   UNL     1       1.788   6.627  20.309  0.00  0.00    +0.000 A 
ATOM     13  F   UNL     1       1.944   5.421  20.878  0.00  0.00    +0.000 F 
ATOM     14  C   UNL     1       1.317   7.658  21.116  0.00  0.00    +0.000 A 
ATOM     15  C   UNL     1       1.151   8.927  20.575  0.00  0.00    +0.000 A 
ATOM     16  N   UNL     1       0.802   9.987  21.417  0.00  0.00    +0.000 N 
ATOM     17  H   UNL     1       0.811   9.864  22.422  0.00  0.00    +0.000 HD
ENDBRANCH   1  11
BRANCH   3  18
ATOM     18  C   UNL     1       4.629   5.195  16.554  0.00  0.00    +0.000 C 
ATOM     19  C   UNL     1       5.487   4.238  17.392  0.00  0.00    +0.000 C 
ATOM     20  C   UNL     1       6.594   4.974  18.148  0.00  0.00    +0.000 C 
ATOM     21  C   UNL     1       7.233   6.145  17.429  0.00  0.00    +0.000 C 
ATOM     22  O   UNL     1       8.221   6.715  17.885  0.00  0.00    +0.000 OA
ATOM     23  N   UNL     1       6.655   6.604  16.286  0.00  0.00    +0.000 N 
ATOM     24  C   UNL     1       5.558   5.966  15.573  0.00  0.00    +0.000 C 
ATOM     25  H   UNL     1       7.141   7.368  15.831  0.00  0.00    +0.000 HD
BRANCH  24  26
ATOM     26  C   UNL     1       6.058   5.124  14.399  0.00  0.00    +0.000 A 
ATOM     27  C   UNL     1       7.325   5.298  13.814  0.00  0.00    +0.000 A 
ATOM     28  C   UNL     1       7.720   4.535  12.711  0.00  0.00    +0.000 A 
ATOM     29  C   UNL     1       6.857   3.584  12.172  0.00  0.00    +0.000 A 
ATOM     30  C   UNL     1       5.605   3.385  12.747  0.00  0.00    +0.000 A 
ATOM     31  C   UNL     1       5.211   4.141  13.853  0.00  0.00    +0.000 A 
ENDBRANCH  24  26
ENDBRANCH   3  18
TORSDOF 3
ENDMDL
MODEL 2
REMARK VINA RESULT:      -8.6      2.539      3.781
REMARK  Name = 
REMARK  3 active torsions:
REMARK  status: ('A' for Active; 'I' for Inactive)
REMARK    1  A    between atoms: C_7  and  C_8
REMARK    2  A    between atoms: N_10  and  C_11
REMARK    3  A    between atoms: C_17  and  C_18
REMARK                            x       y       z     vdW  Elec       q    Type
REMARK                         _______ _______ _______ _____ _____    ______ ____
ROOT
ATOM      1  C   UNL     1       1.689   8.693  18.910  0.00  0.00    +0.000 C 
ATOM      2  O   UNL     1       2.117   9.354  17.970  0.00  0.00    +0.000 OA
ATOM      3  N   UNL     1       1.962   7.355  19.066  0.00  0.00    +0.000 N 
ATOM      4  H   UNL     1       1.558   6.882  19.867  0.00  0.00    +0.000 HD
ENDROOT
BRANCH   1  11
ATOM      5  O   UNL     1      -2.376  13.205  23.714  0.00  0.00    +0.000 OA
ATOM      6  C   UNL     1      -2.012  12.488  22.786  0.00  0.00    +0.000 C 
ATOM      7  C   UNL     1      -2.551  12.629  21.383  0.00  0.00    +0.000 C 
ATOM      8  C   UNL     1      -1.499  12.328  20.326  0.00  0.00    +0.000 C 
ATOM      9  C   UNL     1      -0.696  11.095  20.652  0.00  0.00    +0.000 A 
ATOM     10  C   UNL     1       0.040  10.428  19.653  0.00  0.00    +0.000 A 
ATOM     11  C   UNL     1       0.858   9.334  19.981  0.00  0.00    +0.000 A 
ATOM     12  C   UNL     1       0.898   8.909  21.314  0.00  0.00    +0.000 A 
ATOM     13  F   UNL     1       1.643   7.855  21.683  0.00  0.00    +0.000 F 
ATOM     14  C   UNL     1       0.194   9.574  22.313  0.00  0.00    +0.000 A 
ATOM     15  C   UNL     1      -0.581  10.679  21.982  0.00  0.00    +0.000 A 
ATOM     16  N   UNL     1      -1.182  11.420  23.002  0.00  0.00    +0.000 N 
ATOM     17  H   UNL     1      -0.941  11.245  23.970  0.00  0.00    +0.000 HD
ENDBRANCH   1  11
BRANCH   3  18
ATOM     18  C   UNL     1       2.801   6.550  18.161  0.00  0.00    +0.000 C 
ATOM     19  C   UNL     1       2.026   5.275  17.805  0.00  0.00    +0.000 C 
ATOM     20  C   UNL     1       1.823   4.369  19.022  0.00  0.00    +0.000 C 
ATOM     21  C   UNL     1       2.963   4.321  20.019  0.00  0.00    +0.000 C 
ATOM     22  O   UNL     1       2.962   3.524  20.954  0.00  0.00    +0.000 OA
ATOM     23  N   UNL     1       3.973   5.224  19.901  0.00  0.00    +0.000 N 
ATOM     24  C   UNL     1       4.164   6.145  18.790  0.00  0.00    +0.000 C 
ATOM     25  H   UNL     1       4.723   5.126  20.575  0.00  0.00    +0.000 HD
BRANCH  24  26
ATOM     26  C   UNL     1       5.181   5.613  17.780  0.00  0.00    +0.000 A 
ATOM     27  C   UNL     1       6.349   4.926  18.156  0.00  0.00    +0.000 A 
ATOM     28  C   UNL     1       7.274   4.499  17.198  0.00  0.00    +0.000 A 
ATOM     29  C   UNL     1       7.048   4.751  15.847  0.00  0.00    +0.000 A 
ATOM     30  C   UNL     1       5.890   5.414  15.452  0.00  0.00    +0.000 A 
ATOM     31  C   UNL     1       4.961   5.835  16.407  0.00  0.00    +0.000 A 
ENDBRANCH  24  26
ENDBRANCH   3  18
TORSDOF 3
ENDMDL
MODEL 3
REMARK VINA RESULT:      -8.3      2.576      3.891
REMARK  Name = 
REMARK  3 active torsions:
REMARK  status: ('A' for Active; 'I' for Inactive)
REMARK    1  A    between atoms: C_7  and  C_8
REMARK    2  A    between atoms: N_10  and  C_11
REMARK    3  A    between atoms: C_17  and  C_18
REMARK                            x       y       z     vdW  Elec       q    Type
REMARK                         _______ _______ _______ _____ _____    ______ ____
ROOT
ATOM      1  C   UNL     1       1.720   8.830  18.507  0.00  0.00    +0.000 C 
ATOM      2  O   UNL     1       2.311   9.433  17.618  0.00  0.00    +0.000 OA
ATOM      3  N   UNL     1       1.876   7.482  18.725  0.00  0.00    +0.000 N 
ATOM      4  H   UNL     1       1.339   7.060  19.475  0.00  0.00    +0.000 HD
ENDROOT
BRANCH   1  11
ATOM      5  O   UNL     1      -2.930  13.638  22.409  0.00  0.00    +0.000 OA
ATOM      6  C   UNL     1      -2.469  12.806  21.631  0.00  0.00    +0.000 C 
ATOM      7  C   UNL     1      -3.007  12.606  20.235  0.00  0.00    +0.000 C 
ATOM      8  C   UNL     1      -1.914  12.241  19.241  0.00  0.00    +0.000 C 
ATOM      9  C   UNL     1      -0.967  11.205  19.787  0.00  0.00    +0.000 A 
ATOM     10  C   UNL     1      -0.142  10.455  18.925  0.00  0.00    +0.000 A 
ATOM     11  C   UNL     1       0.804   9.555  19.446  0.00  0.00    +0.000 A 
ATOM     12  C   UNL     1       0.883   9.404  20.835  0.00  0.00    +0.000 A 
ATOM     13  F   UNL     1       1.750   8.542  21.390  0.00  0.00    +0.000 F 
ATOM     14  C   UNL     1       0.090  10.156  21.697  0.00  0.00    +0.000 A 
ATOM     15  C   UNL     1      -0.814  11.070  21.171  0.00  0.00    +0.000 A 
ATOM     16  N   UNL     1      -1.514  11.913  22.038  0.00  0.00    +0.000 N 
ATOM     17  H   UNL     1      -1.263  11.959  23.017  0.00  0.00    +0.000 HD
ENDBRANCH   1  11
BRANCH   3  18
ATOM     18  C   UNL     1       2.767   6.597  17.955  0.00  0.00    +0.000 C 
ATOM     19  C   UNL     1       2.034   5.268  17.726  0.00  0.00    +0.000 C 
ATOM     20  C   UNL     1       1.802   4.509  19.034  0.00  0.00    +0.000 C 
ATOM     21  C   UNL     1       2.902   4.609  20.071  0.00  0.00    +0.000 C 
ATOM     22  O   UNL     1       2.881   3.929  21.095  0.00  0.00    +0.000 OA
ATOM     23  N   UNL     1       3.897   5.517  19.883  0.00  0.00    +0.000 N 
ATOM     24  C   UNL     1       4.113   6.304  18.678  0.00  0.00    +0.000 C 
ATOM     25  H   UNL     1       4.622   5.519  20.591  0.00  0.00    +0.000 HD
BRANCH  24  26
ATOM     26  C   UNL     1       5.180   5.682  17.777  0.00  0.00    +0.000 A 
ATOM     27  C   UNL     1       5.021   5.536  16.387  0.00  0.00    +0.000 A 
ATOM     28  C   UNL     1       6.006   4.917  15.611  0.00  0.00    +0.000 A 
ATOM     29  C   UNL     1       7.168   4.435  16.208  0.00  0.00    +0.000 A 
ATOM     30  C   UNL     1       7.352   4.585  17.580  0.00  0.00    +0.000 A 
ATOM     31  C   UNL     1       6.372   5.208  18.356  0.00  0.00    +0.000 A 
ENDBRANCH  24  26
ENDBRANCH   3  18
TORSDOF 3
ENDMDL
MODEL 4
REMARK VINA RESULT:      -8.2      1.482      1.723
REMARK  Name = 
REMARK  3 active torsions:
REMARK  status: ('A' for Active; 'I' for Inactive)
REMARK    1  A    between atoms: C_7  and  C_8
REMARK    2  A    between atoms: N_10  and  C_11
REMARK    3  A    between atoms: C_17  and  C_18
REMARK                            x       y       z     vdW  Elec       q    Type
REMARK                         _______ _______ _______ _____ _____    ______ ____
ROOT
ATOM      1  C   UNL     1       2.584   7.465  18.101  0.00  0.00    +0.000 C 
ATOM      2  O   UNL     1       2.975   8.098  17.127  0.00  0.00    +0.000 OA
ATOM      3  N   UNL     1       2.846   6.127  18.275  0.00  0.00    +0.000 N 
ATOM      4  H   UNL     1       2.474   5.678  19.105  0.00  0.00    +0.000 HD
ENDROOT
BRANCH   1  11
ATOM      5  O   UNL     1      -0.887  12.160  23.187  0.00  0.00    +0.000 OA
ATOM      6  C   UNL     1      -0.599  11.489  22.200  0.00  0.00    +0.000 C 
ATOM      7  C   UNL     1      -0.986  11.890  20.797  0.00  0.00    +0.000 C 
ATOM      8  C   UNL     1       0.068  11.497  19.772  0.00  0.00    +0.000 C 
ATOM      9  C   UNL     1       0.584  10.099  19.988  0.00  0.00    +0.000 A 
ATOM     10  C   UNL     1       1.253   9.408  18.958  0.00  0.00    +0.000 A 
ATOM     11  C   UNL     1       1.811   8.141  19.194  0.00  0.00    +0.000 A 
ATOM     12  C   UNL     1       1.661   7.574  20.465  0.00  0.00    +0.000 A 
ATOM     13  F   UNL     1       2.153   6.356  20.743  0.00  0.00    +0.000 F 
ATOM     14  C   UNL     1       1.024   8.256  21.497  0.00  0.00    +0.000 A 
ATOM     15  C   UNL     1       0.510   9.525  21.261  0.00  0.00    +0.000 A 
ATOM     16  N   UNL     1      -0.014  10.258  22.330  0.00  0.00    +0.000 N 
ATOM     17  H   UNL     1       0.110   9.933  23.280  0.00  0.00    +0.000 HD
ENDBRANCH   1  11
BRANCH   3  18
ATOM     18  C   UNL     1       3.631   5.290  17.352  0.00  0.00    +0.000 C 
ATOM     19  C   UNL     1       3.951   3.969  18.063  0.00  0.00    +0.000 C 
ATOM     20  C   UNL     1       4.884   4.173  19.259  0.00  0.00    +0.000 C 
ATOM     21  C   UNL     1       5.951   5.236  19.101  0.00  0.00    +0.000 C 
ATOM     22  O   UNL     1       6.836   5.384  19.941  0.00  0.00    +0.000 OA
ATOM     23  N   UNL     1       5.884   6.078  18.035  0.00  0.00    +0.000 N 
ATOM     24  C   UNL     1       4.967   5.953  16.911  0.00  0.00    +0.000 C 
ATOM     25  H   UNL     1       6.639   6.749  17.963  0.00  0.00    +0.000 HD
BRANCH  24  26
ATOM     26  C   UNL     1       5.630   5.278  15.710  0.00  0.00    +0.000 A 
ATOM     27  C   UNL     1       7.008   5.371  15.441  0.00  0.00    +0.000 A 
ATOM     28  C   UNL     1       7.561   4.774  14.304  0.00  0.00    +0.000 A 
ATOM     29  C   UNL     1       6.749   4.073  13.416  0.00  0.00    +0.000 A 
ATOM     30  C   UNL     1       5.386   3.954  13.673  0.00  0.00    +0.000 A 
ATOM     31  C   UNL     1       4.832   4.544  14.812  0.00  0.00    +0.000 A 
ENDBRANCH  24  26
ENDBRANCH   3  18
TORSDOF 3
ENDMDL
MODEL 5
REMARK VINA RESULT:      -8.1      1.463      1.991
REMARK  Name = 
REMARK  3 active torsions:
REMARK  status: ('A' for Active; 'I' for Inactive)
REMARK    1  A    between atoms: C_7  and  C_8
REMARK    2  A    between atoms: N_10  and  C_11
REMARK    3  A    between atoms: C_17  and  C_18
REMARK                            x       y       z     vdW  Elec       q    Type
REMARK                         _______ _______ _______ _____ _____    ______ ____
ROOT
ATOM      1  C   UNL     1       2.487   6.583  18.271  0.00  0.00    +0.000 C 
ATOM      2  O   UNL     1       1.820   5.571  18.086  0.00  0.00    +0.000 OA
ATOM      3  N   UNL     1       3.758   6.739  17.775  0.00  0.00    +0.000 N 
ATOM      4  H   UNL     1       4.243   7.605  17.986  0.00  0.00    +0.000 HD
ENDROOT
BRANCH   1  11
ATOM      5  O   UNL     1      -1.270  11.591  22.829  0.00  0.00    +0.000 OA
ATOM      6  C   UNL     1      -0.494  10.754  22.376  0.00  0.00    +0.000 C 
ATOM      7  C   UNL     1       0.117   9.663  23.220  0.00  0.00    +0.000 C 
ATOM      8  C   UNL     1       0.302   8.366  22.446  0.00  0.00    +0.000 C 
ATOM      9  C   UNL     1       0.872   8.596  21.071  0.00  0.00    +0.000 A 
ATOM     10  C   UNL     1       1.473   7.543  20.354  0.00  0.00    +0.000 A 
ATOM     11  C   UNL     1       1.922   7.742  19.037  0.00  0.00    +0.000 A 
ATOM     12  C   UNL     1       1.781   9.015  18.471  0.00  0.00    +0.000 A 
ATOM     13  F   UNL     1       2.212   9.271  17.226  0.00  0.00    +0.000 F 
ATOM     14  C   UNL     1       1.167  10.056  19.161  0.00  0.00    +0.000 A 
ATOM     15  C   UNL     1       0.694   9.836  20.449  0.00  0.00    +0.000 A 
ATOM     16  N   UNL     1      -0.034  10.842  21.089  0.00  0.00    +0.000 N 
ATOM     17  H   UNL     1      -0.337  11.659  20.573  0.00  0.00    +0.000 HD
ENDBRANCH   1  11
BRANCH   3  18
ATOM     18  C   UNL     1       4.475   5.749  16.955  0.00  0.00    +0.000 C 
ATOM     19  C   UNL     1       5.261   4.829  17.899  0.00  0.00    +0.000 C 
ATOM     20  C   UNL     1       6.376   5.577  18.631  0.00  0.00    +0.000 C 
ATOM     21  C   UNL     1       7.091   6.655  17.842  0.00  0.00    +0.000 C 
ATOM     22  O   UNL     1       8.089   7.218  18.285  0.00  0.00    +0.000 OA
ATOM     23  N   UNL     1       6.572   7.041  16.645  0.00  0.00    +0.000 N 
ATOM     24  C   UNL     1       5.471   6.394  15.948  0.00  0.00    +0.000 C 
ATOM     25  H   UNL     1       7.107   7.742  16.147  0.00  0.00    +0.000 HD
BRANCH  24  26
ATOM     26  C   UNL     1       5.969   5.436  14.865  0.00  0.00    +0.000 A 
ATOM     27  C   UNL     1       7.250   5.525  14.292  0.00  0.00    +0.000 A 
ATOM     28  C   UNL     1       7.644   4.654  13.271  0.00  0.00    +0.000 A 
ATOM     29  C   UNL     1       6.765   3.679  12.805  0.00  0.00    +0.000 A 
ATOM     30  C   UNL     1       5.499   3.563  13.370  0.00  0.00    +0.000 A 
ATOM     31  C   UNL     1       5.106   4.428  14.395  0.00  0.00    +0.000 A 
ENDBRANCH  24  26
ENDBRANCH   3  18
TORSDOF 3
ENDMDL
MODEL 6
REMARK VINA RESULT:      -7.9      4.056      9.197
REMARK  Name = 
REMARK  3 active torsions:
REMARK  status: ('A' for Active; 'I' for Inactive)
REMARK    1  A    between atoms: C_7  and  C_8
REMARK    2  A    between atoms: N_10  and  C_11
REMARK    3  A    between atoms: C_17  and  C_18
REMARK                            x       y       z     vdW  Elec       q    Type
REMARK                         _______ _______ _______ _____ _____    ______ ____
ROOT
ATOM      1  C   UNL     1       1.482   8.587  20.703  0.00  0.00    +0.000 C 
ATOM      2  O   UNL     1       1.587   8.706  21.919  0.00  0.00    +0.000 OA
ATOM      3  N   UNL     1       1.091   9.618  19.884  0.00  0.00    +0.000 N 
ATOM      4  H   UNL     1       1.018   9.429  18.890  0.00  0.00    +0.000 HD
ENDROOT
BRANCH   1  11
ATOM      5  O   UNL     1       3.385   1.396  18.551  0.00  0.00    +0.000 OA
ATOM      6  C   UNL     1       2.787   2.402  18.924  0.00  0.00    +0.000 C 
ATOM      7  C   UNL     1       1.612   2.352  19.868  0.00  0.00    +0.000 C 
ATOM      8  C   UNL     1       1.570   3.551  20.804  0.00  0.00    +0.000 C 
ATOM      9  C   UNL     1       1.843   4.847  20.088  0.00  0.00    +0.000 A 
ATOM     10  C   UNL     1       1.477   6.080  20.662  0.00  0.00    +0.000 A 
ATOM     11  C   UNL     1       1.816   7.289  20.030  0.00  0.00    +0.000 A 
ATOM     12  C   UNL     1       2.496   7.234  18.809  0.00  0.00    +0.000 A 
ATOM     13  F   UNL     1       2.825   8.355  18.147  0.00  0.00    +0.000 F 
ATOM     14  C   UNL     1       2.883   6.022  18.244  0.00  0.00    +0.000 A 
ATOM     15  C   UNL     1       2.576   4.835  18.897  0.00  0.00    +0.000 A 
ATOM     16  N   UNL     1       3.076   3.631  18.394  0.00  0.00    +0.000 N 
ATOM     17  H   UNL     1       3.768   3.635  17.655  0.00  0.00    +0.000 HD
ENDBRANCH   1  11
BRANCH   3  18
ATOM     18  C   UNL     1       0.771  10.983  20.334  0.00  0.00    +0.000 C 
ATOM     19  C   UNL     1      -0.711  11.019  20.728  0.00  0.00    +0.000 C 
ATOM     20  C   UNL     1      -1.630  10.804  19.524  0.00  0.00    +0.000 C 
ATOM     21  C   UNL     1      -1.170  11.411  18.214  0.00  0.00    +0.000 C 
ATOM     22  O   UNL     1      -1.895  11.418  17.222  0.00  0.00    +0.000 OA
ATOM     23  N   UNL     1       0.096  11.902  18.129  0.00  0.00    +0.000 N 
ATOM     24  C   UNL     1       1.021  12.062  19.241  0.00  0.00    +0.000 C 
ATOM     25  H   UNL     1       0.339  12.323  17.241  0.00  0.00    +0.000 HD
BRANCH  24  26
ATOM     26  C   UNL     1       1.027  13.495  19.773  0.00  0.00    +0.000 A 
ATOM     27  C   UNL     1       1.505  13.838  21.050  0.00  0.00    +0.000 A 
ATOM     28  C   UNL     1       1.447  15.158  21.511  0.00  0.00    +0.000 A 
ATOM     29  C   UNL     1       0.912  16.158  20.703  0.00  0.00    +0.000 A 
ATOM     30  C   UNL     1       0.450  15.843  19.429  0.00  0.00    +0.000 A 
ATOM     31  C   UNL     1       0.513  14.526  18.964  0.00  0.00    +0.000 A 
ENDBRANCH  24  26
ENDBRANCH   3  18
TORSDOF 3
ENDMDL
MODEL 7
REMARK VINA RESULT:      -7.9      0.992      1.018
REMARK  Name = 
REMARK  3 active torsions:
REMARK  status: ('A' for Active; 'I' for Inactive)
REMARK    1  A    between atoms: C_7  and  C_8
REMARK    2  A    between atoms: N_10  and  C_11
REMARK    3  A    between atoms: C_17  and  C_18
REMARK                            x       y       z     vdW  Elec       q    Type
REMARK                         _______ _______ _______ _____ _____    ______ ____
ROOT
ATOM      1  C   UNL     1       3.231   6.998  17.628  0.00  0.00    +0.000 C 
ATOM      2  O   UNL     1       3.483   7.663  16.628  0.00  0.00    +0.000 OA
ATOM      3  N   UNL     1       3.690   5.715  17.804  0.00  0.00    +0.000 N 
ATOM      4  H   UNL     1       3.424   5.232  18.655  0.00  0.00    +0.000 HD
ENDROOT
BRANCH   1  11
ATOM      5  O   UNL     1      -0.460  11.239  22.952  0.00  0.00    +0.000 OA
ATOM      6  C   UNL     1      -0.135  10.646  21.927  0.00  0.00    +0.000 C 
ATOM      7  C   UNL     1      -0.505  11.133  20.548  0.00  0.00    +0.000 C 
ATOM      8  C   UNL     1       0.578  10.840  19.520  0.00  0.00    +0.000 C 
ATOM      9  C   UNL     1       1.127   9.443  19.650  0.00  0.00    +0.000 A 
ATOM     10  C   UNL     1       1.833   8.844  18.589  0.00  0.00    +0.000 A 
ATOM     11  C   UNL     1       2.420   7.577  18.748  0.00  0.00    +0.000 A 
ATOM     12  C   UNL     1       2.261   6.920  19.973  0.00  0.00    +0.000 A 
ATOM     13  F   UNL     1       2.779   5.698  20.177  0.00  0.00    +0.000 F 
ATOM     14  C   UNL     1       1.587   7.512  21.037  0.00  0.00    +0.000 A 
ATOM     15  C   UNL     1       1.043   8.781  20.879  0.00  0.00    +0.000 A 
ATOM     16  N   UNL     1       0.480   9.424  21.984  0.00  0.00    +0.000 N 
ATOM     17  H   UNL     1       0.595   9.036  22.912  0.00  0.00    +0.000 HD
ENDBRANCH   1  11
BRANCH   3  18
ATOM     18  C   UNL     1       4.544   4.982  16.854  0.00  0.00    +0.000 C 
ATOM     19  C   UNL     1       5.538   4.138  17.662  0.00  0.00    +0.000 C 
ATOM     20  C   UNL     1       6.523   5.006  18.447  0.00  0.00    +0.000 C 
ATOM     21  C   UNL     1       6.975   6.284  17.770  0.00  0.00    +0.000 C 
ATOM     22  O   UNL     1       7.867   6.981  18.250  0.00  0.00    +0.000 OA
ATOM     23  N   UNL     1       6.333   6.689  16.642  0.00  0.00    +0.000 N 
ATOM     24  C   UNL     1       5.345   5.918  15.903  0.00  0.00    +0.000 C 
ATOM     25  H   UNL     1       6.698   7.533  16.215  0.00  0.00    +0.000 HD
BRANCH  24  26
ATOM     26  C   UNL     1       5.964   5.202  14.703  0.00  0.00    +0.000 A 
ATOM     27  C   UNL     1       7.239   5.514  14.197  0.00  0.00    +0.000 A 
ATOM     28  C   UNL     1       7.745   4.863  13.067  0.00  0.00    +0.000 A 
ATOM     29  C   UNL     1       6.986   3.889  12.423  0.00  0.00    +0.000 A 
ATOM     30  C   UNL     1       5.730   3.553  12.918  0.00  0.00    +0.000 A 
ATOM     31  C   UNL     1       5.225   4.197  14.050  0.00  0.00    +0.000 A 
ENDBRANCH  24  26
ENDBRANCH   3  18
TORSDOF 3
ENDMDL
MODEL 8
REMARK VINA RESULT:      -7.9      2.763      4.049
REMARK  Name = 
REMARK  3 active torsions:
REMARK  status: ('A' for Active; 'I' for Inactive)
REMARK    1  A    between atoms: C_7  and  C_8
REMARK    2  A    between atoms: N_10  and  C_11
REMARK    3  A    between atoms: C_17  and  C_18
REMARK                            x       y       z     vdW  Elec       q    Type
REMARK                         _______ _______ _______ _____ _____    ______ ____
ROOT
ATOM      1  C   UNL     1       1.951   8.894  18.245  0.00  0.00    +0.000 C 
ATOM      2  O   UNL     1       2.218   9.294  17.118  0.00  0.00    +0.000 OA
ATOM      3  N   UNL     1       2.312   7.648  18.698  0.00  0.00    +0.000 N 
ATOM      4  H   UNL     1       2.040   7.392  19.642  0.00  0.00    +0.000 HD
ENDROOT
BRANCH   1  11
ATOM      5  O   UNL     1      -2.589  12.313  23.504  0.00  0.00    +0.000 OA
ATOM      6  C   UNL     1      -1.715  11.663  22.938  0.00  0.00    +0.000 C 
ATOM      7  C   UNL     1      -1.116  10.409  23.526  0.00  0.00    +0.000 C 
ATOM      8  C   UNL     1      -0.764   9.381  22.461  0.00  0.00    +0.000 C 
ATOM      9  C   UNL     1      -0.075  10.000  21.273  0.00  0.00    +0.000 A 
ATOM     10  C   UNL     1       0.668   9.208  20.376  0.00  0.00    +0.000 A 
ATOM     11  C   UNL     1       1.232   9.776  19.221  0.00  0.00    +0.000 A 
ATOM     12  C   UNL     1       1.060  11.148  19.003  0.00  0.00    +0.000 A 
ATOM     13  F   UNL     1       1.596  11.752  17.930  0.00  0.00    +0.000 F 
ATOM     14  C   UNL     1       0.309  11.936  19.870  0.00  0.00    +0.000 A 
ATOM     15  C   UNL     1      -0.276  11.354  20.988  0.00  0.00    +0.000 A 
ATOM     16  N   UNL     1      -1.134  12.118  21.784  0.00  0.00    +0.000 N 
ATOM     17  H   UNL     1      -1.439  13.032  21.473  0.00  0.00    +0.000 HD
ENDBRANCH   1  11
BRANCH   3  18
ATOM     18  C   UNL     1       3.068   6.650  17.923  0.00  0.00    +0.000 C 
ATOM     19  C   UNL     1       2.169   5.423  17.722  0.00  0.00    +0.000 C 
ATOM     20  C   UNL     1       1.867   4.711  19.043  0.00  0.00    +0.000 C 
ATOM     21  C   UNL     1       2.991   4.680  20.058  0.00  0.00    +0.000 C 
ATOM     22  O   UNL     1       2.904   4.018  21.090  0.00  0.00    +0.000 OA
ATOM     23  N   UNL     1       4.089   5.453  19.842  0.00  0.00    +0.000 N 
ATOM     24  C   UNL     1       4.380   6.195  18.625  0.00  0.00    +0.000 C 
ATOM     25  H   UNL     1       4.822   5.369  20.537  0.00  0.00    +0.000 HD
BRANCH  24  26
ATOM     26  C   UNL     1       5.342   5.435  17.712  0.00  0.00    +0.000 A 
ATOM     27  C   UNL     1       6.656   5.104  18.088  0.00  0.00    +0.000 A 
ATOM     28  C   UNL     1       7.516   4.448  17.200  0.00  0.00    +0.000 A 
ATOM     29  C   UNL     1       7.077   4.111  15.922  0.00  0.00    +0.000 A 
ATOM     30  C   UNL     1       5.775   4.414  15.537  0.00  0.00    +0.000 A 
ATOM     31  C   UNL     1       4.912   5.063  16.424  0.00  0.00    +0.000 A 
ENDBRANCH  24  26
ENDBRANCH   3  18
TORSDOF 3
ENDMDL
MODEL 9
REMARK VINA RESULT:      -7.7      3.139      4.688
REMARK  Name = 
REMARK  3 active torsions:
REMARK  status: ('A' for Active; 'I' for Inactive)
REMARK    1  A    between atoms: C_7  and  C_8
REMARK    2  A    between atoms: N_10  and  C_11
REMARK    3  A    between atoms: C_17  and  C_18
REMARK                            x       y       z     vdW  Elec       q    Type
REMARK                         _______ _______ _______ _____ _____    ______ ____
ROOT
ATOM      1  C   UNL     1       1.525   8.955  17.805  0.00  0.00    +0.000 C 
ATOM      2  O   UNL     1       2.470   9.551  17.299  0.00  0.00    +0.000 OA
ATOM      3  N   UNL     1       1.521   7.595  17.999  0.00  0.00    +0.000 N 
ATOM      4  H   UNL     1       0.693   7.181  18.414  0.00  0.00    +0.000 HD
ENDROOT
BRANCH   1  11
ATOM      5  O   UNL     1      -5.083  12.845  18.884  0.00  0.00    +0.000 OA
ATOM      6  C   UNL     1      -4.236  11.971  18.719  0.00  0.00    +0.000 C 
ATOM      7  C   UNL     1      -4.522  10.682  17.987  0.00  0.00    +0.000 C 
ATOM      8  C   UNL     1      -3.321  10.188  17.195  0.00  0.00    +0.000 C 
ATOM      9  C   UNL     1      -2.039  10.283  17.979  0.00  0.00    +0.000 A 
ATOM     10  C   UNL     1      -0.903   9.540  17.600  0.00  0.00    +0.000 A 
ATOM     11  C   UNL     1       0.315   9.701  18.281  0.00  0.00    +0.000 A 
ATOM     12  C   UNL     1       0.362  10.594  19.358  0.00  0.00    +0.000 A 
ATOM     13  F   UNL     1       1.491  10.772  20.062  0.00  0.00    +0.000 F 
ATOM     14  C   UNL     1      -0.746  11.350  19.727  0.00  0.00    +0.000 A 
ATOM     15  C   UNL     1      -1.935  11.210  19.021  0.00  0.00    +0.000 A 
ATOM     16  N   UNL     1      -3.004  12.061  19.311  0.00  0.00    +0.000 N 
ATOM     17  H   UNL     1      -2.871  12.859  19.919  0.00  0.00    +0.000 HD
ENDBRANCH   1  11
BRANCH   3  18
ATOM     18  C   UNL     1       2.627   6.685  17.655  0.00  0.00    +0.000 C 
ATOM     19  C   UNL     1       2.071   5.256  17.607  0.00  0.00    +0.000 C 
ATOM     20  C   UNL     1       1.612   4.773  18.985  0.00  0.00    +0.000 C 
ATOM     21  C   UNL     1       2.442   5.234  20.166  0.00  0.00    +0.000 C 
ATOM     22  O   UNL     1       2.246   4.793  21.297  0.00  0.00    +0.000 OA
ATOM     23  N   UNL     1       3.380   6.199  19.970  0.00  0.00    +0.000 N 
ATOM     24  C   UNL     1       3.796   6.729  18.680  0.00  0.00    +0.000 C 
ATOM     25  H   UNL     1       3.925   6.446  20.787  0.00  0.00    +0.000 HD
BRANCH  24  26
ATOM     26  C   UNL     1       5.083   6.070  18.184  0.00  0.00    +0.000 A 
ATOM     27  C   UNL     1       5.472   6.067  16.833  0.00  0.00    +0.000 A 
ATOM     28  C   UNL     1       6.636   5.409  16.420  0.00  0.00    +0.000 A 
ATOM     29  C   UNL     1       7.431   4.743  17.349  0.00  0.00    +0.000 A 
ATOM     30  C   UNL     1       7.072   4.748  18.694  0.00  0.00    +0.000 A 
ATOM     31  C   UNL     1       5.914   5.410  19.110  0.00  0.00    +0.000 A 
ENDBRANCH  24  26
ENDBRANCH   3  18
TORSDOF 3
ENDMDL
