MODEL 1
REMARK VINA RESULT:      -9.1      0.000      0.000
REMARK  Name = 
REMARK  6 active torsions:
REMARK  status: ('A' for Active; 'I' for Inactive)
REMARK    1  A    between atoms: C_2  and  C_19
REMARK    2  A    between atoms: N_3  and  C_4
REMARK    3  A    between atoms: C_4  and  C_5
REMARK    4  A    between atoms: C_8  and  O_9
REMARK    5  A    between atoms: O_9  and  C_10
REMARK    6  A    between atoms: N_21  and  C_22
REMARK                            x       y       z     vdW  Elec       q    Type
REMARK                         _______ _______ _______ _____ _____    ______ ____
ROOT
ATOM      1  O   UNL     1      -2.329  11.933  19.536  0.00  0.00    +0.000 OA
ATOM      2  C   UNL     1      -2.053  11.580  18.394  0.00  0.00    +0.000 C 
ATOM      3  N   UNL     1      -0.790  11.311  17.925  0.00  0.00    +0.000 N 
ATOM      4  H   UNL     1      -0.698  11.036  16.953  0.00  0.00    +0.000 HD
ENDROOT
BRANCH   2   5
ATOM      5  C   UNL     1      -3.206  11.381  17.374  0.00  0.00    +0.000 C 
ATOM      6  O   UNL     1      -3.018  10.823  16.309  0.00  0.00    +0.000 OA
ATOM      7  N   UNL     1      -4.389  11.848  17.890  0.00  0.00    +0.000 N 
ATOM      8  H   UNL     1      -4.285  12.255  18.816  0.00  0.00    +0.000 HD
BRANCH   7   9
ATOM      9  C   UNL     1      -5.742  11.621  17.386  0.00  0.00    +0.000 C 
ATOM     10  C   UNL     1      -6.399  13.002  17.144  0.00  0.00    +0.000 C 
ATOM     11  C   UNL     1      -6.628  13.783  18.457  0.00  0.00    +0.000 C 
ATOM     12  C   UNL     1      -7.392  12.929  19.461  0.00  0.00    +0.000 C 
ATOM     13  C   UNL     1      -7.467  13.438  20.898  0.00  0.00    +0.000 C 
ATOM     14  C   UNL     1      -7.776  12.175  21.725  0.00  0.00    +0.000 C 
ATOM     15  C   UNL     1      -7.595  10.978  20.776  0.00  0.00    +0.000 C 
ATOM     16  C   UNL     1      -6.738  11.565  19.669  0.00  0.00    +0.000 C 
ATOM     17  C   UNL     1      -6.623  10.804  18.358  0.00  0.00    +0.000 C 
ENDBRANCH   7   9
ENDBRANCH   2   5
BRANCH   3  18
ATOM     18  C   UNL     1       0.368  11.431  18.778  0.00  0.00    +0.000 C 
BRANCH  18  19
ATOM     19  C   UNL     1       1.069  10.109  18.959  0.00  0.00    +0.000 A 
ATOM     20  C   UNL     1       1.858   9.566  17.934  0.00  0.00    +0.000 A 
ATOM     21  C   UNL     1       2.461   8.312  18.081  0.00  0.00    +0.000 A 
ATOM     22  C   UNL     1       2.281   7.579  19.256  0.00  0.00    +0.000 A 
ATOM     23  C   UNL     1       1.559   8.155  20.304  0.00  0.00    +0.000 A 
ATOM     24  F   UNL     1       1.440   7.539  21.489  0.00  0.00    +0.000 F 
ATOM     25  C   UNL     1       0.928   9.389  20.150  0.00  0.00    +0.000 A 
BRANCH  22  26
ATOM     26  O   UNL     1       2.901   6.350  19.295  0.00  0.00    +0.000 OA
BRANCH  26  27
ATOM     27  C   UNL     1       2.153   5.202  19.210  0.00  0.00    +0.000 A 
ATOM     28  C   UNL     1       1.575   4.532  20.286  0.00  0.00    +0.000 A 
ATOM     29  C   UNL     1       0.896   3.335  20.065  0.00  0.00    +0.000 A 
ATOM     30  C   UNL     1       0.763   2.884  18.761  0.00  0.00    +0.000 A 
ATOM     31  N   UNL     1       1.238   3.549  17.687  0.00  0.00    +0.000 NA
ATOM     32  C   UNL     1       1.921   4.692  17.938  0.00  0.00    +0.000 A 
ENDBRANCH  26  27
ENDBRANCH  22  26
ENDBRANCH  18  19
ENDBRANCH   3  18
TORSDOF 6
ENDMDL
MODEL 2
REMARK VINA RESULT:      -8.4      2.881     10.297
REMARK  Name = 
REMARK  6 active torsions:
REMARK  status: ('A' for Active; 'I' for Inactive)
REMARK    1  A    between atoms: C_2  and  C_19
REMARK    2  A    between atoms: N_3  and  C_4
REMARK    3  A    between atoms: C_4  and  C_5
REMARK    4  A    between atoms: C_8  and  O_9
REMARK    5  A    between atoms: O_9  and  C_10
REMARK    6  A    between atoms: N_21  and  C_22
REMARK                            x       y       z     vdW  Elec       q    Type
REMARK                         _______ _______ _______ _____ _____    ______ ____
ROOT
ATOM      1  O   UNL     1       2.527   8.793  17.466  0.00  0.00    +0.000 OA
ATOM      2  C   UNL     1       1.977   8.566  18.540  0.00  0.00    +0.000 C 
ATOM      3  N   UNL     1       1.122   9.420  19.193  0.00  0.00    +0.000 N 
ATOM      4  H   UNL     1       0.740   9.113  20.082  0.00  0.00    +0.000 HD
ENDROOT
BRANCH   2   5
ATOM      5  C   UNL     1       2.221   7.198  19.230  0.00  0.00    +0.000 C 
ATOM      6  O   UNL     1       1.779   6.963  20.340  0.00  0.00    +0.000 OA
ATOM      7  N   UNL     1       2.907   6.353  18.394  0.00  0.00    +0.000 N 
ATOM      8  H   UNL     1       3.147   6.785  17.504  0.00  0.00    +0.000 HD
BRANCH   7   9
ATOM      9  C   UNL     1       3.108   4.913  18.537  0.00  0.00    +0.000 C 
ATOM     10  C   UNL     1       4.236   4.689  19.574  0.00  0.00    +0.000 C 
ATOM     11  C   UNL     1       5.606   5.197  19.072  0.00  0.00    +0.000 C 
ATOM     12  C   UNL     1       5.928   4.605  17.705  0.00  0.00    +0.000 C 
ATOM     13  C   UNL     1       7.106   5.206  16.943  0.00  0.00    +0.000 C 
ATOM     14  C   UNL     1       6.835   4.822  15.476  0.00  0.00    +0.000 C 
ATOM     15  C   UNL     1       5.401   4.267  15.428  0.00  0.00    +0.000 C 
ATOM     16  C   UNL     1       4.794   4.820  16.705  0.00  0.00    +0.000 C 
ATOM     17  C   UNL     1       3.493   4.219  17.212  0.00  0.00    +0.000 C 
ENDBRANCH   7   9
ENDBRANCH   2   5
BRANCH   3  18
ATOM     18  C   UNL     1       0.789  10.713  18.646  0.00  0.00    +0.000 C 
BRANCH  18  19
ATOM     19  C   UNL     1      -0.699  10.887  18.486  0.00  0.00    +0.000 A 
ATOM     20  C   UNL     1      -1.428  10.076  17.602  0.00  0.00    +0.000 A 
ATOM     21  C   UNL     1      -2.799  10.277  17.410  0.00  0.00    +0.000 A 
ATOM     22  C   UNL     1      -3.464  11.294  18.098  0.00  0.00    +0.000 A 
ATOM     23  C   UNL     1      -2.753  12.049  19.034  0.00  0.00    +0.000 A 
ATOM     24  F   UNL     1      -3.363  12.970  19.794  0.00  0.00    +0.000 F 
ATOM     25  C   UNL     1      -1.380  11.876  19.203  0.00  0.00    +0.000 A 
BRANCH  22  26
ATOM     26  O   UNL     1      -4.808  11.420  17.826  0.00  0.00    +0.000 OA
BRANCH  26  27
ATOM     27  C   UNL     1      -5.736  11.083  18.780  0.00  0.00    +0.000 A 
ATOM     28  C   UNL     1      -6.273  11.951  19.728  0.00  0.00    +0.000 A 
ATOM     29  C   UNL     1      -7.160  11.459  20.684  0.00  0.00    +0.000 A 
ATOM     30  C   UNL     1      -7.527  10.125  20.618  0.00  0.00    +0.000 A 
ATOM     31  N   UNL     1      -7.091   9.274  19.665  0.00  0.00    +0.000 NA
ATOM     32  C   UNL     1      -6.206   9.775  18.769  0.00  0.00    +0.000 A 
ENDBRANCH  26  27
ENDBRANCH  22  26
ENDBRANCH  18  19
ENDBRANCH   3  18
TORSDOF 6
ENDMDL
MODEL 3
REMARK VINA RESULT:      -8.4      2.499      9.218
REMARK  Name = 
REMARK  6 active torsions:
REMARK  status: ('A' for Active; 'I' for Inactive)
REMARK    1  A    between atoms: C_2  and  C_19
REMARK    2  A    between atoms: N_3  and  C_4
REMARK    3  A    between atoms: C_4  and  C_5
REMARK    4  A    between atoms: C_8  and  O_9
REMARK    5  A    between atoms: O_9  and  C_10
REMARK    6  A    between atoms: N_21  and  C_22
REMARK                            x       y       z     vdW  Elec       q    Type
REMARK                         _______ _______ _______ _____ _____    ______ ____
ROOT
ATOM      1  O   UNL     1       1.021   9.040  20.327  0.00  0.00    +0.000 OA
ATOM      2  C   UNL     1       1.261   9.327  19.158  0.00  0.00    +0.000 C 
ATOM      3  N   UNL     1       0.906  10.499  18.535  0.00  0.00    +0.000 N 
ATOM      4  H   UNL     1       1.158  10.607  17.558  0.00  0.00    +0.000 HD
ENDROOT
BRANCH   2   5
ATOM      5  C   UNL     1       2.057   8.317  18.289  0.00  0.00    +0.000 C 
ATOM      6  O   UNL     1       2.296   8.543  17.117  0.00  0.00    +0.000 OA
ATOM      7  N   UNL     1       2.468   7.250  19.047  0.00  0.00    +0.000 N 
ATOM      8  H   UNL     1       2.154   7.306  20.014  0.00  0.00    +0.000 HD
BRANCH   7   9
ATOM      9  C   UNL     1       3.449   6.223  18.701  0.00  0.00    +0.000 C 
ATOM     10  C   UNL     1       2.885   5.407  17.512  0.00  0.00    +0.000 C 
ATOM     11  C   UNL     1       1.631   4.592  17.901  0.00  0.00    +0.000 C 
ATOM     12  C   UNL     1       1.908   3.737  19.132  0.00  0.00    +0.000 C 
ATOM     13  C   UNL     1       0.710   3.081  19.812  0.00  0.00    +0.000 C 
ATOM     14  C   UNL     1       1.206   2.791  21.241  0.00  0.00    +0.000 C 
ATOM     15  C   UNL     1       2.547   3.529  21.396  0.00  0.00    +0.000 C 
ATOM     16  C   UNL     1       2.482   4.559  20.283  0.00  0.00    +0.000 C 
ATOM     17  C   UNL     1       3.764   5.265  19.871  0.00  0.00    +0.000 C 
ENDBRANCH   7   9
ENDBRANCH   2   5
BRANCH   3  18
ATOM     18  C   UNL     1       0.186  11.534  19.238  0.00  0.00    +0.000 C 
BRANCH  18  19
ATOM     19  C   UNL     1      -1.300  11.436  19.009  0.00  0.00    +0.000 A 
ATOM     20  C   UNL     1      -1.830  10.501  18.106  0.00  0.00    +0.000 A 
ATOM     21  C   UNL     1      -3.204  10.450  17.851  0.00  0.00    +0.000 A 
ATOM     22  C   UNL     1      -4.072  11.337  18.491  0.00  0.00    +0.000 A 
ATOM     23  C   UNL     1      -3.552  12.215  19.446  0.00  0.00    +0.000 A 
ATOM     24  F   UNL     1      -4.352  13.017  20.162  0.00  0.00    +0.000 F 
ATOM     25  C   UNL     1      -2.179  12.293  19.679  0.00  0.00    +0.000 A 
BRANCH  22  26
ATOM     26  O   UNL     1      -5.403  11.218  18.158  0.00  0.00    +0.000 OA
BRANCH  26  27
ATOM     27  C   UNL     1      -6.288  10.669  19.053  0.00  0.00    +0.000 A 
ATOM     28  C   UNL     1      -7.112  11.386  19.918  0.00  0.00    +0.000 A 
ATOM     29  C   UNL     1      -7.917  10.700  20.825  0.00  0.00    +0.000 A 
ATOM     30  C   UNL     1      -7.916   9.315  20.789  0.00  0.00    +0.000 A 
ATOM     31  N   UNL     1      -7.195   8.588  19.910  0.00  0.00    +0.000 NA
ATOM     32  C   UNL     1      -6.398   9.284  19.063  0.00  0.00    +0.000 A 
ENDBRANCH  26  27
ENDBRANCH  22  26
ENDBRANCH  18  19
ENDBRANCH   3  18
TORSDOF 6
ENDMDL
MODEL 4
REMARK VINA RESULT:      -8.2      8.459     11.402
REMARK  Name = 
REMARK  6 active torsions:
REMARK  status: ('A' for Active; 'I' for Inactive)
REMARK    1  A    between atoms: C_2  and  C_19
REMARK    2  A    between atoms: N_3  and  C_4
REMARK    3  A    between atoms: C_4  and  C_5
REMARK    4  A    between atoms: C_8  and  O_9
REMARK    5  A    between atoms: O_9  and  C_10
REMARK    6  A    between atoms: N_21  and  C_22
REMARK                            x       y       z     vdW  Elec       q    Type
REMARK                         _______ _______ _______ _____ _____    ______ ____
ROOT
ATOM      1  O   UNL     1       9.315  10.235  19.851  0.00  0.00    +0.000 OA
ATOM      2  C   UNL     1       8.920  10.173  18.691  0.00  0.00    +0.000 C 
ATOM      3  N   UNL     1       8.490   9.033  18.055  0.00  0.00    +0.000 N 
ATOM      4  H   UNL     1       8.195   9.117  17.088  0.00  0.00    +0.000 HD
ENDROOT
BRANCH   2   5
ATOM      5  C   UNL     1       8.856  11.477  17.853  0.00  0.00    +0.000 C 
ATOM      6  O   UNL     1       7.844  11.794  17.254  0.00  0.00    +0.000 OA
ATOM      7  N   UNL     1      10.029  12.179  17.966  0.00  0.00    +0.000 N 
ATOM      8  H   UNL     1      10.719  11.707  18.546  0.00  0.00    +0.000 HD
BRANCH   7   9
ATOM      9  C   UNL     1      10.294  13.560  17.566  0.00  0.00    +0.000 C 
ATOM     10  C   UNL     1      11.697  13.948  18.095  0.00  0.00    +0.000 C 
ATOM     11  C   UNL     1      11.750  14.001  19.638  0.00  0.00    +0.000 C 
ATOM     12  C   UNL     1      10.641  14.895  20.181  0.00  0.00    +0.000 C 
ATOM     13  C   UNL     1      10.376  14.846  21.683  0.00  0.00    +0.000 C 
ATOM     14  C   UNL     1       8.935  15.373  21.824  0.00  0.00    +0.000 C 
ATOM     15  C   UNL     1       8.353  15.439  20.401  0.00  0.00    +0.000 C 
ATOM     16  C   UNL     1       9.270  14.507  19.630  0.00  0.00    +0.000 C 
ATOM     17  C   UNL     1       9.252  14.561  18.112  0.00  0.00    +0.000 C 
ENDBRANCH   7   9
ENDBRANCH   2   5
BRANCH   3  18
ATOM     18  C   UNL     1       8.473   7.758  18.731  0.00  0.00    +0.000 C 
BRANCH  18  19
ATOM     19  C   UNL     1       7.417   6.841  18.169  0.00  0.00    +0.000 A 
ATOM     20  C   UNL     1       7.258   5.537  18.664  0.00  0.00    +0.000 A 
ATOM     21  C   UNL     1       6.318   4.667  18.102  0.00  0.00    +0.000 A 
ATOM     22  C   UNL     1       5.522   5.086  17.034  0.00  0.00    +0.000 A 
ATOM     23  C   UNL     1       5.628   6.408  16.595  0.00  0.00    +0.000 A 
ATOM     24  F   UNL     1       4.819   6.891  15.641  0.00  0.00    +0.000 F 
ATOM     25  C   UNL     1       6.587   7.268  17.127  0.00  0.00    +0.000 A 
BRANCH  22  26
ATOM     26  O   UNL     1       4.640   4.150  16.542  0.00  0.00    +0.000 OA
BRANCH  26  27
ATOM     27  C   UNL     1       3.564   3.757  17.298  0.00  0.00    +0.000 A 
ATOM     28  C   UNL     1       2.510   4.577  17.693  0.00  0.00    +0.000 A 
ATOM     29  C   UNL     1       1.512   4.064  18.519  0.00  0.00    +0.000 A 
ATOM     30  C   UNL     1       1.571   2.724  18.868  0.00  0.00    +0.000 A 
ATOM     31  N   UNL     1       2.531   1.879  18.438  0.00  0.00    +0.000 NA
ATOM     32  C   UNL     1       3.504   2.417  17.662  0.00  0.00    +0.000 A 
ENDBRANCH  26  27
ENDBRANCH  22  26
ENDBRANCH  18  19
ENDBRANCH   3  18
TORSDOF 6
ENDMDL
MODEL 5
REMARK VINA RESULT:      -8.2      3.255     10.459
REMARK  Name = 
REMARK  6 active torsions:
REMARK  status: ('A' for Active; 'I' for Inactive)
REMARK    1  A    between atoms: C_2  and  C_19
REMARK    2  A    between atoms: N_3  and  C_4
REMARK    3  A    between atoms: C_4  and  C_5
REMARK    4  A    between atoms: C_8  and  O_9
REMARK    5  A    between atoms: O_9  and  C_10
REMARK    6  A    between atoms: N_21  and  C_22
REMARK                            x       y       z     vdW  Elec       q    Type
REMARK                         _______ _______ _______ _____ _____    ______ ____
ROOT
ATOM      1  O   UNL     1       1.135   4.088  19.094  0.00  0.00    +0.000 OA
ATOM      2  C   UNL     1       2.191   4.681  18.894  0.00  0.00    +0.000 C 
ATOM      3  N   UNL     1       2.652   5.755  19.615  0.00  0.00    +0.000 N 
ATOM      4  H   UNL     1       3.541   6.160  19.341  0.00  0.00    +0.000 HD
ENDROOT
BRANCH   2   5
ATOM      5  C   UNL     1       3.125   4.181  17.759  0.00  0.00    +0.000 C 
ATOM      6  O   UNL     1       2.954   3.097  17.232  0.00  0.00    +0.000 OA
ATOM      7  N   UNL     1       4.052   5.142  17.442  0.00  0.00    +0.000 N 
ATOM      8  H   UNL     1       3.972   5.976  18.019  0.00  0.00    +0.000 HD
BRANCH   7   9
ATOM      9  C   UNL     1       4.932   5.193  16.277  0.00  0.00    +0.000 C 
ATOM     10  C   UNL     1       6.021   4.106  16.453  0.00  0.00    +0.000 C 
ATOM     11  C   UNL     1       6.968   4.409  17.636  0.00  0.00    +0.000 C 
ATOM     12  C   UNL     1       7.545   5.814  17.514  0.00  0.00    +0.000 C 
ATOM     13  C   UNL     1       8.280   6.376  18.727  0.00  0.00    +0.000 C 
ATOM     14  C   UNL     1       8.238   7.901  18.514  0.00  0.00    +0.000 C 
ATOM     15  C   UNL     1       7.260   8.153  17.353  0.00  0.00    +0.000 C 
ATOM     16  C   UNL     1       6.455   6.866  17.320  0.00  0.00    +0.000 C 
ATOM     17  C   UNL     1       5.614   6.567  16.090  0.00  0.00    +0.000 C 
ENDBRANCH   7   9
ENDBRANCH   2   5
BRANCH   3  18
ATOM     18  C   UNL     1       1.893   6.301  20.715  0.00  0.00    +0.000 C 
BRANCH  18  19
ATOM     19  C   UNL     1       1.395   7.692  20.416  0.00  0.00    +0.000 A 
ATOM     20  C   UNL     1       0.610   8.391  21.345  0.00  0.00    +0.000 A 
ATOM     21  C   UNL     1       0.100   9.658  21.043  0.00  0.00    +0.000 A 
ATOM     22  C   UNL     1       0.365  10.246  19.805  0.00  0.00    +0.000 A 
ATOM     23  C   UNL     1       1.210   9.582  18.912  0.00  0.00    +0.000 A 
ATOM     24  F   UNL     1       1.578  10.145  17.753  0.00  0.00    +0.000 F 
ATOM     25  C   UNL     1       1.692   8.305  19.194  0.00  0.00    +0.000 A 
BRANCH  22  26
ATOM     26  O   UNL     1      -0.197  11.487  19.599  0.00  0.00    +0.000 OA
BRANCH  26  27
ATOM     27  C   UNL     1      -1.541  11.597  19.340  0.00  0.00    +0.000 A 
ATOM     28  C   UNL     1      -2.215  10.980  18.289  0.00  0.00    +0.000 A 
ATOM     29  C   UNL     1      -3.573  11.232  18.102  0.00  0.00    +0.000 A 
ATOM     30  C   UNL     1      -4.224  12.044  19.017  0.00  0.00    +0.000 A 
ATOM     31  N   UNL     1      -3.622  12.592  20.094  0.00  0.00    +0.000 NA
ATOM     32  C   UNL     1      -2.294  12.354  20.229  0.00  0.00    +0.000 A 
ENDBRANCH  26  27
ENDBRANCH  22  26
ENDBRANCH  18  19
ENDBRANCH   3  18
TORSDOF 6
ENDMDL
MODEL 6
REMARK VINA RESULT:      -8.2      2.794     10.306
REMARK  Name = 
REMARK  6 active torsions:
REMARK  status: ('A' for Active; 'I' for Inactive)
REMARK    1  A    between atoms: C_2  and  C_19
REMARK    2  A    between atoms: N_3  and  C_4
REMARK    3  A    between atoms: C_4  and  C_5
REMARK    4  A    between atoms: C_8  and  O_9
REMARK    5  A    between atoms: O_9  and  C_10
REMARK    6  A    between atoms: N_21  and  C_22
REMARK                            x       y       z     vdW  Elec       q    Type
REMARK                         _______ _______ _______ _____ _____    ______ ____
ROOT
ATOM      1  O   UNL     1       2.652   8.735  17.719  0.00  0.00    +0.000 OA
ATOM      2  C   UNL     1       2.072   8.465  18.766  0.00  0.00    +0.000 C 
ATOM      3  N   UNL     1       1.303   9.337  19.499  0.00  0.00    +0.000 N 
ATOM      4  H   UNL     1       0.884   8.988  20.355  0.00  0.00    +0.000 HD
ENDROOT
BRANCH   2   5
ATOM      5  C   UNL     1       2.167   7.020  19.322  0.00  0.00    +0.000 C 
ATOM      6  O   UNL     1       1.595   6.699  20.348  0.00  0.00    +0.000 OA
ATOM      7  N   UNL     1       2.895   6.225  18.473  0.00  0.00    +0.000 N 
ATOM      8  H   UNL     1       3.252   6.730  17.666  0.00  0.00    +0.000 HD
BRANCH   7   9
ATOM      9  C   UNL     1       3.003   4.767  18.475  0.00  0.00    +0.000 C 
ATOM     10  C   UNL     1       4.047   4.369  19.548  0.00  0.00    +0.000 C 
ATOM     11  C   UNL     1       5.473   4.837  19.182  0.00  0.00    +0.000 C 
ATOM     12  C   UNL     1       5.849   4.367  17.782  0.00  0.00    +0.000 C 
ATOM     13  C   UNL     1       7.106   4.965  17.157  0.00  0.00    +0.000 C 
ATOM     14  C   UNL     1       6.908   4.749  15.644  0.00  0.00    +0.000 C 
ATOM     15  C   UNL     1       5.451   4.294  15.455  0.00  0.00    +0.000 C 
ATOM     16  C   UNL     1       4.796   4.753  16.746  0.00  0.00    +0.000 C 
ATOM     17  C   UNL     1       3.432   4.188  17.109  0.00  0.00    +0.000 C 
ENDBRANCH   7   9
ENDBRANCH   2   5
BRANCH   3  18
ATOM     18  C   UNL     1       1.110  10.704  19.078  0.00  0.00    +0.000 C 
BRANCH  18  19
ATOM     19  C   UNL     1      -0.329  10.985  18.733  0.00  0.00    +0.000 A 
ATOM     20  C   UNL     1      -0.890  12.252  18.960  0.00  0.00    +0.000 A 
ATOM     21  C   UNL     1      -2.241  12.496  18.694  0.00  0.00    +0.000 A 
ATOM     22  C   UNL     1      -3.056  11.476  18.200  0.00  0.00    +0.000 A 
ATOM     23  C   UNL     1      -2.478  10.239  17.902  0.00  0.00    +0.000 A 
ATOM     24  F   UNL     1      -3.192   9.257  17.332  0.00  0.00    +0.000 F 
ATOM     25  C   UNL     1      -1.141   9.980  18.197  0.00  0.00    +0.000 A 
BRANCH  22  26
ATOM     26  O   UNL     1      -4.374  11.813  17.988  0.00  0.00    +0.000 OA
BRANCH  26  27
ATOM     27  C   UNL     1      -5.346  11.353  18.842  0.00  0.00    +0.000 A 
ATOM     28  C   UNL     1      -6.126  10.216  18.643  0.00  0.00    +0.000 A 
ATOM     29  C   UNL     1      -7.126   9.900  19.560  0.00  0.00    +0.000 A 
ATOM     30  C   UNL     1      -7.266  10.700  20.683  0.00  0.00    +0.000 A 
ATOM     31  N   UNL     1      -6.476  11.760  20.951  0.00  0.00    +0.000 NA
ATOM     32  C   UNL     1      -5.534  12.060  20.024  0.00  0.00    +0.000 A 
ENDBRANCH  26  27
ENDBRANCH  22  26
ENDBRANCH  18  19
ENDBRANCH   3  18
TORSDOF 6
ENDMDL
MODEL 7
REMARK VINA RESULT:      -8.1      7.861     11.658
REMARK  Name = 
REMARK  6 active torsions:
REMARK  status: ('A' for Active; 'I' for Inactive)
REMARK    1  A    between atoms: C_2  and  C_19
REMARK    2  A    between atoms: N_3  and  C_4
REMARK    3  A    between atoms: C_4  and  C_5
REMARK    4  A    between atoms: C_8  and  O_9
REMARK    5  A    between atoms: O_9  and  C_10
REMARK    6  A    between atoms: N_21  and  C_22
REMARK                            x       y       z     vdW  Elec       q    Type
REMARK                         _______ _______ _______ _____ _____    ______ ____
ROOT
ATOM      1  O   UNL     1       7.141   5.931  19.012  0.00  0.00    +0.000 OA
ATOM      2  C   UNL     1       6.865   6.708  18.104  0.00  0.00    +0.000 C 
ATOM      3  N   UNL     1       7.554   7.858  17.801  0.00  0.00    +0.000 N 
ATOM      4  H   UNL     1       7.214   8.419  17.026  0.00  0.00    +0.000 HD
ENDROOT
BRANCH   2   5
ATOM      5  C   UNL     1       5.662   6.381  17.180  0.00  0.00    +0.000 C 
ATOM      6  O   UNL     1       5.700   6.614  15.986  0.00  0.00    +0.000 OA
ATOM      7  N   UNL     1       4.663   5.764  17.892  0.00  0.00    +0.000 N 
ATOM      8  H   UNL     1       4.885   5.664  18.880  0.00  0.00    +0.000 HD
BRANCH   7   9
ATOM      9  C   UNL     1       3.491   5.061  17.375  0.00  0.00    +0.000 C 
ATOM     10  C   UNL     1       2.231   5.836  17.830  0.00  0.00    +0.000 C 
ATOM     11  C   UNL     1       2.034   5.790  19.362  0.00  0.00    +0.000 C 
ATOM     12  C   UNL     1       2.060   4.350  19.862  0.00  0.00    +0.000 C 
ATOM     13  C   UNL     1       2.153   4.135  21.370  0.00  0.00    +0.000 C 
ATOM     14  C   UNL     1       2.704   2.703  21.508  0.00  0.00    +0.000 C 
ATOM     15  C   UNL     1       3.153   2.271  20.102  0.00  0.00    +0.000 C 
ATOM     16  C   UNL     1       3.301   3.600  19.383  0.00  0.00    +0.000 C 
ATOM     17  C   UNL     1       3.393   3.600  17.866  0.00  0.00    +0.000 C 
ENDBRANCH   7   9
ENDBRANCH   2   5
BRANCH   3  18
ATOM     18  C   UNL     1       8.709   8.264  18.564  0.00  0.00    +0.000 C 
BRANCH  18  19
ATOM     19  C   UNL     1       8.827   9.764  18.646  0.00  0.00    +0.000 A 
ATOM     20  C   UNL     1       9.509  10.375  19.710  0.00  0.00    +0.000 A 
ATOM     21  C   UNL     1       9.569  11.769  19.816  0.00  0.00    +0.000 A 
ATOM     22  C   UNL     1       8.943  12.574  18.862  0.00  0.00    +0.000 A 
ATOM     23  C   UNL     1       8.331  11.965  17.764  0.00  0.00    +0.000 A 
ATOM     24  F   UNL     1       7.804  12.691  16.769  0.00  0.00    +0.000 F 
ATOM     25  C   UNL     1       8.240  10.576  17.671  0.00  0.00    +0.000 A 
BRANCH  22  26
ATOM     26  O   UNL     1       9.045  13.932  19.067  0.00  0.00    +0.000 OA
BRANCH  26  27
ATOM     27  C   UNL     1       9.925  14.675  18.320  0.00  0.00    +0.000 A 
ATOM     28  C   UNL     1      11.223  14.297  17.987  0.00  0.00    +0.000 A 
ATOM     29  C   UNL     1      12.035  15.179  17.277  0.00  0.00    +0.000 A 
ATOM     30  C   UNL     1      11.494  16.388  16.868  0.00  0.00    +0.000 A 
ATOM     31  N   UNL     1      10.216  16.753  17.100  0.00  0.00    +0.000 NA
ATOM     32  C   UNL     1       9.462  15.887  17.821  0.00  0.00    +0.000 A 
ENDBRANCH  26  27
ENDBRANCH  22  26
ENDBRANCH  18  19
ENDBRANCH   3  18
TORSDOF 6
ENDMDL
MODEL 8
REMARK VINA RESULT:      -8.1      3.608     10.635
REMARK  Name = 
REMARK  6 active torsions:
REMARK  status: ('A' for Active; 'I' for Inactive)
REMARK    1  A    between atoms: C_2  and  C_19
REMARK    2  A    between atoms: N_3  and  C_4
REMARK    3  A    between atoms: C_4  and  C_5
REMARK    4  A    between atoms: C_8  and  O_9
REMARK    5  A    between atoms: O_9  and  C_10
REMARK    6  A    between atoms: N_21  and  C_22
REMARK                            x       y       z     vdW  Elec       q    Type
REMARK                         _______ _______ _______ _____ _____    ______ ____
ROOT
ATOM      1  O   UNL     1       2.569   5.849  20.204  0.00  0.00    +0.000 OA
ATOM      2  C   UNL     1       2.399   6.878  19.557  0.00  0.00    +0.000 C 
ATOM      3  N   UNL     1       1.808   8.026  20.025  0.00  0.00    +0.000 N 
ATOM      4  H   UNL     1       1.721   8.806  19.382  0.00  0.00    +0.000 HD
ENDROOT
BRANCH   2   5
ATOM      5  C   UNL     1       2.911   6.932  18.092  0.00  0.00    +0.000 C 
ATOM      6  O   UNL     1       2.764   7.929  17.409  0.00  0.00    +0.000 OA
ATOM      7  N   UNL     1       3.567   5.771  17.769  0.00  0.00    +0.000 N 
ATOM      8  H   UNL     1       3.570   5.093  18.528  0.00  0.00    +0.000 HD
BRANCH   7   9
ATOM      9  C   UNL     1       4.417   5.511  16.609  0.00  0.00    +0.000 C 
ATOM     10  C   UNL     1       5.197   4.200  16.875  0.00  0.00    +0.000 C 
ATOM     11  C   UNL     1       6.205   4.340  18.038  0.00  0.00    +0.000 C 
ATOM     12  C   UNL     1       7.117   5.541  17.814  0.00  0.00    +0.000 C 
ATOM     13  C   UNL     1       7.985   5.987  18.987  0.00  0.00    +0.000 C 
ATOM     14  C   UNL     1       8.327   7.454  18.660  0.00  0.00    +0.000 C 
ATOM     15  C   UNL     1       7.431   7.857  17.477  0.00  0.00    +0.000 C 
ATOM     16  C   UNL     1       6.327   6.817  17.534  0.00  0.00    +0.000 C 
ATOM     17  C   UNL     1       5.422   6.650  16.325  0.00  0.00    +0.000 C 
ENDBRANCH   7   9
ENDBRANCH   2   5
BRANCH   3  18
ATOM     18  C   UNL     1       1.314   8.117  21.378  0.00  0.00    +0.000 C 
BRANCH  18  19
ATOM     19  C   UNL     1       0.519   9.378  21.600  0.00  0.00    +0.000 A 
ATOM     20  C   UNL     1      -0.121   9.620  22.825  0.00  0.00    +0.000 A 
ATOM     21  C   UNL     1      -0.906  10.763  23.011  0.00  0.00    +0.000 A 
ATOM     22  C   UNL     1      -1.067  11.682  21.972  0.00  0.00    +0.000 A 
ATOM     23  C   UNL     1      -0.367  11.478  20.780  0.00  0.00    +0.000 A 
ATOM     24  F   UNL     1      -0.406  12.379  19.788  0.00  0.00    +0.000 F 
ATOM     25  C   UNL     1       0.389  10.324  20.578  0.00  0.00    +0.000 A 
BRANCH  22  26
ATOM     26  O   UNL     1      -1.873  12.763  22.249  0.00  0.00    +0.000 OA
BRANCH  26  27
ATOM     27  C   UNL     1      -3.204  12.730  21.917  0.00  0.00    +0.000 A 
ATOM     28  C   UNL     1      -3.716  12.758  20.622  0.00  0.00    +0.000 A 
ATOM     29  C   UNL     1      -5.096  12.787  20.430  0.00  0.00    +0.000 A 
ATOM     30  C   UNL     1      -5.918  12.720  21.543  0.00  0.00    +0.000 A 
ATOM     31  N   UNL     1      -5.459  12.609  22.807  0.00  0.00    +0.000 NA
ATOM     32  C   UNL     1      -4.112  12.616  22.963  0.00  0.00    +0.000 A 
ENDBRANCH  26  27
ENDBRANCH  22  26
ENDBRANCH  18  19
ENDBRANCH   3  18
TORSDOF 6
ENDMDL
MODEL 9
REMARK VINA RESULT:      -8.1      3.099     10.319
REMARK  Name = 
REMARK  6 active torsions:
REMARK  status: ('A' for Active; 'I' for Inactive)
REMARK    1  A    between atoms: C_2  and  C_19
REMARK    2  A    between atoms: N_3  and  C_4
REMARK    3  A    between atoms: C_4  and  C_5
REMARK    4  A    between atoms: C_8  and  O_9
REMARK    5  A    between atoms: O_9  and  C_10
REMARK    6  A    between atoms: N_21  and  C_22
REMARK                            x       y       z     vdW  Elec       q    Type
REMARK                         _______ _______ _______ _____ _____    ______ ____
ROOT
ATOM      1  O   UNL     1       1.166   4.791  20.117  0.00  0.00    +0.000 OA
ATOM      2  C   UNL     1       2.090   5.397  19.585  0.00  0.00    +0.000 C 
ATOM      3  N   UNL     1       2.474   6.683  19.879  0.00  0.00    +0.000 N 
ATOM      4  H   UNL     1       3.253   7.072  19.358  0.00  0.00    +0.000 HD
ENDROOT
BRANCH   2   5
ATOM      5  C   UNL     1       2.940   4.671  18.509  0.00  0.00    +0.000 C 
ATOM      6  O   UNL     1       2.721   3.511  18.209  0.00  0.00    +0.000 OA
ATOM      7  N   UNL     1       3.854   5.531  17.956  0.00  0.00    +0.000 N 
ATOM      8  H   UNL     1       3.823   6.461  18.369  0.00  0.00    +0.000 HD
BRANCH   7   9
ATOM      9  C   UNL     1       4.655   5.341  16.749  0.00  0.00    +0.000 C 
ATOM     10  C   UNL     1       5.658   4.192  17.018  0.00  0.00    +0.000 C 
ATOM     11  C   UNL     1       6.705   4.566  18.090  0.00  0.00    +0.000 C 
ATOM     12  C   UNL     1       7.388   5.882  17.737  0.00  0.00    +0.000 C 
ATOM     13  C   UNL     1       8.249   6.534  18.815  0.00  0.00    +0.000 C 
ATOM     14  C   UNL     1       8.320   8.014  18.389  0.00  0.00    +0.000 C 
ATOM     15  C   UNL     1       7.290   8.192  17.260  0.00  0.00    +0.000 C 
ATOM     16  C   UNL     1       6.380   6.993  17.456  0.00  0.00    +0.000 C 
ATOM     17  C   UNL     1       5.434   6.607  16.330  0.00  0.00    +0.000 C 
ENDBRANCH   7   9
ENDBRANCH   2   5
BRANCH   3  18
ATOM     18  C   UNL     1       1.785   7.461  20.881  0.00  0.00    +0.000 C 
BRANCH  18  19
ATOM     19  C   UNL     1       0.995   8.589  20.268  0.00  0.00    +0.000 A 
ATOM     20  C   UNL     1       1.129   8.906  18.908  0.00  0.00    +0.000 A 
ATOM     21  C   UNL     1       0.439   9.989  18.353  0.00  0.00    +0.000 A 
ATOM     22  C   UNL     1      -0.395  10.775  19.152  0.00  0.00    +0.000 A 
ATOM     23  C   UNL     1      -0.587  10.410  20.487  0.00  0.00    +0.000 A 
ATOM     24  F   UNL     1      -1.452  11.069  21.270  0.00  0.00    +0.000 F 
ATOM     25  C   UNL     1       0.125   9.354  21.052  0.00  0.00    +0.000 A 
BRANCH  22  26
ATOM     26  O   UNL     1      -1.015  11.827  18.514  0.00  0.00    +0.000 OA
BRANCH  26  27
ATOM     27  C   UNL     1      -2.255  11.654  17.952  0.00  0.00    +0.000 A 
ATOM     28  C   UNL     1      -2.503  11.138  16.682  0.00  0.00    +0.000 A 
ATOM     29  C   UNL     1      -3.812  11.080  16.209  0.00  0.00    +0.000 A 
ATOM     30  C   UNL     1      -4.836  11.482  17.051  0.00  0.00    +0.000 A 
ATOM     31  N   UNL     1      -4.641  11.909  18.316  0.00  0.00    +0.000 NA
ATOM     32  C   UNL     1      -3.354  11.985  18.736  0.00  0.00    +0.000 A 
ENDBRANCH  26  27
ENDBRANCH  22  26
ENDBRANCH  18  19
ENDBRANCH   3  18
TORSDOF 6
ENDMDL
