MODEL 1
REMARK VINA RESULT:      -8.9      0.000      0.000
REMARK  Name = 
REMARK  6 active torsions:
REMARK  status: ('A' for Active; 'I' for Inactive)
REMARK    1  A    between atoms: C_1  and  C_2
REMARK    2  A    between atoms: C_2  and  C_3
REMARK    3  A    between atoms: C_9  and  C_10
REMARK    4  A    between atoms: N_12  and  C_13
REMARK    5  A    between atoms: C_13  and  C_14
REMARK    6  A    between atoms: C_18  and  C_19
REMARK                            x       y       z     vdW  Elec       q    Type
REMARK                         _______ _______ _______ _____ _____    ______ ____
ROOT
ATOM      1  C   UNL     1       2.993   6.110  19.013  0.00  0.00    +0.000 C 
ATOM      2  O   UNL     1       3.785   5.826  19.907  0.00  0.00    +0.000 OA
ATOM      3  N   UNL     1       2.711   5.283  17.941  0.00  0.00    +0.000 N 
ATOM      4  H   UNL     1       2.244   5.672  17.133  0.00  0.00    +0.000 HD
ENDROOT
BRANCH   1  13
ATOM      5  C   UNL     1       0.605  12.277  19.420  0.00  0.00    +0.000 C 
ATOM      6  C   UNL     1      -0.091  10.926  19.562  0.00  0.00    +0.000 C 
ATOM      7  C   UNL     1      -1.408  10.887  18.786  0.00  0.00    +0.000 C 
ATOM      8  C   UNL     1      -0.369  10.644  21.061  0.00  0.00    +0.000 C 
ATOM      9  O   UNL     1      -1.065  11.303  21.815  0.00  0.00    +0.000 OA
ATOM     10  N   UNL     1       0.319   9.490  21.402  0.00  0.00    +0.000 N 
ATOM     11  C   UNL     1       1.001   8.967  20.320  0.00  0.00    +0.000 A 
ATOM     12  C   UNL     1       1.740   7.805  20.288  0.00  0.00    +0.000 A 
ATOM     13  C   UNL     1       2.309   7.432  19.064  0.00  0.00    +0.000 A 
ATOM     14  C   UNL     1       2.154   8.244  17.921  0.00  0.00    +0.000 A 
ATOM     15  C   UNL     1       1.400   9.427  17.984  0.00  0.00    +0.000 A 
ATOM     16  C   UNL     1       0.817   9.768  19.197  0.00  0.00    +0.000 A 
ATOM     17  H   UNL     1       0.284   9.087  22.328  0.00  0.00    +0.000 HD
ENDBRANCH   1  13
BRANCH   3  18
ATOM     18  C   UNL     1       3.445   4.053  17.744  0.00  0.00    +0.000 C 
ATOM     19  C   UNL     1       2.676   2.781  17.429  0.00  0.00    +0.000 C 
ATOM     20  C   UNL     1       3.295   2.951  18.777  0.00  0.00    +0.000 C 
BRANCH  18  21
ATOM     21  C   UNL     1       4.779   4.278  17.041  0.00  0.00    +0.000 A 
ATOM     22  C   UNL     1       5.949   4.560  17.770  0.00  0.00    +0.000 A 
ATOM     23  C   UNL     1       7.201   4.621  17.152  0.00  0.00    +0.000 A 
ATOM     24  C   UNL     1       7.310   4.395  15.783  0.00  0.00    +0.000 A 
ATOM     25  C   UNL     1       6.165   4.141  15.026  0.00  0.00    +0.000 A 
ATOM     26  C   UNL     1       4.913   4.096  15.652  0.00  0.00    +0.000 A 
BRANCH  25  27
ATOM     27  C   UNL     1       6.279   3.884  13.619  0.00  0.00    +0.000 C 
ATOM     28  N   UNL     1       6.384   3.659  12.486  0.00  0.00    +0.000 NA
ENDBRANCH  25  27
ENDBRANCH  18  21
ENDBRANCH   3  18
TORSDOF 4
ENDMDL
MODEL 2
REMARK VINA RESULT:      -8.4      2.419      8.490
REMARK  Name = 
REMARK  6 active torsions:
REMARK  status: ('A' for Active; 'I' for Inactive)
REMARK    1  A    between atoms: C_1  and  C_2
REMARK    2  A    between atoms: C_2  and  C_3
REMARK    3  A    between atoms: C_9  and  C_10
REMARK    4  A    between atoms: N_12  and  C_13
REMARK    5  A    between atoms: C_13  and  C_14
REMARK    6  A    between atoms: C_18  and  C_19
REMARK                            x       y       z     vdW  Elec       q    Type
REMARK                         _______ _______ _______ _____ _____    ______ ____
ROOT
ATOM      1  C   UNL     1       1.035   9.390  19.628  0.00  0.00    +0.000 C 
ATOM      2  O   UNL     1       0.333   9.116  20.596  0.00  0.00    +0.000 OA
ATOM      3  N   UNL     1       1.055  10.630  19.016  0.00  0.00    +0.000 N 
ATOM      4  H   UNL     1       1.465  10.715  18.095  0.00  0.00    +0.000 HD
ENDROOT
BRANCH   1  13
ATOM      5  C   UNL     1       4.273   4.341  16.816  0.00  0.00    +0.000 C 
ATOM      6  C   UNL     1       4.653   5.239  17.989  0.00  0.00    +0.000 C 
ATOM      7  C   UNL     1       6.104   5.713  17.890  0.00  0.00    +0.000 C 
ATOM      8  C   UNL     1       4.455   4.464  19.318  0.00  0.00    +0.000 C 
ATOM      9  O   UNL     1       5.022   3.442  19.663  0.00  0.00    +0.000 OA
ATOM     10  N   UNL     1       3.506   5.150  20.061  0.00  0.00    +0.000 N 
ATOM     11  C   UNL     1       3.065   6.282  19.403  0.00  0.00    +0.000 A 
ATOM     12  C   UNL     1       2.169   7.218  19.872  0.00  0.00    +0.000 A 
ATOM     13  C   UNL     1       1.901   8.324  19.055  0.00  0.00    +0.000 A 
ATOM     14  C   UNL     1       2.506   8.445  17.787  0.00  0.00    +0.000 A 
ATOM     15  C   UNL     1       3.410   7.472  17.332  0.00  0.00    +0.000 A 
ATOM     16  C   UNL     1       3.690   6.397  18.165  0.00  0.00    +0.000 A 
ATOM     17  H   UNL     1       3.214   4.851  20.981  0.00  0.00    +0.000 HD
ENDBRANCH   1  13
BRANCH   3  18
ATOM     18  C   UNL     1       0.133  11.668  19.420  0.00  0.00    +0.000 C 
ATOM     19  C   UNL     1       0.651  13.088  19.586  0.00  0.00    +0.000 C 
ATOM     20  C   UNL     1       0.302  12.287  20.796  0.00  0.00    +0.000 C 
BRANCH  18  21
ATOM     21  C   UNL     1      -1.257  11.477  18.824  0.00  0.00    +0.000 A 
ATOM     22  C   UNL     1      -2.408  11.923  19.501  0.00  0.00    +0.000 A 
ATOM     23  C   UNL     1      -3.670  11.888  18.902  0.00  0.00    +0.000 A 
ATOM     24  C   UNL     1      -3.808  11.407  17.602  0.00  0.00    +0.000 A 
ATOM     25  C   UNL     1      -2.690  10.931  16.914  0.00  0.00    +0.000 A 
ATOM     26  C   UNL     1      -1.432  10.957  17.529  0.00  0.00    +0.000 A 
BRANCH  25  27
ATOM     27  C   UNL     1      -2.827  10.458  15.567  0.00  0.00    +0.000 C 
ATOM     28  N   UNL     1      -2.956  10.087  14.475  0.00  0.00    +0.000 NA
ENDBRANCH  25  27
ENDBRANCH  18  21
ENDBRANCH   3  18
TORSDOF 4
ENDMDL
MODEL 3
REMARK VINA RESULT:      -8.3      1.677      2.087
REMARK  Name = 
REMARK  6 active torsions:
REMARK  status: ('A' for Active; 'I' for Inactive)
REMARK    1  A    between atoms: C_1  and  C_2
REMARK    2  A    between atoms: C_2  and  C_3
REMARK    3  A    between atoms: C_9  and  C_10
REMARK    4  A    between atoms: N_12  and  C_13
REMARK    5  A    between atoms: C_13  and  C_14
REMARK    6  A    between atoms: C_18  and  C_19
REMARK                            x       y       z     vdW  Elec       q    Type
REMARK                         _______ _______ _______ _____ _____    ______ ____
ROOT
ATOM      1  C   UNL     1       2.559   6.172  19.408  0.00  0.00    +0.000 C 
ATOM      2  O   UNL     1       3.016   5.527  20.346  0.00  0.00    +0.000 OA
ATOM      3  N   UNL     1       2.535   5.723  18.101  0.00  0.00    +0.000 N 
ATOM      4  H   UNL     1       2.370   6.388  17.357  0.00  0.00    +0.000 HD
ENDROOT
BRANCH   1  13
ATOM      5  C   UNL     1       0.841  12.418  20.800  0.00  0.00    +0.000 C 
ATOM      6  C   UNL     1       0.015  11.135  20.791  0.00  0.00    +0.000 C 
ATOM      7  C   UNL     1      -1.330  11.335  20.090  0.00  0.00    +0.000 C 
ATOM      8  C   UNL     1      -0.230  10.668  22.249  0.00  0.00    +0.000 C 
ATOM      9  O   UNL     1      -0.823  11.275  23.124  0.00  0.00    +0.000 OA
ATOM     10  N   UNL     1       0.348   9.415  22.387  0.00  0.00    +0.000 N 
ATOM     11  C   UNL     1       0.928   8.990  21.207  0.00  0.00    +0.000 A 
ATOM     12  C   UNL     1       1.541   7.779  20.974  0.00  0.00    +0.000 A 
ATOM     13  C   UNL     1       2.019   7.533  19.680  0.00  0.00    +0.000 A 
ATOM     14  C   UNL     1       1.902   8.512  18.672  0.00  0.00    +0.000 A 
ATOM     15  C   UNL     1       1.278   9.741  18.940  0.00  0.00    +0.000 A 
ATOM     16  C   UNL     1       0.782   9.959  20.219  0.00  0.00    +0.000 A 
ATOM     17  H   UNL     1       0.309   8.889  23.249  0.00  0.00    +0.000 HD
ENDBRANCH   1  13
BRANCH   3  18
ATOM     18  C   UNL     1       3.176   4.479  17.736  0.00  0.00    +0.000 C 
ATOM     19  C   UNL     1       2.331   3.362  17.144  0.00  0.00    +0.000 C 
ATOM     20  C   UNL     1       2.845   3.235  18.540  0.00  0.00    +0.000 C 
BRANCH  18  21
ATOM     21  C   UNL     1       4.579   4.688  17.178  0.00  0.00    +0.000 A 
ATOM     22  C   UNL     1       5.115   3.820  16.208  0.00  0.00    +0.000 A 
ATOM     23  C   UNL     1       6.336   4.086  15.582  0.00  0.00    +0.000 A 
ATOM     24  C   UNL     1       7.050   5.234  15.913  0.00  0.00    +0.000 A 
ATOM     25  C   UNL     1       6.560   6.101  16.892  0.00  0.00    +0.000 A 
ATOM     26  C   UNL     1       5.342   5.818  17.524  0.00  0.00    +0.000 A 
BRANCH  25  27
ATOM     27  C   UNL     1       7.283   7.296  17.217  0.00  0.00    +0.000 C 
ATOM     28  N   UNL     1       7.850   8.272  17.487  0.00  0.00    +0.000 NA
ENDBRANCH  25  27
ENDBRANCH  18  21
ENDBRANCH   3  18
TORSDOF 4
ENDMDL
MODEL 4
REMARK VINA RESULT:      -8.3      2.426      8.877
REMARK  Name = 
REMARK  6 active torsions:
REMARK  status: ('A' for Active; 'I' for Inactive)
REMARK    1  A    between atoms: C_1  and  C_2
REMARK    2  A    between atoms: C_2  and  C_3
REMARK    3  A    between atoms: C_9  and  C_10
REMARK    4  A    between atoms: N_12  and  C_13
REMARK    5  A    between atoms: C_13  and  C_14
REMARK    6  A    between atoms: C_18  and  C_19
REMARK                            x       y       z     vdW  Elec       q    Type
REMARK                         _______ _______ _______ _____ _____    ______ ____
ROOT
ATOM      1  C   UNL     1       1.342   9.039  19.437  0.00  0.00    +0.000 C 
ATOM      2  O   UNL     1       0.724   8.872  20.484  0.00  0.00    +0.000 OA
ATOM      3  N   UNL     1       1.276  10.193  18.678  0.00  0.00    +0.000 N 
ATOM      4  H   UNL     1       1.612  10.172  17.725  0.00  0.00    +0.000 HD
ENDROOT
BRANCH   1  13
ATOM      5  C   UNL     1       4.542   3.847  16.850  0.00  0.00    +0.000 C 
ATOM      6  C   UNL     1       4.843   4.688  18.088  0.00  0.00    +0.000 C 
ATOM      7  C   UNL     1       6.323   5.062  18.169  0.00  0.00    +0.000 C 
ATOM      8  C   UNL     1       4.442   3.897  19.360  0.00  0.00    +0.000 C 
ATOM      9  O   UNL     1       4.897   2.830  19.734  0.00  0.00    +0.000 OA
ATOM     10  N   UNL     1       3.461   4.628  20.012  0.00  0.00    +0.000 N 
ATOM     11  C   UNL     1       3.175   5.804  19.345  0.00  0.00    +0.000 A 
ATOM     12  C   UNL     1       2.295   6.788  19.739  0.00  0.00    +0.000 A 
ATOM     13  C   UNL     1       2.196   7.929  18.932  0.00  0.00    +0.000 A 
ATOM     14  C   UNL     1       2.950   8.039  17.745  0.00  0.00    +0.000 A 
ATOM     15  C   UNL     1       3.834   7.017  17.365  0.00  0.00    +0.000 A 
ATOM     16  C   UNL     1       3.944   5.905  18.190  0.00  0.00    +0.000 A 
ATOM     17  H   UNL     1       3.046   4.328  20.883  0.00  0.00    +0.000 HD
ENDBRANCH   1  13
BRANCH   3  18
ATOM     18  C   UNL     1       0.355  11.253  19.024  0.00  0.00    +0.000 C 
ATOM     19  C   UNL     1       0.877  12.677  19.126  0.00  0.00    +0.000 C 
ATOM     20  C   UNL     1       0.514  11.936  20.371  0.00  0.00    +0.000 C 
BRANCH  18  21
ATOM     21  C   UNL     1      -1.030  11.038  18.426  0.00  0.00    +0.000 A 
ATOM     22  C   UNL     1      -1.255  10.059  17.439  0.00  0.00    +0.000 A 
ATOM     23  C   UNL     1      -2.542   9.752  16.991  0.00  0.00    +0.000 A 
ATOM     24  C   UNL     1      -3.641  10.419  17.526  0.00  0.00    +0.000 A 
ATOM     25  C   UNL     1      -3.451  11.416  18.484  0.00  0.00    +0.000 A 
ATOM     26  C   UNL     1      -2.155  11.727  18.917  0.00  0.00    +0.000 A 
BRANCH  25  27
ATOM     27  C   UNL     1      -4.583  12.087  19.053  0.00  0.00    +0.000 C 
ATOM     28  N   UNL     1      -5.512  12.619  19.501  0.00  0.00    +0.000 NA
ENDBRANCH  25  27
ENDBRANCH  18  21
ENDBRANCH   3  18
TORSDOF 4
ENDMDL
MODEL 5
REMARK VINA RESULT:      -8.2      2.368      8.416
REMARK  Name = 
REMARK  6 active torsions:
REMARK  status: ('A' for Active; 'I' for Inactive)
REMARK    1  A    between atoms: C_1  and  C_2
REMARK    2  A    between atoms: C_2  and  C_3
REMARK    3  A    between atoms: C_9  and  C_10
REMARK    4  A    between atoms: N_12  and  C_13
REMARK    5  A    between atoms: C_13  and  C_14
REMARK    6  A    between atoms: C_18  and  C_19
REMARK                            x       y       z     vdW  Elec       q    Type
REMARK                         _______ _______ _______ _____ _____    ______ ____
ROOT
ATOM      1  C   UNL     1       1.280   8.877  20.242  0.00  0.00    +0.000 C 
ATOM      2  O   UNL     1       0.761   9.058  21.339  0.00  0.00    +0.000 OA
ATOM      3  N   UNL     1       1.367   9.847  19.260  0.00  0.00    +0.000 N 
ATOM      4  H   UNL     1       1.584   9.567  18.313  0.00  0.00    +0.000 HD
ENDROOT
BRANCH   1  13
ATOM      5  C   UNL     1       4.284   3.050  19.286  0.00  0.00    +0.000 C 
ATOM      6  C   UNL     1       3.275   3.804  18.425  0.00  0.00    +0.000 C 
ATOM      7  C   UNL     1       2.174   2.878  17.905  0.00  0.00    +0.000 C 
ATOM      8  C   UNL     1       4.006   4.458  17.225  0.00  0.00    +0.000 C 
ATOM      9  O   UNL     1       4.626   3.888  16.344  0.00  0.00    +0.000 OA
ATOM     10  N   UNL     1       3.828   5.830  17.326  0.00  0.00    +0.000 N 
ATOM     11  C   UNL     1       3.061   6.163  18.427  0.00  0.00    +0.000 A 
ATOM     12  C   UNL     1       2.647   7.423  18.798  0.00  0.00    +0.000 A 
ATOM     13  C   UNL     1       1.828   7.528  19.929  0.00  0.00    +0.000 A 
ATOM     14  C   UNL     1       1.477   6.382  20.673  0.00  0.00    +0.000 A 
ATOM     15  C   UNL     1       1.920   5.110  20.275  0.00  0.00    +0.000 A 
ATOM     16  C   UNL     1       2.706   5.018  19.134  0.00  0.00    +0.000 A 
ATOM     17  H   UNL     1       4.199   6.480  16.647  0.00  0.00    +0.000 HD
ENDBRANCH   1  13
BRANCH   3  18
ATOM     18  C   UNL     1       0.726  11.132  19.433  0.00  0.00    +0.000 C 
ATOM     19  C   UNL     1       1.546  12.396  19.230  0.00  0.00    +0.000 C 
ATOM     20  C   UNL     1       1.143  11.993  20.611  0.00  0.00    +0.000 C 
BRANCH  18  21
ATOM     21  C   UNL     1      -0.720  11.130  18.950  0.00  0.00    +0.000 A 
ATOM     22  C   UNL     1      -1.734  11.777  19.682  0.00  0.00    +0.000 A 
ATOM     23  C   UNL     1      -3.030  11.910  19.178  0.00  0.00    +0.000 A 
ATOM     24  C   UNL     1      -3.342  11.398  17.921  0.00  0.00    +0.000 A 
ATOM     25  C   UNL     1      -2.367  10.725  17.182  0.00  0.00    +0.000 A 
ATOM     26  C   UNL     1      -1.074  10.585  17.702  0.00  0.00    +0.000 A 
BRANCH  25  27
ATOM     27  C   UNL     1      -2.680  10.219  15.878  0.00  0.00    +0.000 C 
ATOM     28  N   UNL     1      -2.935   9.829  14.814  0.00  0.00    +0.000 NA
ENDBRANCH  25  27
ENDBRANCH  18  21
ENDBRANCH   3  18
TORSDOF 4
ENDMDL
MODEL 6
REMARK VINA RESULT:      -8.2      1.315      1.842
REMARK  Name = 
REMARK  6 active torsions:
REMARK  status: ('A' for Active; 'I' for Inactive)
REMARK    1  A    between atoms: C_1  and  C_2
REMARK    2  A    between atoms: C_2  and  C_3
REMARK    3  A    between atoms: C_9  and  C_10
REMARK    4  A    between atoms: N_12  and  C_13
REMARK    5  A    between atoms: C_13  and  C_14
REMARK    6  A    between atoms: C_18  and  C_19
REMARK                            x       y       z     vdW  Elec       q    Type
REMARK                         _______ _______ _______ _____ _____    ______ ____
ROOT
ATOM      1  C   UNL     1       2.945   5.771  19.284  0.00  0.00    +0.000 C 
ATOM      2  O   UNL     1       3.774   5.429  20.121  0.00  0.00    +0.000 OA
ATOM      3  N   UNL     1       2.680   5.063  18.126  0.00  0.00    +0.000 N 
ATOM      4  H   UNL     1       2.172   5.518  17.380  0.00  0.00    +0.000 HD
ENDROOT
BRANCH   1  13
ATOM      5  C   UNL     1      -0.972  11.074  19.940  0.00  0.00    +0.000 C 
ATOM      6  C   UNL     1       0.549  10.955  19.914  0.00  0.00    +0.000 C 
ATOM      7  C   UNL     1       1.199  11.785  21.022  0.00  0.00    +0.000 C 
ATOM      8  C   UNL     1       1.081  11.430  18.537  0.00  0.00    +0.000 C 
ATOM      9  O   UNL     1       0.964  12.540  18.048  0.00  0.00    +0.000 OA
ATOM     10  N   UNL     1       1.728  10.354  17.947  0.00  0.00    +0.000 N 
ATOM     11  C   UNL     1       1.706   9.239  18.763  0.00  0.00    +0.000 A 
ATOM     12  C   UNL     1       2.296   8.019  18.515  0.00  0.00    +0.000 A 
ATOM     13  C   UNL     1       2.192   7.036  19.507  0.00  0.00    +0.000 A 
ATOM     14  C   UNL     1       1.476   7.286  20.697  0.00  0.00    +0.000 A 
ATOM     15  C   UNL     1       0.878   8.537  20.918  0.00  0.00    +0.000 A 
ATOM     16  C   UNL     1       1.015   9.512  19.940  0.00  0.00    +0.000 A 
ATOM     17  H   UNL     1       2.177  10.416  17.045  0.00  0.00    +0.000 HD
ENDBRANCH   1  13
BRANCH   3  18
ATOM     18  C   UNL     1       3.475   3.909  17.768  0.00  0.00    +0.000 C 
ATOM     19  C   UNL     1       2.767   2.622  17.378  0.00  0.00    +0.000 C 
ATOM     20  C   UNL     1       3.462   2.709  18.697  0.00  0.00    +0.000 C 
BRANCH  18  21
ATOM     21  C   UNL     1       4.743   4.288  17.012  0.00  0.00    +0.000 A 
ATOM     22  C   UNL     1       5.868   4.800  17.685  0.00  0.00    +0.000 A 
ATOM     23  C   UNL     1       7.083   5.011  17.027  0.00  0.00    +0.000 A 
ATOM     24  C   UNL     1       7.200   4.708  15.673  0.00  0.00    +0.000 A 
ATOM     25  C   UNL     1       6.095   4.226  14.969  0.00  0.00    +0.000 A 
ATOM     26  C   UNL     1       4.878   4.032  15.635  0.00  0.00    +0.000 A 
BRANCH  25  27
ATOM     27  C   UNL     1       6.221   3.891  13.580  0.00  0.00    +0.000 C 
ATOM     28  N   UNL     1       6.342   3.632  12.456  0.00  0.00    +0.000 NA
ENDBRANCH  25  27
ENDBRANCH  18  21
ENDBRANCH   3  18
TORSDOF 4
ENDMDL
MODEL 7
REMARK VINA RESULT:      -8.1      2.697      8.692
REMARK  Name = 
REMARK  6 active torsions:
REMARK  status: ('A' for Active; 'I' for Inactive)
REMARK    1  A    between atoms: C_1  and  C_2
REMARK    2  A    between atoms: C_2  and  C_3
REMARK    3  A    between atoms: C_9  and  C_10
REMARK    4  A    between atoms: N_12  and  C_13
REMARK    5  A    between atoms: C_13  and  C_14
REMARK    6  A    between atoms: C_18  and  C_19
REMARK                            x       y       z     vdW  Elec       q    Type
REMARK                         _______ _______ _______ _____ _____    ______ ____
ROOT
ATOM      1  C   UNL     1       0.404  10.075  19.645  0.00  0.00    +0.000 C 
ATOM      2  O   UNL     1      -0.321  10.121  20.634  0.00  0.00    +0.000 OA
ATOM      3  N   UNL     1       0.403  11.028  18.643  0.00  0.00    +0.000 N 
ATOM      4  H   UNL     1       0.840  10.808  17.758  0.00  0.00    +0.000 HD
ENDROOT
BRANCH   1  13
ATOM      5  C   UNL     1       4.999   5.314  19.316  0.00  0.00    +0.000 C 
ATOM      6  C   UNL     1       3.773   5.579  18.446  0.00  0.00    +0.000 C 
ATOM      7  C   UNL     1       2.987   4.295  18.175  0.00  0.00    +0.000 C 
ATOM      8  C   UNL     1       4.221   6.202  17.099  0.00  0.00    +0.000 C 
ATOM      9  O   UNL     1       4.948   5.696  16.262  0.00  0.00    +0.000 OA
ATOM     10  N   UNL     1       3.637   7.456  17.007  0.00  0.00    +0.000 N 
ATOM     11  C   UNL     1       2.852   7.734  18.109  0.00  0.00    +0.000 A 
ATOM     12  C   UNL     1       2.088   8.861  18.321  0.00  0.00    +0.000 A 
ATOM     13  C   UNL     1       1.323   8.914  19.493  0.00  0.00    +0.000 A 
ATOM     14  C   UNL     1       1.369   7.861  20.431  0.00  0.00    +0.000 A 
ATOM     15  C   UNL     1       2.162   6.727  20.191  0.00  0.00    +0.000 A 
ATOM     16  C   UNL     1       2.891   6.675  19.011  0.00  0.00    +0.000 A 
ATOM     17  H   UNL     1       3.765   8.059  16.206  0.00  0.00    +0.000 HD
ENDBRANCH   1  13
BRANCH   3  18
ATOM     18  C   UNL     1      -0.566  12.102  18.646  0.00  0.00    +0.000 C 
ATOM     19  C   UNL     1      -0.099  13.513  18.324  0.00  0.00    +0.000 C 
ATOM     20  C   UNL     1      -0.464  13.161  19.729  0.00  0.00    +0.000 C 
BRANCH  18  21
ATOM     21  C   UNL     1      -1.927  11.660  18.123  0.00  0.00    +0.000 A 
ATOM     22  C   UNL     1      -3.099  11.861  18.876  0.00  0.00    +0.000 A 
ATOM     23  C   UNL     1      -4.364  11.596  18.347  0.00  0.00    +0.000 A 
ATOM     24  C   UNL     1      -4.487  11.125  17.043  0.00  0.00    +0.000 A 
ATOM     25  C   UNL     1      -3.343  10.887  16.279  0.00  0.00    +0.000 A 
ATOM     26  C   UNL     1      -2.078  11.142  16.823  0.00  0.00    +0.000 A 
BRANCH  25  27
ATOM     27  C   UNL     1      -3.469  10.424  14.927  0.00  0.00    +0.000 C 
ATOM     28  N   UNL     1      -3.550  10.042  13.834  0.00  0.00    +0.000 NA
ENDBRANCH  25  27
ENDBRANCH  18  21
ENDBRANCH   3  18
TORSDOF 4
ENDMDL
MODEL 8
REMARK VINA RESULT:      -8.1      2.343      8.898
REMARK  Name = 
REMARK  6 active torsions:
REMARK  status: ('A' for Active; 'I' for Inactive)
REMARK    1  A    between atoms: C_1  and  C_2
REMARK    2  A    between atoms: C_2  and  C_3
REMARK    3  A    between atoms: C_9  and  C_10
REMARK    4  A    between atoms: N_12  and  C_13
REMARK    5  A    between atoms: C_13  and  C_14
REMARK    6  A    between atoms: C_18  and  C_19
REMARK                            x       y       z     vdW  Elec       q    Type
REMARK                         _______ _______ _______ _____ _____    ______ ____
ROOT
ATOM      1  C   UNL     1       1.231   8.805  20.107  0.00  0.00    +0.000 C 
ATOM      2  O   UNL     1       0.653   9.002  21.171  0.00  0.00    +0.000 OA
ATOM      3  N   UNL     1       1.335   9.746  19.099  0.00  0.00    +0.000 N 
ATOM      4  H   UNL     1       1.607   9.443  18.173  0.00  0.00    +0.000 HD
ENDROOT
BRANCH   1  13
ATOM      5  C   UNL     1       4.497   3.078  19.448  0.00  0.00    +0.000 C 
ATOM      6  C   UNL     1       3.435   3.728  18.565  0.00  0.00    +0.000 C 
ATOM      7  C   UNL     1       2.371   2.720  18.129  0.00  0.00    +0.000 C 
ATOM      8  C   UNL     1       4.110   4.339  17.310  0.00  0.00    +0.000 C 
ATOM      9  O   UNL     1       4.739   3.744  16.452  0.00  0.00    +0.000 OA
ATOM     10  N   UNL     1       3.867   5.704  17.329  0.00  0.00    +0.000 N 
ATOM     11  C   UNL     1       3.107   6.069  18.425  0.00  0.00    +0.000 A 
ATOM     12  C   UNL     1       2.638   7.329  18.726  0.00  0.00    +0.000 A 
ATOM     13  C   UNL     1       1.838   7.466  19.867  0.00  0.00    +0.000 A 
ATOM     14  C   UNL     1       1.558   6.354  20.688  0.00  0.00    +0.000 A 
ATOM     15  C   UNL     1       2.055   5.083  20.360  0.00  0.00    +0.000 A 
ATOM     16  C   UNL     1       2.822   4.956  19.209  0.00  0.00    +0.000 A 
ATOM     17  H   UNL     1       4.192   6.326  16.603  0.00  0.00    +0.000 HD
ENDBRANCH   1  13
BRANCH   3  18
ATOM     18  C   UNL     1       0.643  11.012  19.197  0.00  0.00    +0.000 C 
ATOM     19  C   UNL     1       1.433  12.297  19.003  0.00  0.00    +0.000 C 
ATOM     20  C   UNL     1       0.965  11.920  20.371  0.00  0.00    +0.000 C 
BRANCH  18  21
ATOM     21  C   UNL     1      -0.772  10.948  18.635  0.00  0.00    +0.000 A 
ATOM     22  C   UNL     1      -1.116  10.023  17.630  0.00  0.00    +0.000 A 
ATOM     23  C   UNL     1      -2.439   9.854  17.213  0.00  0.00    +0.000 A 
ATOM     24  C   UNL     1      -3.453  10.608  17.797  0.00  0.00    +0.000 A 
ATOM     25  C   UNL     1      -3.141  11.555  18.775  0.00  0.00    +0.000 A 
ATOM     26  C   UNL     1      -1.810  11.728  19.176  0.00  0.00    +0.000 A 
BRANCH  25  27
ATOM     27  C   UNL     1      -4.188  12.316  19.394  0.00  0.00    +0.000 C 
ATOM     28  N   UNL     1      -5.019  12.942  19.907  0.00  0.00    +0.000 NA
ENDBRANCH  25  27
ENDBRANCH  18  21
ENDBRANCH   3  18
TORSDOF 4
ENDMDL
MODEL 9
REMARK VINA RESULT:      -8.1      1.409      1.653
REMARK  Name = 
REMARK  6 active torsions:
REMARK  status: ('A' for Active; 'I' for Inactive)
REMARK    1  A    between atoms: C_1  and  C_2
REMARK    2  A    between atoms: C_2  and  C_3
REMARK    3  A    between atoms: C_9  and  C_10
REMARK    4  A    between atoms: N_12  and  C_13
REMARK    5  A    between atoms: C_13  and  C_14
REMARK    6  A    between atoms: C_18  and  C_19
REMARK                            x       y       z     vdW  Elec       q    Type
REMARK                         _______ _______ _______ _____ _____    ______ ____
ROOT
ATOM      1  C   UNL     1       2.127   6.682  19.829  0.00  0.00    +0.000 C 
ATOM      2  O   UNL     1       2.331   5.963  20.802  0.00  0.00    +0.000 OA
ATOM      3  N   UNL     1       2.370   6.300  18.522  0.00  0.00    +0.000 N 
ATOM      4  H   UNL     1       2.409   7.010  17.803  0.00  0.00    +0.000 HD
ENDROOT
BRANCH   1  13
ATOM      5  C   UNL     1       0.518  12.992  21.051  0.00  0.00    +0.000 C 
ATOM      6  C   UNL     1      -0.336  11.727  21.050  0.00  0.00    +0.000 C 
ATOM      7  C   UNL     1      -1.660  11.941  20.315  0.00  0.00    +0.000 C 
ATOM      8  C   UNL     1      -0.623  11.297  22.512  0.00  0.00    +0.000 C 
ATOM      9  O   UNL     1      -1.221  11.935  23.361  0.00  0.00    +0.000 OA
ATOM     10  N   UNL     1      -0.076  10.035  22.689  0.00  0.00    +0.000 N 
ATOM     11  C   UNL     1       0.520   9.572  21.531  0.00  0.00    +0.000 A 
ATOM     12  C   UNL     1       1.111   8.343  21.337  0.00  0.00    +0.000 A 
ATOM     13  C   UNL     1       1.611   8.059  20.060  0.00  0.00    +0.000 A 
ATOM     14  C   UNL     1       1.538   9.019  19.029  0.00  0.00    +0.000 A 
ATOM     15  C   UNL     1       0.936  10.267  19.258  0.00  0.00    +0.000 A 
ATOM     16  C   UNL     1       0.417  10.523  20.520  0.00  0.00    +0.000 A 
ATOM     17  H   UNL     1      -0.145   9.528  23.560  0.00  0.00    +0.000 HD
ENDBRANCH   1  13
BRANCH   3  18
ATOM     18  C   UNL     1       3.011   5.036  18.230  0.00  0.00    +0.000 C 
ATOM     19  C   UNL     1       2.278   4.024  17.365  0.00  0.00    +0.000 C 
ATOM     20  C   UNL     1       2.421   3.773  18.830  0.00  0.00    +0.000 C 
BRANCH  18  21
ATOM     21  C   UNL     1       4.518   5.176  18.049  0.00  0.00    +0.000 A 
ATOM     22  C   UNL     1       5.391   5.136  19.153  0.00  0.00    +0.000 A 
ATOM     23  C   UNL     1       6.778   5.114  18.989  0.00  0.00    +0.000 A 
ATOM     24  C   UNL     1       7.326   5.127  17.709  0.00  0.00    +0.000 A 
ATOM     25  C   UNL     1       6.489   5.195  16.594  0.00  0.00    +0.000 A 
ATOM     26  C   UNL     1       5.099   5.232  16.769  0.00  0.00    +0.000 A 
BRANCH  25  27
ATOM     27  C   UNL     1       7.051   5.185  15.275  0.00  0.00    +0.000 C 
ATOM     28  N   UNL     1       7.507   5.155  14.208  0.00  0.00    +0.000 NA
ENDBRANCH  25  27
ENDBRANCH  18  21
ENDBRANCH   3  18
TORSDOF 4
ENDMDL
