MODEL 1
REMARK VINA RESULT:      -8.3      0.000      0.000
REMARK  Name = 
REMARK  2 active torsions:
REMARK  status: ('A' for Active; 'I' for Inactive)
REMARK    1  A    between atoms: C_2  and  C_3
REMARK    2  A    between atoms: C_21  and  C_22
REMARK                            x       y       z     vdW  Elec       q    Type
REMARK                         _______ _______ _______ _____ _____    ______ ____
ROOT
ATOM      1  O   UNL     1       2.253   9.541  17.295  0.00  0.00    +0.000 OA
ATOM      2  C   UNL     1       1.892   9.154  18.404  0.00  0.00    +0.000 C 
ATOM      3  N   UNL     1       1.189   9.964  19.290  0.00  0.00    +0.000 N 
ATOM      4  C   UNL     1       0.757  11.289  18.868  0.00  0.00    +0.000 C 
ATOM      5  C   UNL     1      -0.738  11.078  18.604  0.00  0.00    +0.000 C 
ATOM      6  C   UNL     1      -1.121   9.889  19.500  0.00  0.00    +0.000 C 
ATOM      7  C   UNL     1       0.171   9.526  20.241  0.00  0.00    +0.000 C 
ATOM      8  C   UNL     1       0.399  10.317  21.545  0.00  0.00    +0.000 C 
ATOM      9  C   UNL     1       0.354  11.865  21.378  0.00  0.00    +0.000 C 
ATOM     10  C   UNL     1       1.024  12.266  20.028  0.00  0.00    +0.000 C 
ENDROOT
BRANCH   2  11
ATOM     11  C   UNL     1       2.265   7.775  18.794  0.00  0.00    +0.000 A 
ATOM     12  C   UNL     1       1.918   7.229  20.024  0.00  0.00    +0.000 A 
ATOM     13  N   UNL     1       2.259   5.979  20.433  0.00  0.00    +0.000 NA
ATOM     14  C   UNL     1       3.025   5.260  19.591  0.00  0.00    +0.000 A 
ATOM     15  N   UNL     1       3.395   3.993  20.014  0.00  0.00    +0.000 N 
ATOM     16  C   UNL     1       4.188   3.163  19.287  0.00  0.00    +0.000 A 
ATOM     17  O   UNL     1       4.509   2.050  19.693  0.00  0.00    +0.000 OA
ATOM     18  N   UNL     1       4.610   3.634  18.077  0.00  0.00    +0.000 N 
ATOM     19  C   UNL     1       4.307   4.860  17.537  0.00  0.00    +0.000 A 
ATOM     20  O   UNL     1       4.714   5.216  16.441  0.00  0.00    +0.000 OA
ATOM     21  C   UNL     1       3.455   5.731  18.359  0.00  0.00    +0.000 A 
ATOM     22  C   UNL     1       3.076   7.010  17.951  0.00  0.00    +0.000 A 
ATOM     23  H   UNL     1       3.070   3.684  20.918  0.00  0.00    +0.000 HD
ATOM     24  H   UNL     1       5.200   3.024  17.530  0.00  0.00    +0.000 HD
ENDBRANCH   2  11
BRANCH   9  25
ATOM     25  C   UNL     1      -0.988  12.560  21.650  0.00  0.00    +0.000 A 
ATOM     26  C   UNL     1      -1.422  13.701  20.958  0.00  0.00    +0.000 A 
ATOM     27  C   UNL     1      -2.659  14.299  21.224  0.00  0.00    +0.000 A 
ATOM     28  C   UNL     1      -3.510  13.751  22.174  0.00  0.00    +0.000 A 
ATOM     29  C   UNL     1      -3.130  12.592  22.842  0.00  0.00    +0.000 A 
ATOM     30  C   UNL     1      -1.892  11.997  22.572  0.00  0.00    +0.000 A 
ENDBRANCH   9  25
TORSDOF 2
ENDMDL
MODEL 2
REMARK VINA RESULT:      -8.2      1.339      1.874
REMARK  Name = 
REMARK  2 active torsions:
REMARK  status: ('A' for Active; 'I' for Inactive)
REMARK    1  A    between atoms: C_2  and  C_3
REMARK    2  A    between atoms: C_21  and  C_22
REMARK                            x       y       z     vdW  Elec       q    Type
REMARK                         _______ _______ _______ _____ _____    ______ ____
ROOT
ATOM      1  O   UNL     1       2.088   9.071  16.958  0.00  0.00    +0.000 OA
ATOM      2  C   UNL     1       2.087   8.733  18.140  0.00  0.00    +0.000 C 
ATOM      3  N   UNL     1       1.489   9.496  19.138  0.00  0.00    +0.000 N 
ATOM      4  C   UNL     1       0.735  10.689  18.780  0.00  0.00    +0.000 C 
ATOM      5  C   UNL     1      -0.716  10.214  18.921  0.00  0.00    +0.000 C 
ATOM      6  C   UNL     1      -0.645   9.066  19.941  0.00  0.00    +0.000 C 
ATOM      7  C   UNL     1       0.833   8.987  20.339  0.00  0.00    +0.000 C 
ATOM      8  C   UNL     1       1.228   9.921  21.501  0.00  0.00    +0.000 C 
ATOM      9  C   UNL     1       0.864  11.419  21.279  0.00  0.00    +0.000 C 
ATOM     10  C   UNL     1       1.098  11.798  19.784  0.00  0.00    +0.000 C 
ENDROOT
BRANCH   2  11
ATOM     11  C   UNL     1       2.787   7.475  18.485  0.00  0.00    +0.000 A 
ATOM     12  C   UNL     1       4.042   7.157  17.978  0.00  0.00    +0.000 A 
ATOM     13  N   UNL     1       4.711   6.006  18.248  0.00  0.00    +0.000 NA
ATOM     14  C   UNL     1       4.072   5.108  19.022  0.00  0.00    +0.000 A 
ATOM     15  N   UNL     1       4.739   3.922  19.281  0.00  0.00    +0.000 N 
ATOM     16  C   UNL     1       4.212   2.912  20.020  0.00  0.00    +0.000 A 
ATOM     17  O   UNL     1       4.823   1.866  20.222  0.00  0.00    +0.000 OA
ATOM     18  N   UNL     1       2.962   3.122  20.528  0.00  0.00    +0.000 N 
ATOM     19  C   UNL     1       2.200   4.251  20.357  0.00  0.00    +0.000 A 
ATOM     20  O   UNL     1       1.087   4.376  20.848  0.00  0.00    +0.000 OA
ATOM     21  C   UNL     1       2.803   5.316  19.543  0.00  0.00    +0.000 A 
ATOM     22  C   UNL     1       2.144   6.514  19.270  0.00  0.00    +0.000 A 
ATOM     23  H   UNL     1       5.658   3.801  18.881  0.00  0.00    +0.000 HD
ATOM     24  H   UNL     1       2.562   2.375  21.078  0.00  0.00    +0.000 HD
ENDBRANCH   2  11
BRANCH   9  25
ATOM     25  C   UNL     1      -0.472  11.909  21.855  0.00  0.00    +0.000 A 
ATOM     26  C   UNL     1      -1.188  12.997  21.331  0.00  0.00    +0.000 A 
ATOM     27  C   UNL     1      -2.411  13.404  21.874  0.00  0.00    +0.000 A 
ATOM     28  C   UNL     1      -2.966  12.715  22.943  0.00  0.00    +0.000 A 
ATOM     29  C   UNL     1      -2.306  11.603  23.454  0.00  0.00    +0.000 A 
ATOM     30  C   UNL     1      -1.083  11.197  22.906  0.00  0.00    +0.000 A 
ENDBRANCH   9  25
TORSDOF 2
ENDMDL
MODEL 3
REMARK VINA RESULT:      -7.8      2.339      4.216
REMARK  Name = 
REMARK  2 active torsions:
REMARK  status: ('A' for Active; 'I' for Inactive)
REMARK    1  A    between atoms: C_2  and  C_3
REMARK    2  A    between atoms: C_21  and  C_22
REMARK                            x       y       z     vdW  Elec       q    Type
REMARK                         _______ _______ _______ _____ _____    ______ ____
ROOT
ATOM      1  O   UNL     1       0.885  13.223  20.643  0.00  0.00    +0.000 OA
ATOM      2  C   UNL     1       0.172  12.366  21.160  0.00  0.00    +0.000 C 
ATOM      3  N   UNL     1      -0.961  12.680  21.904  0.00  0.00    +0.000 N 
ATOM      4  C   UNL     1      -1.401  14.065  21.997  0.00  0.00    +0.000 C 
ATOM      5  C   UNL     1      -2.595  14.094  21.036  0.00  0.00    +0.000 C 
ATOM      6  C   UNL     1      -3.102  12.643  21.011  0.00  0.00    +0.000 C 
ATOM      7  C   UNL     1      -2.188  11.893  21.986  0.00  0.00    +0.000 C 
ATOM      8  C   UNL     1      -2.656  11.934  23.455  0.00  0.00    +0.000 C 
ATOM      9  C   UNL     1      -2.893  13.367  24.017  0.00  0.00    +0.000 C 
ATOM     10  C   UNL     1      -1.807  14.336  23.458  0.00  0.00    +0.000 C 
ENDROOT
BRANCH   2  11
ATOM     11  C   UNL     1       0.583  10.953  20.992  0.00  0.00    +0.000 A 
ATOM     12  C   UNL     1       0.632  10.060  22.056  0.00  0.00    +0.000 A 
ATOM     13  N   UNL     1       1.024   8.764  21.953  0.00  0.00    +0.000 NA
ATOM     14  C   UNL     1       1.434   8.356  20.736  0.00  0.00    +0.000 A 
ATOM     15  N   UNL     1       1.858   7.040  20.631  0.00  0.00    +0.000 N 
ATOM     16  C   UNL     1       2.325   6.494  19.478  0.00  0.00    +0.000 A 
ATOM     17  O   UNL     1       2.705   5.329  19.418  0.00  0.00    +0.000 OA
ATOM     18  N   UNL     1       2.348   7.314  18.386  0.00  0.00    +0.000 N 
ATOM     19  C   UNL     1       1.947   8.627  18.352  0.00  0.00    +0.000 A 
ATOM     20  O   UNL     1       1.988   9.302  17.335  0.00  0.00    +0.000 OA
ATOM     21  C   UNL     1       1.458   9.182  19.622  0.00  0.00    +0.000 A 
ATOM     22  C   UNL     1       1.031  10.504  19.747  0.00  0.00    +0.000 A 
ATOM     23  H   UNL     1       1.833   6.469  21.463  0.00  0.00    +0.000 HD
ATOM     24  H   UNL     1       2.695   6.916  17.525  0.00  0.00    +0.000 HD
ENDBRANCH   2  11
BRANCH   9  25
ATOM     25  C   UNL     1      -4.325  13.916  23.954  0.00  0.00    +0.000 A 
ATOM     26  C   UNL     1      -4.626  15.285  23.869  0.00  0.00    +0.000 A 
ATOM     27  C   UNL     1      -5.945  15.747  23.797  0.00  0.00    +0.000 A 
ATOM     28  C   UNL     1      -7.001  14.847  23.781  0.00  0.00    +0.000 A 
ATOM     29  C   UNL     1      -6.735  13.482  23.815  0.00  0.00    +0.000 A 
ATOM     30  C   UNL     1      -5.413  13.024  23.884  0.00  0.00    +0.000 A 
ENDBRANCH   9  25
TORSDOF 2
ENDMDL
MODEL 4
REMARK VINA RESULT:      -7.6      2.543      8.804
REMARK  Name = 
REMARK  2 active torsions:
REMARK  status: ('A' for Active; 'I' for Inactive)
REMARK    1  A    between atoms: C_2  and  C_3
REMARK    2  A    between atoms: C_21  and  C_22
REMARK                            x       y       z     vdW  Elec       q    Type
REMARK                         _______ _______ _______ _____ _____    ______ ____
ROOT
ATOM      1  O   UNL     1       1.395   6.146  21.419  0.00  0.00    +0.000 OA
ATOM      2  C   UNL     1       1.791   6.973  20.601  0.00  0.00    +0.000 C 
ATOM      3  N   UNL     1       2.732   6.669  19.622  0.00  0.00    +0.000 N 
ATOM      4  C   UNL     1       3.199   5.298  19.471  0.00  0.00    +0.000 C 
ATOM      5  C   UNL     1       2.439   4.829  18.225  0.00  0.00    +0.000 C 
ATOM      6  C   UNL     1       2.148   6.121  17.444  0.00  0.00    +0.000 C 
ATOM      7  C   UNL     1       2.793   7.234  18.277  0.00  0.00    +0.000 C 
ATOM      8  C   UNL     1       4.281   7.484  17.958  0.00  0.00    +0.000 C 
ATOM      9  C   UNL     1       5.185   6.220  18.056  0.00  0.00    +0.000 C 
ATOM     10  C   UNL     1       4.723   5.338  19.257  0.00  0.00    +0.000 C 
ENDROOT
BRANCH   2  11
ATOM     11  C   UNL     1       1.249   8.346  20.711  0.00  0.00    +0.000 A 
ATOM     12  C   UNL     1       1.378   9.108  21.867  0.00  0.00    +0.000 A 
ATOM     13  N   UNL     1       0.878  10.362  22.020  0.00  0.00    +0.000 NA
ATOM     14  C   UNL     1       0.172  10.857  20.985  0.00  0.00    +0.000 A 
ATOM     15  N   UNL     1      -0.362  12.126  21.146  0.00  0.00    +0.000 N 
ATOM     16  C   UNL     1      -1.119  12.744  20.203  0.00  0.00    +0.000 A 
ATOM     17  O   UNL     1      -1.589  13.865  20.380  0.00  0.00    +0.000 OA
ATOM     18  N   UNL     1      -1.331  12.051  19.046  0.00  0.00    +0.000 N 
ATOM     19  C   UNL     1      -0.852  10.797  18.756  0.00  0.00    +0.000 A 
ATOM     20  O   UNL     1      -1.075  10.236  17.694  0.00  0.00    +0.000 OA
ATOM     21  C   UNL     1      -0.045  10.159  19.806  0.00  0.00    +0.000 A 
ATOM     22  C   UNL     1       0.496   8.882  19.663  0.00  0.00    +0.000 A 
ATOM     23  H   UNL     1      -0.190  12.602  22.019  0.00  0.00    +0.000 HD
ATOM     24  H   UNL     1      -1.894  12.504  18.341  0.00  0.00    +0.000 HD
ENDBRANCH   2  11
BRANCH   9  25
ATOM     25  C   UNL     1       5.441   5.439  16.759  0.00  0.00    +0.000 A 
ATOM     26  C   UNL     1       5.695   4.059  16.724  0.00  0.00    +0.000 A 
ATOM     27  C   UNL     1       5.908   3.379  15.520  0.00  0.00    +0.000 A 
ATOM     28  C   UNL     1       5.847   4.060  14.312  0.00  0.00    +0.000 A 
ATOM     29  C   UNL     1       5.549   5.418  14.310  0.00  0.00    +0.000 A 
ATOM     30  C   UNL     1       5.334   6.094  15.517  0.00  0.00    +0.000 A 
ENDBRANCH   9  25
TORSDOF 2
ENDMDL
MODEL 5
REMARK VINA RESULT:      -7.6      1.485      1.838
REMARK  Name = 
REMARK  2 active torsions:
REMARK  status: ('A' for Active; 'I' for Inactive)
REMARK    1  A    between atoms: C_2  and  C_3
REMARK    2  A    between atoms: C_21  and  C_22
REMARK                            x       y       z     vdW  Elec       q    Type
REMARK                         _______ _______ _______ _____ _____    ______ ____
ROOT
ATOM      1  O   UNL     1       2.239   8.903  17.054  0.00  0.00    +0.000 OA
ATOM      2  C   UNL     1       2.106   8.509  18.210  0.00  0.00    +0.000 C 
ATOM      3  N   UNL     1       1.511   9.281  19.202  0.00  0.00    +0.000 N 
ATOM      4  C   UNL     1       0.917  10.566  18.858  0.00  0.00    +0.000 C 
ATOM      5  C   UNL     1      -0.581  10.244  18.861  0.00  0.00    +0.000 C 
ATOM      6  C   UNL     1      -0.715   9.046  19.815  0.00  0.00    +0.000 C 
ATOM      7  C   UNL     1       0.709   8.788  20.319  0.00  0.00    +0.000 C 
ATOM      8  C   UNL     1       1.103   9.615  21.560  0.00  0.00    +0.000 C 
ATOM      9  C   UNL     1       0.917  11.152  21.398  0.00  0.00    +0.000 C 
ATOM     10  C   UNL     1       1.311  11.578  19.950  0.00  0.00    +0.000 C 
ENDROOT
BRANCH   2  11
ATOM     11  C   UNL     1       2.641   7.167  18.534  0.00  0.00    +0.000 A 
ATOM     12  C   UNL     1       3.907   6.980  19.076  0.00  0.00    +0.000 A 
ATOM     13  N   UNL     1       4.448   5.768  19.366  0.00  0.00    +0.000 NA
ATOM     14  C   UNL     1       3.704   4.689  19.053  0.00  0.00    +0.000 A 
ATOM     15  N   UNL     1       4.261   3.449  19.326  0.00  0.00    +0.000 N 
ATOM     16  C   UNL     1       3.644   2.273  19.040  0.00  0.00    +0.000 A 
ATOM     17  O   UNL     1       4.168   1.190  19.282  0.00  0.00    +0.000 OA
ATOM     18  N   UNL     1       2.408   2.361  18.468  0.00  0.00    +0.000 N 
ATOM     19  C   UNL     1       1.741   3.521  18.159  0.00  0.00    +0.000 A 
ATOM     20  O   UNL     1       0.629   3.527  17.652  0.00  0.00    +0.000 OA
ATOM     21  C   UNL     1       2.446   4.771  18.475  0.00  0.00    +0.000 A 
ATOM     22  C   UNL     1       1.903   6.027  18.204  0.00  0.00    +0.000 A 
ATOM     23  H   UNL     1       5.180   3.427  19.741  0.00  0.00    +0.000 HD
ATOM     24  H   UNL     1       1.943   1.491  18.251  0.00  0.00    +0.000 HD
ENDBRANCH   2  11
BRANCH   9  25
ATOM     25  C   UNL     1      -0.403  11.755  21.898  0.00  0.00    +0.000 A 
ATOM     26  C   UNL     1      -1.161  11.200  22.941  0.00  0.00    +0.000 A 
ATOM     27  C   UNL     1      -2.353  11.787  23.379  0.00  0.00    +0.000 A 
ATOM     28  C   UNL     1      -2.806  12.966  22.802  0.00  0.00    +0.000 A 
ATOM     29  C   UNL     1      -2.052  13.567  21.800  0.00  0.00    +0.000 A 
ATOM     30  C   UNL     1      -0.859  12.977  21.366  0.00  0.00    +0.000 A 
ENDBRANCH   9  25
TORSDOF 2
ENDMDL
MODEL 6
REMARK VINA RESULT:      -7.5      1.231      2.033
REMARK  Name = 
REMARK  2 active torsions:
REMARK  status: ('A' for Active; 'I' for Inactive)
REMARK    1  A    between atoms: C_2  and  C_3
REMARK    2  A    between atoms: C_21  and  C_22
REMARK                            x       y       z     vdW  Elec       q    Type
REMARK                         _______ _______ _______ _____ _____    ______ ____
ROOT
ATOM      1  O   UNL     1       2.399  10.089  17.126  0.00  0.00    +0.000 OA
ATOM      2  C   UNL     1       2.152   9.494  18.172  0.00  0.00    +0.000 C 
ATOM      3  N   UNL     1       1.422  10.069  19.208  0.00  0.00    +0.000 N 
ATOM      4  C   UNL     1       0.825  11.385  19.026  0.00  0.00    +0.000 C 
ATOM      5  C   UNL     1      -0.652  11.046  18.798  0.00  0.00    +0.000 C 
ATOM      6  C   UNL     1      -0.849   9.695  19.505  0.00  0.00    +0.000 C 
ATOM      7  C   UNL     1       0.518   9.373  20.120  0.00  0.00    +0.000 C 
ATOM      8  C   UNL     1       0.740   9.972  21.523  0.00  0.00    +0.000 C 
ATOM      9  C   UNL     1       0.519  11.511  21.611  0.00  0.00    +0.000 C 
ATOM     10  C   UNL     1       1.058  12.193  20.316  0.00  0.00    +0.000 C 
ENDROOT
BRANCH   2  11
ATOM     11  C   UNL     1       2.694   8.124  18.317  0.00  0.00    +0.000 A 
ATOM     12  C   UNL     1       3.672   7.617  17.468  0.00  0.00    +0.000 A 
ATOM     13  N   UNL     1       4.181   6.360  17.549  0.00  0.00    +0.000 NA
ATOM     14  C   UNL     1       3.651   5.557  18.491  0.00  0.00    +0.000 A 
ATOM     15  N   UNL     1       4.151   4.266  18.562  0.00  0.00    +0.000 N 
ATOM     16  C   UNL     1       3.696   3.334  19.440  0.00  0.00    +0.000 A 
ATOM     17  O   UNL     1       4.150   2.194  19.471  0.00  0.00    +0.000 OA
ATOM     18  N   UNL     1       2.705   3.735  20.290  0.00  0.00    +0.000 N 
ATOM     19  C   UNL     1       2.134   4.983  20.332  0.00  0.00    +0.000 A 
ATOM     20  O   UNL     1       1.252   5.277  21.126  0.00  0.00    +0.000 OA
ATOM     21  C   UNL     1       2.646   5.959  19.359  0.00  0.00    +0.000 A 
ATOM     22  C   UNL     1       2.153   7.260  19.272  0.00  0.00    +0.000 A 
ATOM     23  H   UNL     1       4.877   4.005  17.911  0.00  0.00    +0.000 HD
ATOM     24  H   UNL     1       2.362   3.048  20.945  0.00  0.00    +0.000 HD
ENDBRANCH   2  11
BRANCH   9  25
ATOM     25  C   UNL     1      -0.870  11.996  22.052  0.00  0.00    +0.000 A 
ATOM     26  C   UNL     1      -1.596  11.411  23.101  0.00  0.00    +0.000 A 
ATOM     27  C   UNL     1      -2.854  11.891  23.483  0.00  0.00    +0.000 A 
ATOM     28  C   UNL     1      -3.408  12.990  22.841  0.00  0.00    +0.000 A 
ATOM     29  C   UNL     1      -2.692  13.622  21.830  0.00  0.00    +0.000 A 
ATOM     30  C   UNL     1      -1.433  13.139  21.452  0.00  0.00    +0.000 A 
ENDBRANCH   9  25
TORSDOF 2
ENDMDL
MODEL 7
REMARK VINA RESULT:      -7.5      2.876      5.494
REMARK  Name = 
REMARK  2 active torsions:
REMARK  status: ('A' for Active; 'I' for Inactive)
REMARK    1  A    between atoms: C_2  and  C_3
REMARK    2  A    between atoms: C_21  and  C_22
REMARK                            x       y       z     vdW  Elec       q    Type
REMARK                         _______ _______ _______ _____ _____    ______ ____
ROOT
ATOM      1  O   UNL     1       0.044  14.685  20.540  0.00  0.00    +0.000 OA
ATOM      2  C   UNL     1      -0.535  13.655  20.878  0.00  0.00    +0.000 C 
ATOM      3  N   UNL     1      -1.681  13.663  21.668  0.00  0.00    +0.000 N 
ATOM      4  C   UNL     1      -2.299  14.930  22.029  0.00  0.00    +0.000 C 
ATOM      5  C   UNL     1      -3.510  14.983  21.091  0.00  0.00    +0.000 C 
ATOM      6  C   UNL     1      -3.820  13.510  20.782  0.00  0.00    +0.000 C 
ATOM      7  C   UNL     1      -2.790  12.715  21.592  0.00  0.00    +0.000 C 
ATOM      8  C   UNL     1      -3.222  12.407  23.040  0.00  0.00    +0.000 C 
ATOM      9  C   UNL     1      -3.634  13.658  23.871  0.00  0.00    +0.000 C 
ATOM     10  C   UNL     1      -2.701  14.856  23.514  0.00  0.00    +0.000 C 
ENDROOT
BRANCH   2  11
ATOM     11  C   UNL     1       0.055  12.371  20.438  0.00  0.00    +0.000 A 
ATOM     12  C   UNL     1       0.179  12.029  19.096  0.00  0.00    +0.000 A 
ATOM     13  N   UNL     1       0.692  10.854  18.647  0.00  0.00    +0.000 NA
ATOM     14  C   UNL     1       1.052   9.958  19.586  0.00  0.00    +0.000 A 
ATOM     15  N   UNL     1       1.554   8.748  19.133  0.00  0.00    +0.000 N 
ATOM     16  C   UNL     1       1.931   7.738  19.959  0.00  0.00    +0.000 A 
ATOM     17  O   UNL     1       2.360   6.672  19.528  0.00  0.00    +0.000 OA
ATOM     18  N   UNL     1       1.807   7.972  21.299  0.00  0.00    +0.000 N 
ATOM     19  C   UNL     1       1.338   9.126  21.877  0.00  0.00    +0.000 A 
ATOM     20  O   UNL     1       1.259   9.272  23.088  0.00  0.00    +0.000 OA
ATOM     21  C   UNL     1       0.931  10.191  20.948  0.00  0.00    +0.000 A 
ATOM     22  C   UNL     1       0.421  11.412  21.387  0.00  0.00    +0.000 A 
ATOM     23  H   UNL     1       1.622   8.610  18.136  0.00  0.00    +0.000 HD
ATOM     24  H   UNL     1       2.084   7.226  21.919  0.00  0.00    +0.000 HD
ENDBRANCH   2  11
BRANCH   9  25
ATOM     25  C   UNL     1      -5.128  14.010  23.914  0.00  0.00    +0.000 A 
ATOM     26  C   UNL     1      -5.617  15.321  23.802  0.00  0.00    +0.000 A 
ATOM     27  C   UNL     1      -6.988  15.602  23.829  0.00  0.00    +0.000 A 
ATOM     28  C   UNL     1      -7.910  14.570  23.944  0.00  0.00    +0.000 A 
ATOM     29  C   UNL     1      -7.459  13.257  24.009  0.00  0.00    +0.000 A 
ATOM     30  C   UNL     1      -6.087  12.981  23.978  0.00  0.00    +0.000 A 
ENDBRANCH   9  25
TORSDOF 2
ENDMDL
MODEL 8
REMARK VINA RESULT:      -7.4      2.426      3.694
REMARK  Name = 
REMARK  2 active torsions:
REMARK  status: ('A' for Active; 'I' for Inactive)
REMARK    1  A    between atoms: C_2  and  C_3
REMARK    2  A    between atoms: C_21  and  C_22
REMARK                            x       y       z     vdW  Elec       q    Type
REMARK                         _______ _______ _______ _____ _____    ______ ____
ROOT
ATOM      1  O   UNL     1      -0.389   9.300  20.829  0.00  0.00    +0.000 OA
ATOM      2  C   UNL     1       0.372   9.827  20.021  0.00  0.00    +0.000 C 
ATOM      3  N   UNL     1       0.314  11.181  19.707  0.00  0.00    +0.000 N 
ATOM      4  C   UNL     1      -0.604  12.050  20.430  0.00  0.00    +0.000 C 
ATOM      5  C   UNL     1       0.333  12.791  21.389  0.00  0.00    +0.000 C 
ATOM      6  C   UNL     1       1.701  12.761  20.688  0.00  0.00    +0.000 C 
ATOM      7  C   UNL     1       1.444  12.038  19.361  0.00  0.00    +0.000 C 
ATOM      8  C   UNL     1       0.979  12.960  18.216  0.00  0.00    +0.000 C 
ATOM      9  C   UNL     1      -0.273  13.824  18.549  0.00  0.00    +0.000 C 
ATOM     10  C   UNL     1      -1.272  12.988  19.408  0.00  0.00    +0.000 C 
ENDROOT
BRANCH   2  11
ATOM     11  C   UNL     1       1.358   8.950  19.350  0.00  0.00    +0.000 A 
ATOM     12  C   UNL     1       1.912   9.262  18.113  0.00  0.00    +0.000 A 
ATOM     13  N   UNL     1       2.801   8.477  17.450  0.00  0.00    +0.000 NA
ATOM     14  C   UNL     1       3.112   7.301  18.029  0.00  0.00    +0.000 A 
ATOM     15  N   UNL     1       4.000   6.486  17.344  0.00  0.00    +0.000 N 
ATOM     16  C   UNL     1       4.386   5.262  17.788  0.00  0.00    +0.000 A 
ATOM     17  O   UNL     1       5.166   4.557  17.153  0.00  0.00    +0.000 OA
ATOM     18  N   UNL     1       3.860   4.856  18.980  0.00  0.00    +0.000 N 
ATOM     19  C   UNL     1       2.983   5.569  19.761  0.00  0.00    +0.000 A 
ATOM     20  O   UNL     1       2.556   5.146  20.825  0.00  0.00    +0.000 OA
ATOM     21  C   UNL     1       2.583   6.884  19.241  0.00  0.00    +0.000 A 
ATOM     22  C   UNL     1       1.688   7.715  19.915  0.00  0.00    +0.000 A 
ATOM     23  H   UNL     1       4.361   6.819  16.462  0.00  0.00    +0.000 HD
ATOM     24  H   UNL     1       4.141   3.946  19.317  0.00  0.00    +0.000 HD
ENDBRANCH   2  11
BRANCH   9  25
ATOM     25  C   UNL     1      -0.026  15.246  19.070  0.00  0.00    +0.000 A 
ATOM     26  C   UNL     1      -0.936  15.943  19.881  0.00  0.00    +0.000 A 
ATOM     27  C   UNL     1      -0.668  17.233  20.350  0.00  0.00    +0.000 A 
ATOM     28  C   UNL     1       0.535  17.853  20.042  0.00  0.00    +0.000 A 
ATOM     29  C   UNL     1       1.479  17.171  19.282  0.00  0.00    +0.000 A 
ATOM     30  C   UNL     1       1.207  15.879  18.816  0.00  0.00    +0.000 A 
ENDBRANCH   9  25
TORSDOF 2
ENDMDL
MODEL 9
REMARK VINA RESULT:      -7.4      2.887      9.075
REMARK  Name = 
REMARK  2 active torsions:
REMARK  status: ('A' for Active; 'I' for Inactive)
REMARK    1  A    between atoms: C_2  and  C_3
REMARK    2  A    between atoms: C_21  and  C_22
REMARK                            x       y       z     vdW  Elec       q    Type
REMARK                         _______ _______ _______ _____ _____    ______ ____
ROOT
ATOM      1  O   UNL     1       1.760   6.060  21.354  0.00  0.00    +0.000 OA
ATOM      2  C   UNL     1       2.000   6.843  20.438  0.00  0.00    +0.000 C 
ATOM      3  N   UNL     1       2.918   6.562  19.431  0.00  0.00    +0.000 N 
ATOM      4  C   UNL     1       3.551   5.252  19.378  0.00  0.00    +0.000 C 
ATOM      5  C   UNL     1       2.793   4.568  18.235  0.00  0.00    +0.000 C 
ATOM      6  C   UNL     1       2.295   5.727  17.358  0.00  0.00    +0.000 C 
ATOM      7  C   UNL     1       2.833   6.991  18.038  0.00  0.00    +0.000 C 
ATOM      8  C   UNL     1       4.256   7.391  17.599  0.00  0.00    +0.000 C 
ATOM      9  C   UNL     1       5.321   6.266  17.755  0.00  0.00    +0.000 C 
ATOM     10  C   UNL     1       5.044   5.459  19.061  0.00  0.00    +0.000 C 
ENDROOT
BRANCH   2  11
ATOM     11  C   UNL     1       1.290   8.142  20.455  0.00  0.00    +0.000 A 
ATOM     12  C   UNL     1       1.206   8.960  19.333  0.00  0.00    +0.000 A 
ATOM     13  N   UNL     1       0.587  10.169  19.309  0.00  0.00    +0.000 NA
ATOM     14  C   UNL     1       0.069  10.602  20.475  0.00  0.00    +0.000 A 
ATOM     15  N   UNL     1      -0.543  11.845  20.460  0.00  0.00    +0.000 N 
ATOM     16  C   UNL     1      -1.084  12.426  21.563  0.00  0.00    +0.000 A 
ATOM     17  O   UNL     1      -1.609  13.535  21.522  0.00  0.00    +0.000 OA
ATOM     18  N   UNL     1      -1.012  11.708  22.722  0.00  0.00    +0.000 N 
ATOM     19  C   UNL     1      -0.446  10.465  22.869  0.00  0.00    +0.000 A 
ATOM     20  O   UNL     1      -0.423   9.875  23.939  0.00  0.00    +0.000 OA
ATOM     21  C   UNL     1       0.136   9.877  21.655  0.00  0.00    +0.000 A 
ATOM     22  C   UNL     1       0.759   8.629  21.652  0.00  0.00    +0.000 A 
ATOM     23  H   UNL     1      -0.568  12.348  19.586  0.00  0.00    +0.000 HD
ATOM     24  H   UNL     1      -1.412  12.133  23.547  0.00  0.00    +0.000 HD
ENDBRANCH   2  11
BRANCH   9  25
ATOM     25  C   UNL     1       5.606   5.396  16.522  0.00  0.00    +0.000 A 
ATOM     26  C   UNL     1       5.975   4.044  16.598  0.00  0.00    +0.000 A 
ATOM     27  C   UNL     1       6.213   3.279  15.451  0.00  0.00    +0.000 A 
ATOM     28  C   UNL     1       6.060   3.841  14.191  0.00  0.00    +0.000 A 
ATOM     29  C   UNL     1       5.648   5.165  14.081  0.00  0.00    +0.000 A 
ATOM     30  C   UNL     1       5.410   5.926  15.232  0.00  0.00    +0.000 A 
ENDBRANCH   9  25
TORSDOF 2
ENDMDL
