MODEL 1
REMARK VINA RESULT:      -8.5      0.000      0.000
REMARK  Name = 
REMARK  7 active torsions:
REMARK  status: ('A' for Active; 'I' for Inactive)
REMARK    1  A    between atoms: C_1  and  C_2
REMARK    2  A    between atoms: C_4  and  C_5
REMARK    3  A    between atoms: C_6  and  C_7
REMARK    4  A    between atoms: C_7  and  C_8
REMARK    5  A    between atoms: N_10  and  C_11
REMARK    6  A    between atoms: C_11  and  C_12
REMARK    7  A    between atoms: C_11  and  C_18
REMARK                            x       y       z     vdW  Elec       q    Type
REMARK                         _______ _______ _______ _____ _____    ______ ____
ROOT
ATOM      1  C   UNL     1       3.016   5.936  17.534  0.00  0.00    +0.000 C 
ENDROOT
BRANCH   1   2
ATOM      2  C   UNL     1       4.451   6.208  17.082  0.00  0.00    +0.000 A 
ATOM      3  C   UNL     1       5.108   7.254  17.770  0.00  0.00    +0.000 A 
ATOM      4  C   UNL     1       6.481   7.445  17.704  0.00  0.00    +0.000 A 
ATOM      5  C   UNL     1       7.256   6.504  17.052  0.00  0.00    +0.000 A 
ATOM      6  C   UNL     1       6.631   5.515  16.283  0.00  0.00    +0.000 A 
ATOM      7  C   UNL     1       7.439   4.630  15.556  0.00  0.00    +0.000 A 
ATOM      8  C   UNL     1       7.025   4.213  14.309  0.00  0.00    +0.000 A 
ATOM      9  C   UNL     1       5.670   4.268  14.033  0.00  0.00    +0.000 A 
ATOM     10  C   UNL     1       4.770   4.742  15.013  0.00  0.00    +0.000 A 
ATOM     11  C   UNL     1       5.229   5.461  16.141  0.00  0.00    +0.000 A 
ENDBRANCH   1   2
BRANCH   1  12
ATOM     12  C   UNL     1       2.468   7.120  18.359  0.00  0.00    +0.000 A 
ATOM     13  C   UNL     1       2.062   8.336  17.774  0.00  0.00    +0.000 A 
ATOM     14  C   UNL     1       1.499   9.356  18.559  0.00  0.00    +0.000 A 
ATOM     15  C   UNL     1       1.305   9.163  19.930  0.00  0.00    +0.000 A 
ATOM     16  C   UNL     1       1.696   7.968  20.521  0.00  0.00    +0.000 A 
ATOM     17  C   UNL     1       2.281   6.958  19.747  0.00  0.00    +0.000 A 
ENDBRANCH   1  12
BRANCH   1  20
ATOM     18  C   UNL     1       1.552   3.966  17.878  0.00  0.00    +0.000 C 
ATOM     19  O   UNL     1       0.725   4.351  17.053  0.00  0.00    +0.000 OA
ATOM     20  N   UNL     1       2.729   4.652  18.153  0.00  0.00    +0.000 N 
ATOM     21  H   UNL     1       3.192   4.455  19.029  0.00  0.00    +0.000 HD
BRANCH  18  22
ATOM     22  C   UNL     1       1.377   2.639  18.613  0.00  0.00    +0.000 C 
BRANCH  22  28
ATOM     23  C   UNL     1       5.860   1.010  21.796  0.00  0.00    +0.000 C 
ATOM     24  C   UNL     1       4.684   1.509  21.021  0.00  0.00    +0.000 A 
ATOM     25  N   UNL     1       3.650   1.998  21.623  0.00  0.00    +0.000 NA
ATOM     26  C   UNL     1       2.581   2.416  20.864  0.00  0.00    +0.000 A 
ATOM     27  C   UNL     1       1.454   2.963  21.703  0.00  0.00    +0.000 C 
ATOM     28  C   UNL     1       2.534   2.311  19.528  0.00  0.00    +0.000 A 
ATOM     29  C   UNL     1       3.729   1.733  18.849  0.00  0.00    +0.000 A 
ATOM     30  O   UNL     1       3.741   1.520  17.645  0.00  0.00    +0.000 OA
ATOM     31  N   UNL     1       4.759   1.396  19.656  0.00  0.00    +0.000 N 
ATOM     32  H   UNL     1       5.578   0.990  19.223  0.00  0.00    +0.000 HD
ENDBRANCH  22  28
ENDBRANCH  18  22
ENDBRANCH   1  20
TORSDOF 5
ENDMDL
MODEL 2
REMARK VINA RESULT:      -8.3      2.488      6.520
REMARK  Name = 
REMARK  7 active torsions:
REMARK  status: ('A' for Active; 'I' for Inactive)
REMARK    1  A    between atoms: C_1  and  C_2
REMARK    2  A    between atoms: C_4  and  C_5
REMARK    3  A    between atoms: C_6  and  C_7
REMARK    4  A    between atoms: C_7  and  C_8
REMARK    5  A    between atoms: N_10  and  C_11
REMARK    6  A    between atoms: C_11  and  C_12
REMARK    7  A    between atoms: C_11  and  C_18
REMARK                            x       y       z     vdW  Elec       q    Type
REMARK                         _______ _______ _______ _____ _____    ______ ____
ROOT
ATOM      1  C   UNL     1       2.930   5.874  18.528  0.00  0.00    +0.000 C 
ENDROOT
BRANCH   1   2
ATOM      2  C   UNL     1       2.425   7.304  18.718  0.00  0.00    +0.000 A 
ATOM      3  C   UNL     1       2.715   8.189  17.654  0.00  0.00    +0.000 A 
ATOM      4  C   UNL     1       2.094   9.422  17.516  0.00  0.00    +0.000 A 
ATOM      5  C   UNL     1       1.057   9.747  18.372  0.00  0.00    +0.000 A 
ATOM      6  C   UNL     1       0.812   8.939  19.490  0.00  0.00    +0.000 A 
ATOM      7  C   UNL     1      -0.182   9.340  20.392  0.00  0.00    +0.000 A 
ATOM      8  C   UNL     1       0.011   9.129  21.740  0.00  0.00    +0.000 A 
ATOM      9  C   UNL     1       0.893   8.129  22.111  0.00  0.00    +0.000 A 
ATOM     10  C   UNL     1       1.559   7.373  21.122  0.00  0.00    +0.000 A 
ATOM     11  C   UNL     1       1.605   7.809  19.777  0.00  0.00    +0.000 A 
ENDBRANCH   1   2
BRANCH   1  12
ATOM     12  C   UNL     1       2.237   4.911  19.514  0.00  0.00    +0.000 A 
ATOM     13  C   UNL     1       1.071   4.190  19.186  0.00  0.00    +0.000 A 
ATOM     14  C   UNL     1       0.520   3.269  20.092  0.00  0.00    +0.000 A 
ATOM     15  C   UNL     1       1.142   3.032  21.322  0.00  0.00    +0.000 A 
ATOM     16  C   UNL     1       2.294   3.731  21.658  0.00  0.00    +0.000 A 
ATOM     17  C   UNL     1       2.833   4.670  20.769  0.00  0.00    +0.000 A 
ENDBRANCH   1  12
BRANCH   1  20
ATOM     18  C   UNL     1       4.905   4.518  17.890  0.00  0.00    +0.000 C 
ATOM     19  O   UNL     1       4.222   3.661  17.334  0.00  0.00    +0.000 OA
ATOM     20  N   UNL     1       4.368   5.662  18.468  0.00  0.00    +0.000 N 
ATOM     21  H   UNL     1       4.928   6.148  19.155  0.00  0.00    +0.000 HD
BRANCH  18  22
ATOM     22  C   UNL     1       6.429   4.422  17.915  0.00  0.00    +0.000 C 
BRANCH  22  28
ATOM     23  C   UNL     1       8.906   9.575  18.359  0.00  0.00    +0.000 C 
ATOM     24  C   UNL     1       8.288   8.230  18.154  0.00  0.00    +0.000 A 
ATOM     25  N   UNL     1       7.621   7.960  17.080  0.00  0.00    +0.000 NA
ATOM     26  C   UNL     1       7.047   6.717  16.955  0.00  0.00    +0.000 A 
ATOM     27  C   UNL     1       6.306   6.550  15.652  0.00  0.00    +0.000 C 
ATOM     28  C   UNL     1       7.108   5.773  17.905  0.00  0.00    +0.000 A 
ATOM     29  C   UNL     1       7.869   6.103  19.143  0.00  0.00    +0.000 A 
ATOM     30  O   UNL     1       7.906   5.337  20.097  0.00  0.00    +0.000 OA
ATOM     31  N   UNL     1       8.450   7.323  19.169  0.00  0.00    +0.000 N 
ATOM     32  H   UNL     1       8.963   7.578  20.004  0.00  0.00    +0.000 HD
ENDBRANCH  22  28
ENDBRANCH  18  22
ENDBRANCH   1  20
TORSDOF 5
ENDMDL
MODEL 3
REMARK VINA RESULT:      -8.3      3.088      6.385
REMARK  Name = 
REMARK  7 active torsions:
REMARK  status: ('A' for Active; 'I' for Inactive)
REMARK    1  A    between atoms: C_1  and  C_2
REMARK    2  A    between atoms: C_4  and  C_5
REMARK    3  A    between atoms: C_6  and  C_7
REMARK    4  A    between atoms: C_7  and  C_8
REMARK    5  A    between atoms: N_10  and  C_11
REMARK    6  A    between atoms: C_11  and  C_12
REMARK    7  A    between atoms: C_11  and  C_18
REMARK                            x       y       z     vdW  Elec       q    Type
REMARK                         _______ _______ _______ _____ _____    ______ ____
ROOT
ATOM      1  C   UNL     1       3.704   5.985  18.816  0.00  0.00    +0.000 C 
ENDROOT
BRANCH   1   2
ATOM      2  C   UNL     1       5.123   5.758  18.295  0.00  0.00    +0.000 A 
ATOM      3  C   UNL     1       6.142   5.843  19.272  0.00  0.00    +0.000 A 
ATOM      4  C   UNL     1       7.432   5.383  19.050  0.00  0.00    +0.000 A 
ATOM      5  C   UNL     1       7.703   4.696  17.881  0.00  0.00    +0.000 A 
ATOM      6  C   UNL     1       6.748   4.679  16.857  0.00  0.00    +0.000 A 
ATOM      7  C   UNL     1       7.083   4.056  15.647  0.00  0.00    +0.000 A 
ATOM      8  C   UNL     1       6.636   4.603  14.464  0.00  0.00    +0.000 A 
ATOM      9  C   UNL     1       5.512   5.409  14.517  0.00  0.00    +0.000 A 
ATOM     10  C   UNL     1       4.873   5.649  15.753  0.00  0.00    +0.000 A 
ATOM     11  C   UNL     1       5.519   5.359  16.978  0.00  0.00    +0.000 A 
ENDBRANCH   1   2
BRANCH   1  12
ATOM     12  C   UNL     1       2.941   4.649  18.930  0.00  0.00    +0.000 A 
ATOM     13  C   UNL     1       3.195   3.708  19.948  0.00  0.00    +0.000 A 
ATOM     14  C   UNL     1       2.422   2.540  20.054  0.00  0.00    +0.000 A 
ATOM     15  C   UNL     1       1.366   2.313  19.166  0.00  0.00    +0.000 A 
ATOM     16  C   UNL     1       1.099   3.233  18.161  0.00  0.00    +0.000 A 
ATOM     17  C   UNL     1       1.883   4.386  18.035  0.00  0.00    +0.000 A 
ENDBRANCH   1  12
BRANCH   1  20
ATOM     18  C   UNL     1       2.133   7.898  18.941  0.00  0.00    +0.000 C 
ATOM     19  O   UNL     1       2.128   7.902  20.171  0.00  0.00    +0.000 OA
ATOM     20  N   UNL     1       2.906   7.025  18.186  0.00  0.00    +0.000 N 
ATOM     21  H   UNL     1       2.635   6.871  17.224  0.00  0.00    +0.000 HD
BRANCH  18  22
ATOM     22  C   UNL     1       1.333   8.927  18.144  0.00  0.00    +0.000 C 
BRANCH  22  28
ATOM     23  C   UNL     1       1.371  14.032  20.756  0.00  0.00    +0.000 C 
ATOM     24  C   UNL     1       1.269  12.702  20.084  0.00  0.00    +0.000 A 
ATOM     25  N   UNL     1       0.477  11.787  20.537  0.00  0.00    +0.000 NA
ATOM     26  C   UNL     1       0.443  10.568  19.900  0.00  0.00    +0.000 A 
ATOM     27  C   UNL     1      -0.527   9.606  20.540  0.00  0.00    +0.000 C 
ATOM     28  C   UNL     1       1.216  10.260  18.849  0.00  0.00    +0.000 A 
ATOM     29  C   UNL     1       2.133  11.321  18.345  0.00  0.00    +0.000 A 
ATOM     30  O   UNL     1       2.935  11.102  17.447  0.00  0.00    +0.000 OA
ATOM     31  N   UNL     1       2.070  12.507  18.989  0.00  0.00    +0.000 N 
ATOM     32  H   UNL     1       2.692  13.242  18.675  0.00  0.00    +0.000 HD
ENDBRANCH  22  28
ENDBRANCH  18  22
ENDBRANCH   1  20
TORSDOF 5
ENDMDL
MODEL 4
REMARK VINA RESULT:      -8.2      3.179      6.578
REMARK  Name = 
REMARK  7 active torsions:
REMARK  status: ('A' for Active; 'I' for Inactive)
REMARK    1  A    between atoms: C_1  and  C_2
REMARK    2  A    between atoms: C_4  and  C_5
REMARK    3  A    between atoms: C_6  and  C_7
REMARK    4  A    between atoms: C_7  and  C_8
REMARK    5  A    between atoms: N_10  and  C_11
REMARK    6  A    between atoms: C_11  and  C_12
REMARK    7  A    between atoms: C_11  and  C_18
REMARK                            x       y       z     vdW  Elec       q    Type
REMARK                         _______ _______ _______ _____ _____    ______ ____
ROOT
ATOM      1  C   UNL     1       3.452   6.527  18.754  0.00  0.00    +0.000 C 
ENDROOT
BRANCH   1   2
ATOM      2  C   UNL     1       4.837   6.056  18.313  0.00  0.00    +0.000 A 
ATOM      3  C   UNL     1       5.774   5.887  19.360  0.00  0.00    +0.000 A 
ATOM      4  C   UNL     1       6.966   5.198  19.191  0.00  0.00    +0.000 A 
ATOM      5  C   UNL     1       7.193   4.536  17.998  0.00  0.00    +0.000 A 
ATOM      6  C   UNL     1       6.335   4.763  16.915  0.00  0.00    +0.000 A 
ATOM      7  C   UNL     1       6.639   4.154  15.689  0.00  0.00    +0.000 A 
ATOM      8  C   UNL     1       6.398   4.843  14.520  0.00  0.00    +0.000 A 
ATOM      9  C   UNL     1       5.448   5.849  14.555  0.00  0.00    +0.000 A 
ATOM     10  C   UNL     1       4.771   6.139  15.760  0.00  0.00    +0.000 A 
ATOM     11  C   UNL     1       5.252   5.662  17.001  0.00  0.00    +0.000 A 
ENDBRANCH   1   2
BRANCH   1  12
ATOM     12  C   UNL     1       2.476   5.335  18.862  0.00  0.00    +0.000 A 
ATOM     13  C   UNL     1       2.159   4.506  17.768  0.00  0.00    +0.000 A 
ATOM     14  C   UNL     1       1.324   3.389  17.934  0.00  0.00    +0.000 A 
ATOM     15  C   UNL     1       0.822   3.067  19.200  0.00  0.00    +0.000 A 
ATOM     16  C   UNL     1       1.130   3.872  20.289  0.00  0.00    +0.000 A 
ATOM     17  C   UNL     1       1.941   5.002  20.123  0.00  0.00    +0.000 A 
ENDBRANCH   1  12
BRANCH   1  20
ATOM     18  C   UNL     1       1.971   8.513  18.694  0.00  0.00    +0.000 C 
ATOM     19  O   UNL     1       1.680   8.417  19.884  0.00  0.00    +0.000 OA
ATOM     20  N   UNL     1       2.863   7.659  18.057  0.00  0.00    +0.000 N 
ATOM     21  H   UNL     1       2.818   7.600  17.049  0.00  0.00    +0.000 HD
BRANCH  18  22
ATOM     22  C   UNL     1       1.420   9.649  17.834  0.00  0.00    +0.000 C 
BRANCH  22  28
ATOM     23  C   UNL     1      -2.959  12.641  20.016  0.00  0.00    +0.000 C 
ATOM     24  C   UNL     1      -1.782  11.858  19.532  0.00  0.00    +0.000 A 
ATOM     25  N   UNL     1      -0.587  12.134  19.940  0.00  0.00    +0.000 NA
ATOM     26  C   UNL     1       0.466  11.403  19.441  0.00  0.00    +0.000 A 
ATOM     27  C   UNL     1       1.794  11.838  20.009  0.00  0.00    +0.000 C 
ATOM     28  C   UNL     1       0.328  10.437  18.522  0.00  0.00    +0.000 A 
ATOM     29  C   UNL     1      -1.055  10.138  18.052  0.00  0.00    +0.000 A 
ATOM     30  O   UNL     1      -1.267   9.334  17.155  0.00  0.00    +0.000 OA
ATOM     31  N   UNL     1      -2.040  10.861  18.628  0.00  0.00    +0.000 N 
ATOM     32  H   UNL     1      -2.989  10.688  18.318  0.00  0.00    +0.000 HD
ENDBRANCH  22  28
ENDBRANCH  18  22
ENDBRANCH   1  20
TORSDOF 5
ENDMDL
MODEL 5
REMARK VINA RESULT:      -8.2      3.197      6.693
REMARK  Name = 
REMARK  7 active torsions:
REMARK  status: ('A' for Active; 'I' for Inactive)
REMARK    1  A    between atoms: C_1  and  C_2
REMARK    2  A    between atoms: C_4  and  C_5
REMARK    3  A    between atoms: C_6  and  C_7
REMARK    4  A    between atoms: C_7  and  C_8
REMARK    5  A    between atoms: N_10  and  C_11
REMARK    6  A    between atoms: C_11  and  C_12
REMARK    7  A    between atoms: C_11  and  C_18
REMARK                            x       y       z     vdW  Elec       q    Type
REMARK                         _______ _______ _______ _____ _____    ______ ____
ROOT
ATOM      1  C   UNL     1       3.528   6.389  18.829  0.00  0.00    +0.000 C 
ENDROOT
BRANCH   1   2
ATOM      2  C   UNL     1       4.921   5.984  18.348  0.00  0.00    +0.000 A 
ATOM      3  C   UNL     1       5.904   5.900  19.361  0.00  0.00    +0.000 A 
ATOM      4  C   UNL     1       7.127   5.273  19.166  0.00  0.00    +0.000 A 
ATOM      5  C   UNL     1       7.346   4.589  17.984  0.00  0.00    +0.000 A 
ATOM      6  C   UNL     1       6.436   4.734  16.929  0.00  0.00    +0.000 A 
ATOM      7  C   UNL     1       6.729   4.106  15.711  0.00  0.00    +0.000 A 
ATOM      8  C   UNL     1       6.405   4.743  14.533  0.00  0.00    +0.000 A 
ATOM      9  C   UNL     1       5.401   5.695  14.576  0.00  0.00    +0.000 A 
ATOM     10  C   UNL     1       4.754   5.984  15.797  0.00  0.00    +0.000 A 
ATOM     11  C   UNL     1       5.308   5.573  17.032  0.00  0.00    +0.000 A 
ENDBRANCH   1   2
BRANCH   1  12
ATOM     12  C   UNL     1       2.653   5.145  19.089  0.00  0.00    +0.000 A 
ATOM     13  C   UNL     1       2.226   4.767  20.377  0.00  0.00    +0.000 A 
ATOM     14  C   UNL     1       1.369   3.669  20.554  0.00  0.00    +0.000 A 
ATOM     15  C   UNL     1       0.902   2.954  19.446  0.00  0.00    +0.000 A 
ATOM     16  C   UNL     1       1.310   3.317  18.170  0.00  0.00    +0.000 A 
ATOM     17  C   UNL     1       2.186   4.396  17.989  0.00  0.00    +0.000 A 
ENDBRANCH   1  12
BRANCH   1  20
ATOM     18  C   UNL     1       1.979   8.320  18.712  0.00  0.00    +0.000 C 
ATOM     19  O   UNL     1       1.834   8.366  19.932  0.00  0.00    +0.000 OA
ATOM     20  N   UNL     1       2.820   7.415  18.078  0.00  0.00    +0.000 N 
ATOM     21  H   UNL     1       2.658   7.231  17.098  0.00  0.00    +0.000 HD
BRANCH  18  22
ATOM     22  C   UNL     1       1.288   9.329  17.796  0.00  0.00    +0.000 C 
BRANCH  22  28
ATOM     23  C   UNL     1      -1.012  13.882  20.417  0.00  0.00    +0.000 C 
ATOM     24  C   UNL     1      -0.332  12.718  19.773  0.00  0.00    +0.000 A 
ATOM     25  N   UNL     1       0.845  12.839  19.252  0.00  0.00    +0.000 NA
ATOM     26  C   UNL     1       1.414  11.745  18.645  0.00  0.00    +0.000 A 
ATOM     27  C   UNL     1       2.784  12.038  18.087  0.00  0.00    +0.000 C 
ATOM     28  C   UNL     1       0.800  10.558  18.530  0.00  0.00    +0.000 A 
ATOM     29  C   UNL     1      -0.561  10.436  19.125  0.00  0.00    +0.000 A 
ATOM     30  O   UNL     1      -1.230   9.420  18.992  0.00  0.00    +0.000 OA
ATOM     31  N   UNL     1      -1.030  11.538  19.750  0.00  0.00    +0.000 N 
ATOM     32  H   UNL     1      -1.958  11.487  20.153  0.00  0.00    +0.000 HD
ENDBRANCH  22  28
ENDBRANCH  18  22
ENDBRANCH   1  20
TORSDOF 5
ENDMDL
MODEL 6
REMARK VINA RESULT:      -8.1      3.350      6.598
REMARK  Name = 
REMARK  7 active torsions:
REMARK  status: ('A' for Active; 'I' for Inactive)
REMARK    1  A    between atoms: C_1  and  C_2
REMARK    2  A    between atoms: C_4  and  C_5
REMARK    3  A    between atoms: C_6  and  C_7
REMARK    4  A    between atoms: C_7  and  C_8
REMARK    5  A    between atoms: N_10  and  C_11
REMARK    6  A    between atoms: C_11  and  C_12
REMARK    7  A    between atoms: C_11  and  C_18
REMARK                            x       y       z     vdW  Elec       q    Type
REMARK                         _______ _______ _______ _____ _____    ______ ____
ROOT
ATOM      1  C   UNL     1       3.417   6.414  18.772  0.00  0.00    +0.000 C 
ENDROOT
BRANCH   1   2
ATOM      2  C   UNL     1       4.812   5.974  18.326  0.00  0.00    +0.000 A 
ATOM      3  C   UNL     1       5.759   5.840  19.367  0.00  0.00    +0.000 A 
ATOM      4  C   UNL     1       6.967   5.179  19.198  0.00  0.00    +0.000 A 
ATOM      5  C   UNL     1       7.202   4.511  18.009  0.00  0.00    +0.000 A 
ATOM      6  C   UNL     1       6.332   4.706  16.930  0.00  0.00    +0.000 A 
ATOM      7  C   UNL     1       6.643   4.093  15.708  0.00  0.00    +0.000 A 
ATOM      8  C   UNL     1       6.377   4.763  14.534  0.00  0.00    +0.000 A 
ATOM      9  C   UNL     1       5.402   5.745  14.565  0.00  0.00    +0.000 A 
ATOM     10  C   UNL     1       4.726   6.030  15.772  0.00  0.00    +0.000 A 
ATOM     11  C   UNL     1       5.227   5.578  17.015  0.00  0.00    +0.000 A 
ENDBRANCH   1   2
BRANCH   1  12
ATOM     12  C   UNL     1       2.493   5.194  18.967  0.00  0.00    +0.000 A 
ATOM     13  C   UNL     1       2.133   4.331  17.912  0.00  0.00    +0.000 A 
ATOM     14  C   UNL     1       1.350   3.191  18.154  0.00  0.00    +0.000 A 
ATOM     15  C   UNL     1       0.944   2.879  19.456  0.00  0.00    +0.000 A 
ATOM     16  C   UNL     1       1.295   3.716  20.507  0.00  0.00    +0.000 A 
ATOM     17  C   UNL     1       2.053   4.869  20.267  0.00  0.00    +0.000 A 
ENDBRANCH   1  12
BRANCH   1  20
ATOM     18  C   UNL     1       1.963   8.418  18.664  0.00  0.00    +0.000 C 
ATOM     19  O   UNL     1       1.803   8.452  19.882  0.00  0.00    +0.000 OA
ATOM     20  N   UNL     1       2.769   7.483  18.027  0.00  0.00    +0.000 N 
ATOM     21  H   UNL     1       2.613   7.321  17.042  0.00  0.00    +0.000 HD
BRANCH  18  22
ATOM     22  C   UNL     1       1.334   9.472  17.754  0.00  0.00    +0.000 C 
BRANCH  22  28
ATOM     23  C   UNL     1       0.344  14.314  20.662  0.00  0.00    +0.000 C 
ATOM     24  C   UNL     1       0.512  13.052  19.881  0.00  0.00    +0.000 A 
ATOM     25  N   UNL     1      -0.365  12.105  19.949  0.00  0.00    +0.000 NA
ATOM     26  C   UNL     1      -0.147  10.952  19.233  0.00  0.00    +0.000 A 
ATOM     27  C   UNL     1      -1.254   9.942  19.410  0.00  0.00    +0.000 C 
ATOM     28  C   UNL     1       0.948  10.735  18.490  0.00  0.00    +0.000 A 
ATOM     29  C   UNL     1       1.957  11.831  18.431  0.00  0.00    +0.000 A 
ATOM     30  O   UNL     1       3.024  11.689  17.851  0.00  0.00    +0.000 OA
ATOM     31  N   UNL     1       1.647  12.953  19.117  0.00  0.00    +0.000 N 
ATOM     32  H   UNL     1       2.320  13.709  19.105  0.00  0.00    +0.000 HD
ENDBRANCH  22  28
ENDBRANCH  18  22
ENDBRANCH   1  20
TORSDOF 5
ENDMDL
MODEL 7
REMARK VINA RESULT:      -8.0      3.273      6.758
REMARK  Name = 
REMARK  7 active torsions:
REMARK  status: ('A' for Active; 'I' for Inactive)
REMARK    1  A    between atoms: C_1  and  C_2
REMARK    2  A    between atoms: C_4  and  C_5
REMARK    3  A    between atoms: C_6  and  C_7
REMARK    4  A    between atoms: C_7  and  C_8
REMARK    5  A    between atoms: N_10  and  C_11
REMARK    6  A    between atoms: C_11  and  C_12
REMARK    7  A    between atoms: C_11  and  C_18
REMARK                            x       y       z     vdW  Elec       q    Type
REMARK                         _______ _______ _______ _____ _____    ______ ____
ROOT
ATOM      1  C   UNL     1       2.838   6.557  19.135  0.00  0.00    +0.000 C 
ENDROOT
BRANCH   1   2
ATOM      2  C   UNL     1       4.027   6.401  18.188  0.00  0.00    +0.000 A 
ATOM      3  C   UNL     1       3.761   6.715  16.835  0.00  0.00    +0.000 A 
ATOM      4  C   UNL     1       4.769   6.914  15.902  0.00  0.00    +0.000 A 
ATOM      5  C   UNL     1       6.083   6.938  16.333  0.00  0.00    +0.000 A 
ATOM      6  C   UNL     1       6.383   6.536  17.641  0.00  0.00    +0.000 A 
ATOM      7  C   UNL     1       7.730   6.480  18.024  0.00  0.00    +0.000 A 
ATOM      8  C   UNL     1       8.147   5.470  18.865  0.00  0.00    +0.000 A 
ATOM      9  C   UNL     1       7.192   4.874  19.670  0.00  0.00    +0.000 A 
ATOM     10  C   UNL     1       5.848   5.303  19.607  0.00  0.00    +0.000 A 
ATOM     11  C   UNL     1       5.382   6.091  18.529  0.00  0.00    +0.000 A 
ENDBRANCH   1   2
BRANCH   1  12
ATOM     12  C   UNL     1       2.120   5.206  19.343  0.00  0.00    +0.000 A 
ATOM     13  C   UNL     1       1.759   4.361  18.275  0.00  0.00    +0.000 A 
ATOM     14  C   UNL     1       1.175   3.107  18.519  0.00  0.00    +0.000 A 
ATOM     15  C   UNL     1       0.974   2.668  19.832  0.00  0.00    +0.000 A 
ATOM     16  C   UNL     1       1.330   3.487  20.895  0.00  0.00    +0.000 A 
ATOM     17  C   UNL     1       1.888   4.750  20.657  0.00  0.00    +0.000 A 
ENDBRANCH   1  12
BRANCH   1  20
ATOM     18  C   UNL     1       1.431   8.441  19.918  0.00  0.00    +0.000 C 
ATOM     19  O   UNL     1       1.815   8.335  21.081  0.00  0.00    +0.000 OA
ATOM     20  N   UNL     1       1.905   7.644  18.884  0.00  0.00    +0.000 N 
ATOM     21  H   UNL     1       1.341   7.575  18.048  0.00  0.00    +0.000 HD
BRANCH  18  22
ATOM     22  C   UNL     1       0.444   9.533  19.508  0.00  0.00    +0.000 C 
BRANCH  22  28
ATOM     23  C   UNL     1       3.350  14.332  18.325  0.00  0.00    +0.000 C 
ATOM     24  C   UNL     1       2.522  13.135  18.660  0.00  0.00    +0.000 A 
ATOM     25  N   UNL     1       1.811  13.099  19.739  0.00  0.00    +0.000 NA
ATOM     26  C   UNL     1       1.090  11.961  20.016  0.00  0.00    +0.000 A 
ATOM     27  C   UNL     1       0.311  12.067  21.303  0.00  0.00    +0.000 C 
ATOM     28  C   UNL     1       1.110  10.864  19.244  0.00  0.00    +0.000 A 
ATOM     29  C   UNL     1       1.944  10.917  18.010  0.00  0.00    +0.000 A 
ATOM     30  O   UNL     1       2.090   9.936  17.293  0.00  0.00    +0.000 OA
ATOM     31  N   UNL     1       2.579  12.086  17.779  0.00  0.00    +0.000 N 
ATOM     32  H   UNL     1       3.163  12.146  16.954  0.00  0.00    +0.000 HD
ENDBRANCH  22  28
ENDBRANCH  18  22
ENDBRANCH   1  20
TORSDOF 5
ENDMDL
MODEL 8
REMARK VINA RESULT:      -8.0      2.547      6.521
REMARK  Name = 
REMARK  7 active torsions:
REMARK  status: ('A' for Active; 'I' for Inactive)
REMARK    1  A    between atoms: C_1  and  C_2
REMARK    2  A    between atoms: C_4  and  C_5
REMARK    3  A    between atoms: C_6  and  C_7
REMARK    4  A    between atoms: C_7  and  C_8
REMARK    5  A    between atoms: N_10  and  C_11
REMARK    6  A    between atoms: C_11  and  C_12
REMARK    7  A    between atoms: C_11  and  C_18
REMARK                            x       y       z     vdW  Elec       q    Type
REMARK                         _______ _______ _______ _____ _____    ______ ____
ROOT
ATOM      1  C   UNL     1       2.865   6.078  18.444  0.00  0.00    +0.000 C 
ENDROOT
BRANCH   1   2
ATOM      2  C   UNL     1       2.350   7.496  18.691  0.00  0.00    +0.000 A 
ATOM      3  C   UNL     1       2.613   8.419  17.653  0.00  0.00    +0.000 A 
ATOM      4  C   UNL     1       1.977   9.650  17.568  0.00  0.00    +0.000 A 
ATOM      5  C   UNL     1       0.954   9.935  18.454  0.00  0.00    +0.000 A 
ATOM      6  C   UNL     1       0.737   9.087  19.547  0.00  0.00    +0.000 A 
ATOM      7  C   UNL     1      -0.244   9.448  20.481  0.00  0.00    +0.000 A 
ATOM      8  C   UNL     1      -0.024   9.194  21.818  0.00  0.00    +0.000 A 
ATOM      9  C   UNL     1       0.875   8.191  22.138  0.00  0.00    +0.000 A 
ATOM     10  C   UNL     1       1.529   7.476  21.112  0.00  0.00    +0.000 A 
ATOM     11  C   UNL     1       1.546   7.956  19.782  0.00  0.00    +0.000 A 
ENDBRANCH   1   2
BRANCH   1  12
ATOM     12  C   UNL     1       2.228   5.082  19.435  0.00  0.00    +0.000 A 
ATOM     13  C   UNL     1       1.066   4.342  19.135  0.00  0.00    +0.000 A 
ATOM     14  C   UNL     1       0.567   3.393  20.041  0.00  0.00    +0.000 A 
ATOM     15  C   UNL     1       1.239   3.145  21.243  0.00  0.00    +0.000 A 
ATOM     16  C   UNL     1       2.388   3.861  21.551  0.00  0.00    +0.000 A 
ATOM     17  C   UNL     1       2.875   4.829  20.662  0.00  0.00    +0.000 A 
ENDBRANCH   1  12
BRANCH   1  20
ATOM     18  C   UNL     1       4.827   4.789  17.648  0.00  0.00    +0.000 C 
ATOM     19  O   UNL     1       4.131   3.959  17.065  0.00  0.00    +0.000 OA
ATOM     20  N   UNL     1       4.302   5.887  18.317  0.00  0.00    +0.000 N 
ATOM     21  H   UNL     1       4.883   6.336  19.010  0.00  0.00    +0.000 HD
BRANCH  18  22
ATOM     22  C   UNL     1       6.352   4.710  17.608  0.00  0.00    +0.000 C 
BRANCH  22  28
ATOM     23  C   UNL     1       8.929   9.797  18.205  0.00  0.00    +0.000 C 
ATOM     24  C   UNL     1       8.247   8.469  18.142  0.00  0.00    +0.000 A 
ATOM     25  N   UNL     1       8.529   7.536  18.990  0.00  0.00    +0.000 NA
ATOM     26  C   UNL     1       7.896   6.321  18.869  0.00  0.00    +0.000 A 
ATOM     27  C   UNL     1       8.325   5.336  19.927  0.00  0.00    +0.000 C 
ATOM     28  C   UNL     1       7.021   6.035  17.894  0.00  0.00    +0.000 A 
ATOM     29  C   UNL     1       6.715   7.118  16.916  0.00  0.00    +0.000 A 
ATOM     30  O   UNL     1       5.997   6.920  15.945  0.00  0.00    +0.000 OA
ATOM     31  N   UNL     1       7.336   8.298  17.132  0.00  0.00    +0.000 N 
ATOM     32  H   UNL     1       7.156   9.047  16.476  0.00  0.00    +0.000 HD
ENDBRANCH  22  28
ENDBRANCH  18  22
ENDBRANCH   1  20
TORSDOF 5
ENDMDL
MODEL 9
REMARK VINA RESULT:      -7.9      3.057      6.551
REMARK  Name = 
REMARK  7 active torsions:
REMARK  status: ('A' for Active; 'I' for Inactive)
REMARK    1  A    between atoms: C_1  and  C_2
REMARK    2  A    between atoms: C_4  and  C_5
REMARK    3  A    between atoms: C_6  and  C_7
REMARK    4  A    between atoms: C_7  and  C_8
REMARK    5  A    between atoms: N_10  and  C_11
REMARK    6  A    between atoms: C_11  and  C_12
REMARK    7  A    between atoms: C_11  and  C_18
REMARK                            x       y       z     vdW  Elec       q    Type
REMARK                         _______ _______ _______ _____ _____    ______ ____
ROOT
ATOM      1  C   UNL     1       3.654   6.113  18.797  0.00  0.00    +0.000 C 
ENDROOT
BRANCH   1   2
ATOM      2  C   UNL     1       5.082   5.875  18.305  0.00  0.00    +0.000 A 
ATOM      3  C   UNL     1       6.088   6.039  19.285  0.00  0.00    +0.000 A 
ATOM      4  C   UNL     1       7.388   5.586  19.104  0.00  0.00    +0.000 A 
ATOM      5  C   UNL     1       7.682   4.830  17.984  0.00  0.00    +0.000 A 
ATOM      6  C   UNL     1       6.737   4.734  16.954  0.00  0.00    +0.000 A 
ATOM      7  C   UNL     1       7.095   4.041  15.790  0.00  0.00    +0.000 A 
ATOM      8  C   UNL     1       6.651   4.504  14.570  0.00  0.00    +0.000 A 
ATOM      9  C   UNL     1       5.515   5.295  14.561  0.00  0.00    +0.000 A 
ATOM     10  C   UNL     1       4.859   5.601  15.774  0.00  0.00    +0.000 A 
ATOM     11  C   UNL     1       5.497   5.401  17.020  0.00  0.00    +0.000 A 
ENDBRANCH   1   2
BRANCH   1  12
ATOM     12  C   UNL     1       2.888   4.779  18.923  0.00  0.00    +0.000 A 
ATOM     13  C   UNL     1       1.897   4.377  18.004  0.00  0.00    +0.000 A 
ATOM     14  C   UNL     1       1.281   3.120  18.119  0.00  0.00    +0.000 A 
ATOM     15  C   UNL     1       1.668   2.237  19.132  0.00  0.00    +0.000 A 
ATOM     16  C   UNL     1       2.646   2.616  20.042  0.00  0.00    +0.000 A 
ATOM     17  C   UNL     1       3.245   3.878  19.948  0.00  0.00    +0.000 A 
ENDBRANCH   1  12
BRANCH   1  20
ATOM     18  C   UNL     1       2.098   8.040  18.862  0.00  0.00    +0.000 C 
ATOM     19  O   UNL     1       2.087   8.078  20.091  0.00  0.00    +0.000 OA
ATOM     20  N   UNL     1       2.867   7.141  18.135  0.00  0.00    +0.000 N 
ATOM     21  H   UNL     1       2.600   6.962  17.177  0.00  0.00    +0.000 HD
BRANCH  18  22
ATOM     22  C   UNL     1       1.310   9.054  18.033  0.00  0.00    +0.000 C 
BRANCH  22  28
ATOM     23  C   UNL     1      -0.282  13.799  20.830  0.00  0.00    +0.000 C 
ATOM     24  C   UNL     1       0.221  12.585  20.120  0.00  0.00    +0.000 A 
ATOM     25  N   UNL     1       1.251  12.648  19.342  0.00  0.00    +0.000 NA
ATOM     26  C   UNL     1       1.655  11.507  18.688  0.00  0.00    +0.000 A 
ATOM     27  C   UNL     1       2.868  11.735  17.821  0.00  0.00    +0.000 C 
ATOM     28  C   UNL     1       1.016  10.332  18.784  0.00  0.00    +0.000 A 
ATOM     29  C   UNL     1      -0.177  10.278  19.675  0.00  0.00    +0.000 A 
ATOM     30  O   UNL     1      -0.872   9.274  19.756  0.00  0.00    +0.000 OA
ATOM     31  N   UNL     1      -0.479  11.424  20.324  0.00  0.00    +0.000 N 
ATOM     32  H   UNL     1      -1.293  11.419  20.926  0.00  0.00    +0.000 HD
ENDBRANCH  22  28
ENDBRANCH  18  22
ENDBRANCH   1  20
TORSDOF 5
ENDMDL
