MODEL 1
REMARK VINA RESULT:      -9.2      0.000      0.000
REMARK  Name = 
REMARK  6 active torsions:
REMARK  status: ('A' for Active; 'I' for Inactive)
REMARK    1  A    between atoms: C_2  and  C_3
REMARK    2  A    between atoms: C_3  and  C_4
REMARK    3  A    between atoms: N_10  and  C_11
REMARK    4  A    between atoms: C_11  and  C_12
REMARK    5  A    between atoms: C_11  and  C_19
REMARK    6  A    between atoms: C_12  and  C_13
REMARK                            x       y       z     vdW  Elec       q    Type
REMARK                         _______ _______ _______ _____ _____    ______ ____
ROOT
ATOM      1  C   UNL     1       6.334   6.431  17.312  0.00  0.00    +0.000 C 
ENDROOT
BRANCH   1   2
ATOM      2  C   UNL     1       6.565   5.612  16.053  0.00  0.00    +0.000 A 
ATOM      3  N   UNL     1       7.563   5.689  15.185  0.00  0.00    +0.000 NA
ATOM      4  C   UNL     1       7.161   4.933  14.093  0.00  0.00    +0.000 A 
ATOM      5  C   UNL     1       7.779   4.717  12.849  0.00  0.00    +0.000 A 
ATOM      6  C   UNL     1       7.105   3.956  11.879  0.00  0.00    +0.000 A 
ATOM      7  C   UNL     1       5.843   3.418  12.138  0.00  0.00    +0.000 A 
ATOM      8  C   UNL     1       5.223   3.601  13.377  0.00  0.00    +0.000 A 
ATOM      9  C   UNL     1       5.920   4.356  14.325  0.00  0.00    +0.000 A 
ATOM     10  N   UNL     1       5.613   4.723  15.606  0.00  0.00    +0.000 N 
ATOM     11  H   UNL     1       4.759   4.482  16.085  0.00  0.00    +0.000 HD
ENDBRANCH   1   2
BRANCH   1  14
ATOM     12  O   UNL     1       8.469   7.684  18.673  0.00  0.00    +0.000 OA
ATOM     13  C   UNL     1       7.842   8.336  17.839  0.00  0.00    +0.000 C 
ATOM     14  N   UNL     1       6.795   7.804  17.119  0.00  0.00    +0.000 N 
ATOM     15  H   UNL     1       6.320   8.352  16.409  0.00  0.00    +0.000 HD
BRANCH  13  16
ATOM     16  C   UNL     1       8.207   9.776  17.518  0.00  0.00    +0.000 C 
BRANCH  16  17
ATOM     17  C   UNL     1       9.197  10.471  18.430  0.00  0.00    +0.000 A 
ATOM     18  C   UNL     1       9.057  10.540  19.821  0.00  0.00    +0.000 A 
ATOM     19  C   UNL     1      10.024  11.182  20.606  0.00  0.00    +0.000 A 
ATOM     20  C   UNL     1      11.154  11.746  20.014  0.00  0.00    +0.000 A 
ATOM     21  C   UNL     1      11.324  11.660  18.637  0.00  0.00    +0.000 A 
ATOM     22  C   UNL     1      10.357  11.024  17.852  0.00  0.00    +0.000 A 
ENDBRANCH  16  17
ENDBRANCH  13  16
ENDBRANCH   1  14
BRANCH   1  23
ATOM     23  C   UNL     1       4.848   6.330  17.770  0.00  0.00    +0.000 C 
BRANCH  23  24
ATOM     24  C   UNL     1       4.321   4.997  18.268  0.00  0.00    +0.000 A 
ATOM     25  C   UNL     1       5.039   4.148  19.124  0.00  0.00    +0.000 A 
ATOM     26  C   UNL     1       4.483   2.966  19.606  0.00  0.00    +0.000 A 
ATOM     27  C   UNL     1       3.198   2.598  19.223  0.00  0.00    +0.000 A 
ATOM     28  C   UNL     1       2.482   3.404  18.341  0.00  0.00    +0.000 A 
ATOM     29  C   UNL     1       3.040   4.593  17.863  0.00  0.00    +0.000 A 
ENDBRANCH  23  24
ENDBRANCH   1  23
TORSDOF 6
ENDMDL
MODEL 2
REMARK VINA RESULT:      -9.1      4.008      4.937
REMARK  Name = 
REMARK  6 active torsions:
REMARK  status: ('A' for Active; 'I' for Inactive)
REMARK    1  A    between atoms: C_2  and  C_3
REMARK    2  A    between atoms: C_3  and  C_4
REMARK    3  A    between atoms: N_10  and  C_11
REMARK    4  A    between atoms: C_11  and  C_12
REMARK    5  A    between atoms: C_11  and  C_19
REMARK    6  A    between atoms: C_12  and  C_13
REMARK                            x       y       z     vdW  Elec       q    Type
REMARK                         _______ _______ _______ _____ _____    ______ ____
ROOT
ATOM      1  C   UNL     1       4.948   4.616  17.482  0.00  0.00    +0.000 C 
ENDROOT
BRANCH   1   2
ATOM      2  C   UNL     1       5.738   4.486  16.190  0.00  0.00    +0.000 A 
ATOM      3  N   UNL     1       6.755   5.219  15.762  0.00  0.00    +0.000 NA
ATOM      4  C   UNL     1       6.927   4.870  14.431  0.00  0.00    +0.000 A 
ATOM      5  C   UNL     1       7.802   5.378  13.455  0.00  0.00    +0.000 A 
ATOM      6  C   UNL     1       7.712   4.887  12.141  0.00  0.00    +0.000 A 
ATOM      7  C   UNL     1       6.772   3.912  11.801  0.00  0.00    +0.000 A 
ATOM      8  C   UNL     1       5.909   3.378  12.763  0.00  0.00    +0.000 A 
ATOM      9  C   UNL     1       6.027   3.878  14.063  0.00  0.00    +0.000 A 
ATOM     10  N   UNL     1       5.357   3.588  15.218  0.00  0.00    +0.000 N 
ATOM     11  H   UNL     1       4.611   2.914  15.297  0.00  0.00    +0.000 HD
ENDBRANCH   1   2
BRANCH   1  14
ATOM     12  O   UNL     1       5.261   7.404  17.813  0.00  0.00    +0.000 OA
ATOM     13  C   UNL     1       4.145   6.969  17.531  0.00  0.00    +0.000 C 
ATOM     14  N   UNL     1       3.901   5.626  17.339  0.00  0.00    +0.000 N 
ATOM     15  H   UNL     1       2.980   5.297  17.069  0.00  0.00    +0.000 HD
BRANCH  13  16
ATOM     16  C   UNL     1       2.956   7.895  17.339  0.00  0.00    +0.000 C 
BRANCH  16  17
ATOM     17  C   UNL     1       2.159   8.280  18.569  0.00  0.00    +0.000 A 
ATOM     18  C   UNL     1       1.333   9.408  18.638  0.00  0.00    +0.000 A 
ATOM     19  C   UNL     1       0.608   9.693  19.802  0.00  0.00    +0.000 A 
ATOM     20  C   UNL     1       0.681   8.845  20.906  0.00  0.00    +0.000 A 
ATOM     21  C   UNL     1       1.473   7.703  20.844  0.00  0.00    +0.000 A 
ATOM     22  C   UNL     1       2.202   7.421  19.684  0.00  0.00    +0.000 A 
ENDBRANCH  16  17
ENDBRANCH  13  16
ENDBRANCH   1  14
BRANCH   1  23
ATOM     23  C   UNL     1       4.415   3.227  17.944  0.00  0.00    +0.000 C 
BRANCH  23  24
ATOM     24  C   UNL     1       3.159   3.167  18.794  0.00  0.00    +0.000 A 
ATOM     25  C   UNL     1       3.080   3.673  20.100  0.00  0.00    +0.000 A 
ATOM     26  C   UNL     1       1.884   3.654  20.814  0.00  0.00    +0.000 A 
ATOM     27  C   UNL     1       0.743   3.107  20.239  0.00  0.00    +0.000 A 
ATOM     28  C   UNL     1       0.808   2.561  18.959  0.00  0.00    +0.000 A 
ATOM     29  C   UNL     1       2.007   2.587  18.243  0.00  0.00    +0.000 A 
ENDBRANCH  23  24
ENDBRANCH   1  23
TORSDOF 6
ENDMDL
MODEL 3
REMARK VINA RESULT:      -9.0      3.955      4.953
REMARK  Name = 
REMARK  6 active torsions:
REMARK  status: ('A' for Active; 'I' for Inactive)
REMARK    1  A    between atoms: C_2  and  C_3
REMARK    2  A    between atoms: C_3  and  C_4
REMARK    3  A    between atoms: N_10  and  C_11
REMARK    4  A    between atoms: C_11  and  C_12
REMARK    5  A    between atoms: C_11  and  C_19
REMARK    6  A    between atoms: C_12  and  C_13
REMARK                            x       y       z     vdW  Elec       q    Type
REMARK                         _______ _______ _______ _____ _____    ______ ____
ROOT
ATOM      1  C   UNL     1       5.065   4.710  17.597  0.00  0.00    +0.000 C 
ENDROOT
BRANCH   1   2
ATOM      2  C   UNL     1       5.804   4.540  16.279  0.00  0.00    +0.000 A 
ATOM      3  N   UNL     1       6.820   5.243  15.801  0.00  0.00    +0.000 NA
ATOM      4  C   UNL     1       6.934   4.868  14.470  0.00  0.00    +0.000 A 
ATOM      5  C   UNL     1       7.783   5.340  13.454  0.00  0.00    +0.000 A 
ATOM      6  C   UNL     1       7.633   4.829  12.153  0.00  0.00    +0.000 A 
ATOM      7  C   UNL     1       6.660   3.870  11.866  0.00  0.00    +0.000 A 
ATOM      8  C   UNL     1       5.823   3.371  12.868  0.00  0.00    +0.000 A 
ATOM      9  C   UNL     1       6.000   3.891  14.153  0.00  0.00    +0.000 A 
ATOM     10  N   UNL     1       5.367   3.635  15.337  0.00  0.00    +0.000 N 
ATOM     11  H   UNL     1       4.610   2.979  15.456  0.00  0.00    +0.000 HD
ENDBRANCH   1   2
BRANCH   1  14
ATOM     12  O   UNL     1       5.314   7.520  17.732  0.00  0.00    +0.000 OA
ATOM     13  C   UNL     1       4.197   7.039  17.545  0.00  0.00    +0.000 C 
ATOM     14  N   UNL     1       3.983   5.681  17.452  0.00  0.00    +0.000 N 
ATOM     15  H   UNL     1       3.057   5.312  17.258  0.00  0.00    +0.000 HD
BRANCH  13  16
ATOM     16  C   UNL     1       2.972   7.920  17.365  0.00  0.00    +0.000 C 
BRANCH  16  17
ATOM     17  C   UNL     1       2.143   8.231  18.595  0.00  0.00    +0.000 A 
ATOM     18  C   UNL     1       2.158   7.455  19.759  0.00  0.00    +0.000 A 
ATOM     19  C   UNL     1       1.381   7.813  20.868  0.00  0.00    +0.000 A 
ATOM     20  C   UNL     1       0.594   8.964  20.836  0.00  0.00    +0.000 A 
ATOM     21  C   UNL     1       0.591   9.764  19.698  0.00  0.00    +0.000 A 
ATOM     22  C   UNL     1       1.362   9.403  18.589  0.00  0.00    +0.000 A 
ENDBRANCH  16  17
ENDBRANCH  13  16
ENDBRANCH   1  14
BRANCH   1  23
ATOM     23  C   UNL     1       4.595   3.329  18.147  0.00  0.00    +0.000 C 
BRANCH  23  24
ATOM     24  C   UNL     1       3.227   3.223  18.795  0.00  0.00    +0.000 A 
ATOM     25  C   UNL     1       2.110   2.658  18.162  0.00  0.00    +0.000 A 
ATOM     26  C   UNL     1       0.892   2.522  18.825  0.00  0.00    +0.000 A 
ATOM     27  C   UNL     1       0.764   2.970  20.135  0.00  0.00    +0.000 A 
ATOM     28  C   UNL     1       1.848   3.572  20.769  0.00  0.00    +0.000 A 
ATOM     29  C   UNL     1       3.070   3.701  20.104  0.00  0.00    +0.000 A 
ENDBRANCH  23  24
ENDBRANCH   1  23
TORSDOF 6
ENDMDL
MODEL 4
REMARK VINA RESULT:      -8.9      0.823      1.820
REMARK  Name = 
REMARK  6 active torsions:
REMARK  status: ('A' for Active; 'I' for Inactive)
REMARK    1  A    between atoms: C_2  and  C_3
REMARK    2  A    between atoms: C_3  and  C_4
REMARK    3  A    between atoms: N_10  and  C_11
REMARK    4  A    between atoms: C_11  and  C_12
REMARK    5  A    between atoms: C_11  and  C_19
REMARK    6  A    between atoms: C_12  and  C_13
REMARK                            x       y       z     vdW  Elec       q    Type
REMARK                         _______ _______ _______ _____ _____    ______ ____
ROOT
ATOM      1  C   UNL     1       7.271   5.970  17.126  0.00  0.00    +0.000 C 
ENDROOT
BRANCH   1   2
ATOM      2  C   UNL     1       6.816   5.457  15.770  0.00  0.00    +0.000 A 
ATOM      3  N   UNL     1       5.713   4.791  15.462  0.00  0.00    +0.000 NA
ATOM      4  C   UNL     1       5.911   4.328  14.169  0.00  0.00    +0.000 A 
ATOM      5  C   UNL     1       5.113   3.502  13.359  0.00  0.00    +0.000 A 
ATOM      6  C   UNL     1       5.596   3.119  12.095  0.00  0.00    +0.000 A 
ATOM      7  C   UNL     1       6.846   3.547  11.645  0.00  0.00    +0.000 A 
ATOM      8  C   UNL     1       7.643   4.389  12.426  0.00  0.00    +0.000 A 
ATOM      9  C   UNL     1       7.134   4.760  13.674  0.00  0.00    +0.000 A 
ATOM     10  N   UNL     1       7.638   5.550  14.669  0.00  0.00    +0.000 N 
ATOM     11  H   UNL     1       8.534   6.011  14.639  0.00  0.00    +0.000 HD
ENDBRANCH   1   2
BRANCH   1  14
ATOM     12  O   UNL     1       8.705   7.580  18.952  0.00  0.00    +0.000 OA
ATOM     13  C   UNL     1       8.060   8.134  18.063  0.00  0.00    +0.000 C 
ATOM     14  N   UNL     1       7.341   7.429  17.122  0.00  0.00    +0.000 N 
ATOM     15  H   UNL     1       6.849   7.910  16.375  0.00  0.00    +0.000 HD
BRANCH  13  16
ATOM     16  C   UNL     1       8.041   9.647  17.920  0.00  0.00    +0.000 C 
BRANCH  16  17
ATOM     17  C   UNL     1       9.148  10.431  18.594  0.00  0.00    +0.000 A 
ATOM     18  C   UNL     1       9.240  10.614  19.978  0.00  0.00    +0.000 A 
ATOM     19  C   UNL     1      10.304  11.335  20.535  0.00  0.00    +0.000 A 
ATOM     20  C   UNL     1      11.303  11.865  19.719  0.00  0.00    +0.000 A 
ATOM     21  C   UNL     1      11.243  11.666  18.343  0.00  0.00    +0.000 A 
ATOM     22  C   UNL     1      10.178  10.952  17.786  0.00  0.00    +0.000 A 
ENDBRANCH  16  17
ENDBRANCH  13  16
ENDBRANCH   1  14
BRANCH   1  23
ATOM     23  C   UNL     1       6.375   5.392  18.263  0.00  0.00    +0.000 C 
BRANCH  23  24
ATOM     24  C   UNL     1       4.877   5.634  18.213  0.00  0.00    +0.000 A 
ATOM     25  C   UNL     1       4.301   6.900  18.032  0.00  0.00    +0.000 A 
ATOM     26  C   UNL     1       2.921   7.059  17.925  0.00  0.00    +0.000 A 
ATOM     27  C   UNL     1       2.087   5.951  18.019  0.00  0.00    +0.000 A 
ATOM     28  C   UNL     1       2.635   4.690  18.240  0.00  0.00    +0.000 A 
ATOM     29  C   UNL     1       4.020   4.532  18.340  0.00  0.00    +0.000 A 
ENDBRANCH  23  24
ENDBRANCH   1  23
TORSDOF 6
ENDMDL
MODEL 5
REMARK VINA RESULT:      -8.8      4.439      7.549
REMARK  Name = 
REMARK  6 active torsions:
REMARK  status: ('A' for Active; 'I' for Inactive)
REMARK    1  A    between atoms: C_2  and  C_3
REMARK    2  A    between atoms: C_3  and  C_4
REMARK    3  A    between atoms: N_10  and  C_11
REMARK    4  A    between atoms: C_11  and  C_12
REMARK    5  A    between atoms: C_11  and  C_19
REMARK    6  A    between atoms: C_12  and  C_13
REMARK                            x       y       z     vdW  Elec       q    Type
REMARK                         _______ _______ _______ _____ _____    ______ ____
ROOT
ATOM      1  C   UNL     1       3.280   7.496  17.590  0.00  0.00    +0.000 C 
ENDROOT
BRANCH   1   2
ATOM      2  C   UNL     1       2.906   6.201  18.293  0.00  0.00    +0.000 A 
ATOM      3  N   UNL     1       2.232   5.164  17.818  0.00  0.00    +0.000 NA
ATOM      4  C   UNL     1       1.929   4.384  18.923  0.00  0.00    +0.000 A 
ATOM      5  C   UNL     1       1.167   3.208  19.035  0.00  0.00    +0.000 A 
ATOM      6  C   UNL     1       0.952   2.656  20.310  0.00  0.00    +0.000 A 
ATOM      7  C   UNL     1       1.482   3.260  21.452  0.00  0.00    +0.000 A 
ATOM      8  C   UNL     1       2.262   4.416  21.359  0.00  0.00    +0.000 A 
ATOM      9  C   UNL     1       2.466   4.937  20.078  0.00  0.00    +0.000 A 
ATOM     10  N   UNL     1       3.159   6.029  19.636  0.00  0.00    +0.000 N 
ATOM     11  H   UNL     1       3.659   6.673  20.229  0.00  0.00    +0.000 HD
ENDBRANCH   1   2
BRANCH   1  14
ATOM     12  O   UNL     1       0.748   8.713  17.293  0.00  0.00    +0.000 OA
ATOM     13  C   UNL     1       1.530   9.181  18.120  0.00  0.00    +0.000 C 
ATOM     14  N   UNL     1       2.781   8.646  18.341  0.00  0.00    +0.000 N 
ATOM     15  H   UNL     1       3.391   9.027  19.056  0.00  0.00    +0.000 HD
BRANCH  13  16
ATOM     16  C   UNL     1       1.153  10.371  18.986  0.00  0.00    +0.000 C 
BRANCH  16  17
ATOM     17  C   UNL     1       0.547  10.088  20.346  0.00  0.00    +0.000 A 
ATOM     18  C   UNL     1       0.508   8.816  20.929  0.00  0.00    +0.000 A 
ATOM     19  C   UNL     1      -0.050   8.631  22.200  0.00  0.00    +0.000 A 
ATOM     20  C   UNL     1      -0.557   9.715  22.915  0.00  0.00    +0.000 A 
ATOM     21  C   UNL     1      -0.498  10.991  22.363  0.00  0.00    +0.000 A 
ATOM     22  C   UNL     1       0.053  11.176  21.092  0.00  0.00    +0.000 A 
ENDBRANCH  16  17
ENDBRANCH  13  16
ENDBRANCH   1  14
BRANCH   1  23
ATOM     23  C   UNL     1       4.812   7.550  17.313  0.00  0.00    +0.000 C 
BRANCH  23  24
ATOM     24  C   UNL     1       5.494   6.335  16.710  0.00  0.00    +0.000 A 
ATOM     25  C   UNL     1       5.213   5.844  15.427  0.00  0.00    +0.000 A 
ATOM     26  C   UNL     1       5.915   4.765  14.893  0.00  0.00    +0.000 A 
ATOM     27  C   UNL     1       6.903   4.142  15.646  0.00  0.00    +0.000 A 
ATOM     28  C   UNL     1       7.171   4.586  16.939  0.00  0.00    +0.000 A 
ATOM     29  C   UNL     1       6.469   5.673  17.469  0.00  0.00    +0.000 A 
ENDBRANCH  23  24
ENDBRANCH   1  23
TORSDOF 6
ENDMDL
MODEL 6
REMARK VINA RESULT:      -8.8      6.591     10.215
REMARK  Name = 
REMARK  6 active torsions:
REMARK  status: ('A' for Active; 'I' for Inactive)
REMARK    1  A    between atoms: C_2  and  C_3
REMARK    2  A    between atoms: C_3  and  C_4
REMARK    3  A    between atoms: N_10  and  C_11
REMARK    4  A    between atoms: C_11  and  C_12
REMARK    5  A    between atoms: C_11  and  C_19
REMARK    6  A    between atoms: C_12  and  C_13
REMARK                            x       y       z     vdW  Elec       q    Type
REMARK                         _______ _______ _______ _____ _____    ______ ____
ROOT
ATOM      1  C   UNL     1       0.493  10.169  18.574  0.00  0.00    +0.000 C 
ENDROOT
BRANCH   1   2
ATOM      2  C   UNL     1       1.142  11.508  18.886  0.00  0.00    +0.000 A 
ATOM      3  N   UNL     1       0.808  12.397  19.810  0.00  0.00    +0.000 NA
ATOM      4  C   UNL     1       1.527  13.542  19.497  0.00  0.00    +0.000 A 
ATOM      5  C   UNL     1       1.515  14.820  20.082  0.00  0.00    +0.000 A 
ATOM      6  C   UNL     1       2.300  15.836  19.509  0.00  0.00    +0.000 A 
ATOM      7  C   UNL     1       3.081  15.588  18.378  0.00  0.00    +0.000 A 
ATOM      8  C   UNL     1       3.125  14.317  17.797  0.00  0.00    +0.000 A 
ATOM      9  C   UNL     1       2.340  13.325  18.393  0.00  0.00    +0.000 A 
ATOM     10  N   UNL     1       2.149  12.006  18.089  0.00  0.00    +0.000 N 
ATOM     11  H   UNL     1       2.584  11.524  17.317  0.00  0.00    +0.000 HD
ENDBRANCH   1   2
BRANCH   1  14
ATOM     12  O   UNL     1       2.383   8.562  17.222  0.00  0.00    +0.000 OA
ATOM     13  C   UNL     1       2.167   8.338  18.412  0.00  0.00    +0.000 C 
ATOM     14  N   UNL     1       1.272   9.078  19.155  0.00  0.00    +0.000 N 
ATOM     15  H   UNL     1       1.143   8.898  20.145  0.00  0.00    +0.000 HD
BRANCH  13  16
ATOM     16  C   UNL     1       2.906   7.241  19.161  0.00  0.00    +0.000 C 
BRANCH  16  17
ATOM     17  C   UNL     1       2.252   5.877  19.237  0.00  0.00    +0.000 A 
ATOM     18  C   UNL     1       1.722   5.334  20.413  0.00  0.00    +0.000 A 
ATOM     19  C   UNL     1       1.112   4.073  20.406  0.00  0.00    +0.000 A 
ATOM     20  C   UNL     1       1.003   3.347  19.221  0.00  0.00    +0.000 A 
ATOM     21  C   UNL     1       1.497   3.885  18.037  0.00  0.00    +0.000 A 
ATOM     22  C   UNL     1       2.112   5.141  18.045  0.00  0.00    +0.000 A 
ENDBRANCH  16  17
ENDBRANCH  13  16
ENDBRANCH   1  14
BRANCH   1  23
ATOM     23  C   UNL     1      -1.003  10.168  19.009  0.00  0.00    +0.000 C 
BRANCH  23  24
ATOM     24  C   UNL     1      -2.073  10.421  17.963  0.00  0.00    +0.000 A 
ATOM     25  C   UNL     1      -3.163  11.281  18.160  0.00  0.00    +0.000 A 
ATOM     26  C   UNL     1      -4.082  11.532  17.143  0.00  0.00    +0.000 A 
ATOM     27  C   UNL     1      -3.937  10.909  15.910  0.00  0.00    +0.000 A 
ATOM     28  C   UNL     1      -2.885  10.019  15.705  0.00  0.00    +0.000 A 
ATOM     29  C   UNL     1      -1.961   9.774  16.724  0.00  0.00    +0.000 A 
ENDBRANCH  23  24
ENDBRANCH   1  23
TORSDOF 6
ENDMDL
MODEL 7
REMARK VINA RESULT:      -8.6      4.358      7.460
REMARK  Name = 
REMARK  6 active torsions:
REMARK  status: ('A' for Active; 'I' for Inactive)
REMARK    1  A    between atoms: C_2  and  C_3
REMARK    2  A    between atoms: C_3  and  C_4
REMARK    3  A    between atoms: N_10  and  C_11
REMARK    4  A    between atoms: C_11  and  C_12
REMARK    5  A    between atoms: C_11  and  C_19
REMARK    6  A    between atoms: C_12  and  C_13
REMARK                            x       y       z     vdW  Elec       q    Type
REMARK                         _______ _______ _______ _____ _____    ______ ____
ROOT
ATOM      1  C   UNL     1       3.359   7.531  17.631  0.00  0.00    +0.000 C 
ENDROOT
BRANCH   1   2
ATOM      2  C   UNL     1       2.973   6.229  18.314  0.00  0.00    +0.000 A 
ATOM      3  N   UNL     1       2.299   5.201  17.821  0.00  0.00    +0.000 NA
ATOM      4  C   UNL     1       1.982   4.408  18.914  0.00  0.00    +0.000 A 
ATOM      5  C   UNL     1       1.214   3.234  19.004  0.00  0.00    +0.000 A 
ATOM      6  C   UNL     1       0.985   2.668  20.271  0.00  0.00    +0.000 A 
ATOM      7  C   UNL     1       1.508   3.255  21.424  0.00  0.00    +0.000 A 
ATOM      8  C   UNL     1       2.295   4.409  21.353  0.00  0.00    +0.000 A 
ATOM      9  C   UNL     1       2.512   4.945  20.080  0.00  0.00    +0.000 A 
ATOM     10  N   UNL     1       3.213   6.039  19.657  0.00  0.00    +0.000 N 
ATOM     11  H   UNL     1       3.711   6.673  20.263  0.00  0.00    +0.000 HD
ENDBRANCH   1   2
BRANCH   1  14
ATOM     12  O   UNL     1       0.921   8.880  17.164  0.00  0.00    +0.000 OA
ATOM     13  C   UNL     1       1.645   9.277  18.076  0.00  0.00    +0.000 C 
ATOM     14  N   UNL     1       2.846   8.673  18.384  0.00  0.00    +0.000 N 
ATOM     15  H   UNL     1       3.405   8.996  19.167  0.00  0.00    +0.000 HD
BRANCH  13  16
ATOM     16  C   UNL     1       1.245  10.449  18.957  0.00  0.00    +0.000 C 
BRANCH  16  17
ATOM     17  C   UNL     1       0.641  10.137  20.311  0.00  0.00    +0.000 A 
ATOM     18  C   UNL     1       0.141  11.113  21.182  0.00  0.00    +0.000 A 
ATOM     19  C   UNL     1      -0.423  10.751  22.411  0.00  0.00    +0.000 A 
ATOM     20  C   UNL     1      -0.516   9.409  22.779  0.00  0.00    +0.000 A 
ATOM     21  C   UNL     1      -0.053   8.425  21.912  0.00  0.00    +0.000 A 
ATOM     22  C   UNL     1       0.516   8.786  20.687  0.00  0.00    +0.000 A 
ENDBRANCH  16  17
ENDBRANCH  13  16
ENDBRANCH   1  14
BRANCH   1  23
ATOM     23  C   UNL     1       4.896   7.588  17.382  0.00  0.00    +0.000 C 
BRANCH  23  24
ATOM     24  C   UNL     1       5.580   6.399  16.731  0.00  0.00    +0.000 A 
ATOM     25  C   UNL     1       6.581   5.641  17.355  0.00  0.00    +0.000 A 
ATOM     26  C   UNL     1       7.130   4.518  16.740  0.00  0.00    +0.000 A 
ATOM     27  C   UNL     1       6.698   4.142  15.473  0.00  0.00    +0.000 A 
ATOM     28  C   UNL     1       5.734   4.904  14.817  0.00  0.00    +0.000 A 
ATOM     29  C   UNL     1       5.181   6.026  15.439  0.00  0.00    +0.000 A 
ENDBRANCH  23  24
ENDBRANCH   1  23
TORSDOF 6
ENDMDL
MODEL 8
REMARK VINA RESULT:      -8.6      4.829      7.175
REMARK  Name = 
REMARK  6 active torsions:
REMARK  status: ('A' for Active; 'I' for Inactive)
REMARK    1  A    between atoms: C_2  and  C_3
REMARK    2  A    between atoms: C_3  and  C_4
REMARK    3  A    between atoms: N_10  and  C_11
REMARK    4  A    between atoms: C_11  and  C_12
REMARK    5  A    between atoms: C_11  and  C_19
REMARK    6  A    between atoms: C_12  and  C_13
REMARK                            x       y       z     vdW  Elec       q    Type
REMARK                         _______ _______ _______ _____ _____    ______ ____
ROOT
ATOM      1  C   UNL     1       2.462   7.117  19.751  0.00  0.00    +0.000 C 
ENDROOT
BRANCH   1   2
ATOM      2  C   UNL     1       3.503   6.314  18.988  0.00  0.00    +0.000 A 
ATOM      3  N   UNL     1       4.568   5.680  19.454  0.00  0.00    +0.000 NA
ATOM      4  C   UNL     1       5.320   5.350  18.336  0.00  0.00    +0.000 A 
ATOM      5  C   UNL     1       6.581   4.739  18.227  0.00  0.00    +0.000 A 
ATOM      6  C   UNL     1       7.155   4.589  16.952  0.00  0.00    +0.000 A 
ATOM      7  C   UNL     1       6.489   5.035  15.808  0.00  0.00    +0.000 A 
ATOM      8  C   UNL     1       5.223   5.622  15.895  0.00  0.00    +0.000 A 
ATOM      9  C   UNL     1       4.675   5.751  17.174  0.00  0.00    +0.000 A 
ATOM     10  N   UNL     1       3.487   6.268  17.611  0.00  0.00    +0.000 N 
ATOM     11  H   UNL     1       2.781   6.671  17.015  0.00  0.00    +0.000 HD
ENDBRANCH   1   2
BRANCH   1  14
ATOM     12  O   UNL     1       1.047   9.387  20.661  0.00  0.00    +0.000 OA
ATOM     13  C   UNL     1       1.257   9.271  19.454  0.00  0.00    +0.000 C 
ATOM     14  N   UNL     1       1.949   8.204  18.922  0.00  0.00    +0.000 N 
ATOM     15  H   UNL     1       2.142   8.154  17.927  0.00  0.00    +0.000 HD
BRANCH  13  16
ATOM     16  C   UNL     1       0.794  10.325  18.462  0.00  0.00    +0.000 C 
BRANCH  16  17
ATOM     17  C   UNL     1      -0.698  10.556  18.327  0.00  0.00    +0.000 A 
ATOM     18  C   UNL     1      -1.396  11.552  19.020  0.00  0.00    +0.000 A 
ATOM     19  C   UNL     1      -2.773  11.722  18.831  0.00  0.00    +0.000 A 
ATOM     20  C   UNL     1      -3.468  10.915  17.931  0.00  0.00    +0.000 A 
ATOM     21  C   UNL     1      -2.784   9.941  17.211  0.00  0.00    +0.000 A 
ATOM     22  C   UNL     1      -1.411   9.767  17.404  0.00  0.00    +0.000 A 
ENDBRANCH  16  17
ENDBRANCH  13  16
ENDBRANCH   1  14
BRANCH   1  23
ATOM     23  C   UNL     1       1.350   6.183  20.315  0.00  0.00    +0.000 C 
BRANCH  23  24
ATOM     24  C   UNL     1       1.591   4.685  20.342  0.00  0.00    +0.000 A 
ATOM     25  C   UNL     1       2.169   4.011  21.428  0.00  0.00    +0.000 A 
ATOM     26  C   UNL     1       2.307   2.625  21.431  0.00  0.00    +0.000 A 
ATOM     27  C   UNL     1       1.886   1.885  20.332  0.00  0.00    +0.000 A 
ATOM     28  C   UNL     1       1.348   2.537  19.225  0.00  0.00    +0.000 A 
ATOM     29  C   UNL     1       1.204   3.927  19.227  0.00  0.00    +0.000 A 
ENDBRANCH  23  24
ENDBRANCH   1  23
TORSDOF 6
ENDMDL
MODEL 9
REMARK VINA RESULT:      -8.6      4.793      8.015
REMARK  Name = 
REMARK  6 active torsions:
REMARK  status: ('A' for Active; 'I' for Inactive)
REMARK    1  A    between atoms: C_2  and  C_3
REMARK    2  A    between atoms: C_3  and  C_4
REMARK    3  A    between atoms: N_10  and  C_11
REMARK    4  A    between atoms: C_11  and  C_12
REMARK    5  A    between atoms: C_11  and  C_19
REMARK    6  A    between atoms: C_12  and  C_13
REMARK                            x       y       z     vdW  Elec       q    Type
REMARK                         _______ _______ _______ _____ _____    ______ ____
ROOT
ATOM      1  C   UNL     1       2.826   7.296  18.014  0.00  0.00    +0.000 C 
ENDROOT
BRANCH   1   2
ATOM      2  C   UNL     1       2.646   5.911  18.614  0.00  0.00    +0.000 A 
ATOM      3  N   UNL     1       2.186   4.811  18.038  0.00  0.00    +0.000 NA
ATOM      4  C   UNL     1       1.965   3.916  19.075  0.00  0.00    +0.000 A 
ATOM      5  C   UNL     1       1.413   2.623  19.069  0.00  0.00    +0.000 A 
ATOM      6  C   UNL     1       1.231   1.957  20.293  0.00  0.00    +0.000 A 
ATOM      7  C   UNL     1       1.590   2.561  21.499  0.00  0.00    +0.000 A 
ATOM      8  C   UNL     1       2.163   3.836  21.524  0.00  0.00    +0.000 A 
ATOM      9  C   UNL     1       2.340   4.471  20.291  0.00  0.00    +0.000 A 
ATOM     10  N   UNL     1       2.855   5.692  19.958  0.00  0.00    +0.000 N 
ATOM     11  H   UNL     1       3.206   6.369  20.619  0.00  0.00    +0.000 HD
ENDBRANCH   1   2
BRANCH   1  14
ATOM     12  O   UNL     1       2.111   9.891  17.158  0.00  0.00    +0.000 OA
ATOM     13  C   UNL     1       1.789   9.539  18.292  0.00  0.00    +0.000 C 
ATOM     14  N   UNL     1       2.085   8.288  18.789  0.00  0.00    +0.000 N 
ATOM     15  H   UNL     1       1.773   8.008  19.714  0.00  0.00    +0.000 HD
BRANCH  13  16
ATOM     16  C   UNL     1       1.005  10.455  19.217  0.00  0.00    +0.000 C 
BRANCH  16  17
ATOM     17  C   UNL     1      -0.434  10.758  18.852  0.00  0.00    +0.000 A 
ATOM     18  C   UNL     1      -1.155  10.054  17.881  0.00  0.00    +0.000 A 
ATOM     19  C   UNL     1      -2.491  10.375  17.610  0.00  0.00    +0.000 A 
ATOM     20  C   UNL     1      -3.132  11.390  18.319  0.00  0.00    +0.000 A 
ATOM     21  C   UNL     1      -2.440  12.079  19.310  0.00  0.00    +0.000 A 
ATOM     22  C   UNL     1      -1.104  11.763  19.576  0.00  0.00    +0.000 A 
ENDBRANCH  16  17
ENDBRANCH  13  16
ENDBRANCH   1  14
BRANCH   1  23
ATOM     23  C   UNL     1       4.339   7.634  17.854  0.00  0.00    +0.000 C 
BRANCH  23  24
ATOM     24  C   UNL     1       5.262   6.599  17.237  0.00  0.00    +0.000 A 
ATOM     25  C   UNL     1       6.260   5.922  17.955  0.00  0.00    +0.000 A 
ATOM     26  C   UNL     1       7.036   4.931  17.358  0.00  0.00    +0.000 A 
ATOM     27  C   UNL     1       6.841   4.611  16.020  0.00  0.00    +0.000 A 
ATOM     28  C   UNL     1       5.884   5.298  15.277  0.00  0.00    +0.000 A 
ATOM     29  C   UNL     1       5.102   6.288  15.879  0.00  0.00    +0.000 A 
ENDBRANCH  23  24
ENDBRANCH   1  23
TORSDOF 6
ENDMDL
