MODEL 1
REMARK VINA RESULT:      -8.7      0.000      0.000
REMARK  Name = 
REMARK  4 active torsions:
REMARK  status: ('A' for Active; 'I' for Inactive)
REMARK    1  A    between atoms: C_1  and  N_2
REMARK    2  A    between atoms: C_4  and  C_5
REMARK    3  A    between atoms: N_7  and  C_8
REMARK    4  A    between atoms: C_11  and  C_12
REMARK                            x       y       z     vdW  Elec       q    Type
REMARK                         _______ _______ _______ _____ _____    ______ ____
ROOT
ATOM      1  C   UNL     1       2.238   7.707  18.540  0.00  0.00    +0.000 C 
ATOM      2  O   UNL     1       1.663   8.346  17.669  0.00  0.00    +0.000 OA
ATOM      3  N   UNL     1       2.115   7.887  19.913  0.00  0.00    +0.000 N 
ATOM      4  H   UNL     1       2.890   7.549  20.476  0.00  0.00    +0.000 HD
ENDROOT
BRANCH   1   8
ATOM      5  C   UNL     1       6.616   6.748  16.803  0.00  0.00    +0.000 C 
ATOM      6  N   UNL     1       5.365   6.209  17.305  0.00  0.00    +0.000 N 
ATOM      7  N   UNL     1       4.431   7.110  17.758  0.00  0.00    +0.000 NA
ATOM      8  C   UNL     1       3.258   6.664  18.106  0.00  0.00    +0.000 A 
ATOM      9  C   UNL     1       2.873   5.231  18.061  0.00  0.00    +0.000 A 
ATOM     10  C   UNL     1       1.605   4.743  18.407  0.00  0.00    +0.000 A 
ATOM     11  C   UNL     1       1.309   3.381  18.289  0.00  0.00    +0.000 A 
ATOM     12  C   UNL     1       2.284   2.489  17.857  0.00  0.00    +0.000 A 
ATOM     13  C   UNL     1       3.554   2.963  17.529  0.00  0.00    +0.000 A 
ATOM     14  C   UNL     1       3.841   4.335  17.624  0.00  0.00    +0.000 A 
ATOM     15  C   UNL     1       5.166   4.833  17.221  0.00  0.00    +0.000 A 
ATOM     16  O   UNL     1       6.016   4.043  16.820  0.00  0.00    +0.000 OA
ENDBRANCH   1   8
BRANCH   3  17
ATOM     17  C   UNL     1       1.190   8.794  20.478  0.00  0.00    +0.000 A 
ATOM     18  C   UNL     1       1.000  10.062  19.931  0.00  0.00    +0.000 A 
ATOM     19  C   UNL     1       0.226  11.021  20.585  0.00  0.00    +0.000 A 
ATOM     20  C   UNL     1      -0.423  10.743  21.793  0.00  0.00    +0.000 A 
ATOM     21  C   UNL     1      -0.320   9.420  22.273  0.00  0.00    +0.000 A 
ATOM     22  C   UNL     1       0.471   8.452  21.622  0.00  0.00    +0.000 A 
BRANCH  20  23
ATOM     23  C   UNL     1      -1.128  11.821  22.533  0.00  0.00    +0.000 A 
ATOM     24  C   UNL     1      -2.383  11.601  23.136  0.00  0.00    +0.000 A 
ATOM     25  C   UNL     1      -3.096  12.631  23.758  0.00  0.00    +0.000 A 
ATOM     26  C   UNL     1      -2.560  13.912  23.812  0.00  0.00    +0.000 A 
ATOM     27  C   UNL     1      -1.315  14.160  23.240  0.00  0.00    +0.000 A 
ATOM     28  C   UNL     1      -0.614  13.128  22.604  0.00  0.00    +0.000 A 
ENDBRANCH  20  23
ENDBRANCH   3  17
TORSDOF 3
ENDMDL
MODEL 2
REMARK VINA RESULT:      -8.7      1.218      1.862
REMARK  Name = 
REMARK  4 active torsions:
REMARK  status: ('A' for Active; 'I' for Inactive)
REMARK    1  A    between atoms: C_1  and  N_2
REMARK    2  A    between atoms: C_4  and  C_5
REMARK    3  A    between atoms: N_7  and  C_8
REMARK    4  A    between atoms: C_11  and  C_12
REMARK                            x       y       z     vdW  Elec       q    Type
REMARK                         _______ _______ _______ _____ _____    ______ ____
ROOT
ATOM      1  C   UNL     1       1.788   8.134  19.380  0.00  0.00    +0.000 C 
ATOM      2  O   UNL     1       1.273   8.901  18.576  0.00  0.00    +0.000 OA
ATOM      3  N   UNL     1       1.790   8.268  20.763  0.00  0.00    +0.000 N 
ATOM      4  H   UNL     1       2.532   7.778  21.255  0.00  0.00    +0.000 HD
ENDROOT
BRANCH   1   8
ATOM      5  C   UNL     1       5.039   6.499  16.241  0.00  0.00    +0.000 C 
ATOM      6  N   UNL     1       4.162   6.184  17.354  0.00  0.00    +0.000 N 
ATOM      7  N   UNL     1       3.462   7.225  17.914  0.00  0.00    +0.000 NA
ATOM      8  C   UNL     1       2.583   6.955  18.836  0.00  0.00    +0.000 A 
ATOM      9  C   UNL     1       2.303   5.586  19.334  0.00  0.00    +0.000 A 
ATOM     10  C   UNL     1       1.340   5.280  20.306  0.00  0.00    +0.000 A 
ATOM     11  C   UNL     1       1.105   3.954  20.685  0.00  0.00    +0.000 A 
ATOM     12  C   UNL     1       1.851   2.924  20.122  0.00  0.00    +0.000 A 
ATOM     13  C   UNL     1       2.824   3.221  19.169  0.00  0.00    +0.000 A 
ATOM     14  C   UNL     1       3.041   4.551  18.772  0.00  0.00    +0.000 A 
ATOM     15  C   UNL     1       4.030   4.847  17.723  0.00  0.00    +0.000 A 
ATOM     16  O   UNL     1       4.670   3.932  17.215  0.00  0.00    +0.000 OA
ENDBRANCH   1   8
BRANCH   3  17
ATOM     17  C   UNL     1       1.075   9.291  21.426  0.00  0.00    +0.000 A 
ATOM     18  C   UNL     1       0.262   9.005  22.523  0.00  0.00    +0.000 A 
ATOM     19  C   UNL     1      -0.580   9.975  23.067  0.00  0.00    +0.000 A 
ATOM     20  C   UNL     1      -0.619  11.282  22.566  0.00  0.00    +0.000 A 
ATOM     21  C   UNL     1       0.296  11.588  21.536  0.00  0.00    +0.000 A 
ATOM     22  C   UNL     1       1.139  10.607  20.975  0.00  0.00    +0.000 A 
BRANCH  20  23
ATOM     23  C   UNL     1      -1.619  12.254  23.076  0.00  0.00    +0.000 A 
ATOM     24  C   UNL     1      -1.301  13.617  23.248  0.00  0.00    +0.000 A 
ATOM     25  C   UNL     1      -2.206  14.522  23.811  0.00  0.00    +0.000 A 
ATOM     26  C   UNL     1      -3.469  14.091  24.200  0.00  0.00    +0.000 A 
ATOM     27  C   UNL     1      -3.820  12.754  24.030  0.00  0.00    +0.000 A 
ATOM     28  C   UNL     1      -2.904  11.849  23.481  0.00  0.00    +0.000 A 
ENDBRANCH  20  23
ENDBRANCH   3  17
TORSDOF 3
ENDMDL
MODEL 3
REMARK VINA RESULT:      -8.5      1.313      1.335
REMARK  Name = 
REMARK  4 active torsions:
REMARK  status: ('A' for Active; 'I' for Inactive)
REMARK    1  A    between atoms: C_1  and  N_2
REMARK    2  A    between atoms: C_4  and  C_5
REMARK    3  A    between atoms: N_7  and  C_8
REMARK    4  A    between atoms: C_11  and  C_12
REMARK                            x       y       z     vdW  Elec       q    Type
REMARK                         _______ _______ _______ _____ _____    ______ ____
ROOT
ATOM      1  C   UNL     1       1.891   7.929  19.311  0.00  0.00    +0.000 C 
ATOM      2  O   UNL     1       1.331   8.508  18.389  0.00  0.00    +0.000 OA
ATOM      3  N   UNL     1       1.755   8.208  20.665  0.00  0.00    +0.000 N 
ATOM      4  H   UNL     1       2.521   7.905  21.260  0.00  0.00    +0.000 HD
ENDROOT
BRANCH   1   8
ATOM      5  C   UNL     1       5.581   6.518  16.573  0.00  0.00    +0.000 C 
ATOM      6  N   UNL     1       4.693   6.191  17.673  0.00  0.00    +0.000 N 
ATOM      7  N   UNL     1       3.792   7.155  18.058  0.00  0.00    +0.000 NA
ATOM      8  C   UNL     1       2.907   6.849  18.964  0.00  0.00    +0.000 A 
ATOM      9  C   UNL     1       2.825   5.522  19.623  0.00  0.00    +0.000 A 
ATOM     10  C   UNL     1       1.861   5.173  20.579  0.00  0.00    +0.000 A 
ATOM     11  C   UNL     1       1.824   3.882  21.116  0.00  0.00    +0.000 A 
ATOM     12  C   UNL     1       2.768   2.937  20.729  0.00  0.00    +0.000 A 
ATOM     13  C   UNL     1       3.743   3.282  19.794  0.00  0.00    +0.000 A 
ATOM     14  C   UNL     1       3.762   4.571  19.237  0.00  0.00    +0.000 A 
ATOM     15  C   UNL     1       4.759   4.907  18.207  0.00  0.00    +0.000 A 
ATOM     16  O   UNL     1       5.577   4.062  17.855  0.00  0.00    +0.000 OA
ENDBRANCH   1   8
BRANCH   3  17
ATOM     17  C   UNL     1       0.832   9.160  21.153  0.00  0.00    +0.000 A 
ATOM     18  C   UNL     1       0.788  10.452  20.631  0.00  0.00    +0.000 A 
ATOM     19  C   UNL     1       0.008  11.444  21.226  0.00  0.00    +0.000 A 
ATOM     20  C   UNL     1      -0.792  11.179  22.344  0.00  0.00    +0.000 A 
ATOM     21  C   UNL     1      -0.830   9.840  22.787  0.00  0.00    +0.000 A 
ATOM     22  C   UNL     1      -0.033   8.838  22.196  0.00  0.00    +0.000 A 
BRANCH  20  23
ATOM     23  C   UNL     1      -1.506  12.282  23.036  0.00  0.00    +0.000 A 
ATOM     24  C   UNL     1      -2.824  12.124  23.510  0.00  0.00    +0.000 A 
ATOM     25  C   UNL     1      -3.537  13.182  24.083  0.00  0.00    +0.000 A 
ATOM     26  C   UNL     1      -2.939  14.430  24.217  0.00  0.00    +0.000 A 
ATOM     27  C   UNL     1      -1.633  14.616  23.773  0.00  0.00    +0.000 A 
ATOM     28  C   UNL     1      -0.931  13.557  23.185  0.00  0.00    +0.000 A 
ENDBRANCH  20  23
ENDBRANCH   3  17
TORSDOF 3
ENDMDL
MODEL 4
REMARK VINA RESULT:      -8.4      1.312      1.901
REMARK  Name = 
REMARK  4 active torsions:
REMARK  status: ('A' for Active; 'I' for Inactive)
REMARK    1  A    between atoms: C_1  and  N_2
REMARK    2  A    between atoms: C_4  and  C_5
REMARK    3  A    between atoms: N_7  and  C_8
REMARK    4  A    between atoms: C_11  and  C_12
REMARK                            x       y       z     vdW  Elec       q    Type
REMARK                         _______ _______ _______ _____ _____    ______ ____
ROOT
ATOM      1  C   UNL     1       1.904   7.192  20.258  0.00  0.00    +0.000 C 
ATOM      2  O   UNL     1       1.729   6.757  21.389  0.00  0.00    +0.000 OA
ATOM      3  N   UNL     1       1.496   8.430  19.778  0.00  0.00    +0.000 N 
ATOM      4  H   UNL     1       1.390   8.503  18.770  0.00  0.00    +0.000 HD
ENDROOT
BRANCH   1   8
ATOM      5  C   UNL     1       4.930   6.695  16.557  0.00  0.00    +0.000 C 
ATOM      6  N   UNL     1       4.028   6.036  17.483  0.00  0.00    +0.000 N 
ATOM      7  N   UNL     1       3.455   6.813  18.461  0.00  0.00    +0.000 NA
ATOM      8  C   UNL     1       2.554   6.274  19.232  0.00  0.00    +0.000 A 
ATOM      9  C   UNL     1       2.121   4.858  19.131  0.00  0.00    +0.000 A 
ATOM     10  C   UNL     1       1.134   4.274  19.937  0.00  0.00    +0.000 A 
ATOM     11  C   UNL     1       0.748   2.944  19.743  0.00  0.00    +0.000 A 
ATOM     12  C   UNL     1       1.368   2.174  18.765  0.00  0.00    +0.000 A 
ATOM     13  C   UNL     1       2.365   2.740  17.972  0.00  0.00    +0.000 A 
ATOM     14  C   UNL     1       2.731   4.084  18.152  0.00  0.00    +0.000 A 
ATOM     15  C   UNL     1       3.744   4.689  17.270  0.00  0.00    +0.000 A 
ATOM     16  O   UNL     1       4.272   4.009  16.396  0.00  0.00    +0.000 OA
ENDBRANCH   1   8
BRANCH   3  17
ATOM     17  C   UNL     1       0.905   9.408  20.610  0.00  0.00    +0.000 A 
ATOM     18  C   UNL     1       0.254   9.050  21.790  0.00  0.00    +0.000 A 
ATOM     19  C   UNL     1      -0.482   9.985  22.519  0.00  0.00    +0.000 A 
ATOM     20  C   UNL     1      -0.568  11.324  22.123  0.00  0.00    +0.000 A 
ATOM     21  C   UNL     1       0.193  11.697  20.995  0.00  0.00    +0.000 A 
ATOM     22  C   UNL     1       0.928  10.753  20.249  0.00  0.00    +0.000 A 
BRANCH  20  23
ATOM     23  C   UNL     1      -1.465  12.265  22.842  0.00  0.00    +0.000 A 
ATOM     24  C   UNL     1      -1.051  13.571  23.173  0.00  0.00    +0.000 A 
ATOM     25  C   UNL     1      -1.854  14.433  23.927  0.00  0.00    +0.000 A 
ATOM     26  C   UNL     1      -3.109  14.017  24.354  0.00  0.00    +0.000 A 
ATOM     27  C   UNL     1      -3.555  12.739  24.030  0.00  0.00    +0.000 A 
ATOM     28  C   UNL     1      -2.740  11.874  23.290  0.00  0.00    +0.000 A 
ENDBRANCH  20  23
ENDBRANCH   3  17
TORSDOF 3
ENDMDL
MODEL 5
REMARK VINA RESULT:      -8.3      0.946      1.362
REMARK  Name = 
REMARK  4 active torsions:
REMARK  status: ('A' for Active; 'I' for Inactive)
REMARK    1  A    between atoms: C_1  and  N_2
REMARK    2  A    between atoms: C_4  and  C_5
REMARK    3  A    between atoms: N_7  and  C_8
REMARK    4  A    between atoms: C_11  and  C_12
REMARK                            x       y       z     vdW  Elec       q    Type
REMARK                         _______ _______ _______ _____ _____    ______ ____
ROOT
ATOM      1  C   UNL     1       2.616   7.593  18.176  0.00  0.00    +0.000 C 
ATOM      2  O   UNL     1       2.386   8.470  17.354  0.00  0.00    +0.000 OA
ATOM      3  N   UNL     1       2.277   7.615  19.523  0.00  0.00    +0.000 N 
ATOM      4  H   UNL     1       2.827   7.013  20.129  0.00  0.00    +0.000 HD
ENDROOT
BRANCH   1   8
ATOM      5  C   UNL     1       6.513   5.884  15.942  0.00  0.00    +0.000 C 
ATOM      6  N   UNL     1       5.305   5.571  16.683  0.00  0.00    +0.000 N 
ATOM      7  N   UNL     1       4.569   6.630  17.157  0.00  0.00    +0.000 NA
ATOM      8  C   UNL     1       3.423   6.383  17.724  0.00  0.00    +0.000 A 
ATOM      9  C   UNL     1       2.870   5.018  17.908  0.00  0.00    +0.000 A 
ATOM     10  C   UNL     1       1.626   4.742  18.493  0.00  0.00    +0.000 A 
ATOM     11  C   UNL     1       1.156   3.428  18.583  0.00  0.00    +0.000 A 
ATOM     12  C   UNL     1       1.937   2.374  18.122  0.00  0.00    +0.000 A 
ATOM     13  C   UNL     1       3.185   2.638  17.557  0.00  0.00    +0.000 A 
ATOM     14  C   UNL     1       3.643   3.961  17.444  0.00  0.00    +0.000 A 
ATOM     15  C   UNL     1       4.935   4.233  16.794  0.00  0.00    +0.000 A 
ATOM     16  O   UNL     1       5.610   3.300  16.371  0.00  0.00    +0.000 OA
ENDBRANCH   1   8
BRANCH   3  17
ATOM     17  C   UNL     1       1.504   8.652  20.093  0.00  0.00    +0.000 A 
ATOM     18  C   UNL     1       1.063   8.579  21.414  0.00  0.00    +0.000 A 
ATOM     19  C   UNL     1       0.156   9.508  21.923  0.00  0.00    +0.000 A 
ATOM     20  C   UNL     1      -0.321  10.572  21.149  0.00  0.00    +0.000 A 
ATOM     21  C   UNL     1       0.225  10.703  19.855  0.00  0.00    +0.000 A 
ATOM     22  C   UNL     1       1.133   9.759  19.332  0.00  0.00    +0.000 A 
BRANCH  20  23
ATOM     23  C   UNL     1      -1.386  11.466  21.673  0.00  0.00    +0.000 A 
ATOM     24  C   UNL     1      -1.762  11.445  23.032  0.00  0.00    +0.000 A 
ATOM     25  C   UNL     1      -2.822  12.217  23.517  0.00  0.00    +0.000 A 
ATOM     26  C   UNL     1      -3.525  13.052  22.655  0.00  0.00    +0.000 A 
ATOM     27  C   UNL     1      -3.169  13.107  21.311  0.00  0.00    +0.000 A 
ATOM     28  C   UNL     1      -2.117  12.319  20.828  0.00  0.00    +0.000 A 
ENDBRANCH  20  23
ENDBRANCH   3  17
TORSDOF 3
ENDMDL
MODEL 6
REMARK VINA RESULT:      -8.3      2.012      2.296
REMARK  Name = 
REMARK  4 active torsions:
REMARK  status: ('A' for Active; 'I' for Inactive)
REMARK    1  A    between atoms: C_1  and  N_2
REMARK    2  A    between atoms: C_4  and  C_5
REMARK    3  A    between atoms: N_7  and  C_8
REMARK    4  A    between atoms: C_11  and  C_12
REMARK                            x       y       z     vdW  Elec       q    Type
REMARK                         _______ _______ _______ _____ _____    ______ ____
ROOT
ATOM      1  C   UNL     1       2.374   7.652  18.663  0.00  0.00    +0.000 C 
ATOM      2  O   UNL     1       2.028   7.576  19.835  0.00  0.00    +0.000 OA
ATOM      3  N   UNL     1       1.889   8.545  17.715  0.00  0.00    +0.000 N 
ATOM      4  H   UNL     1       1.997   8.263  16.745  0.00  0.00    +0.000 HD
ENDROOT
BRANCH   1   8
ATOM      5  C   UNL     1       6.703   6.752  16.779  0.00  0.00    +0.000 C 
ATOM      6  N   UNL     1       5.457   6.197  17.274  0.00  0.00    +0.000 N 
ATOM      7  N   UNL     1       4.543   7.079  17.800  0.00  0.00    +0.000 NA
ATOM      8  C   UNL     1       3.373   6.626  18.145  0.00  0.00    +0.000 A 
ATOM      9  C   UNL     1       2.969   5.203  18.022  0.00  0.00    +0.000 A 
ATOM     10  C   UNL     1       1.703   4.708  18.365  0.00  0.00    +0.000 A 
ATOM     11  C   UNL     1       1.387   3.360  18.171  0.00  0.00    +0.000 A 
ATOM     12  C   UNL     1       2.343   2.485  17.665  0.00  0.00    +0.000 A 
ATOM     13  C   UNL     1       3.611   2.964  17.340  0.00  0.00    +0.000 A 
ATOM     14  C   UNL     1       3.917   4.324  17.511  0.00  0.00    +0.000 A 
ATOM     15  C   UNL     1       5.240   4.831  17.111  0.00  0.00    +0.000 A 
ATOM     16  O   UNL     1       6.071   4.058  16.646  0.00  0.00    +0.000 OA
ENDBRANCH   1   8
BRANCH   3  17
ATOM     17  C   UNL     1       0.981   9.577  18.042  0.00  0.00    +0.000 A 
ATOM     18  C   UNL     1       1.413  10.743  18.671  0.00  0.00    +0.000 A 
ATOM     19  C   UNL     1       0.501  11.682  19.154  0.00  0.00    +0.000 A 
ATOM     20  C   UNL     1      -0.880  11.516  18.995  0.00  0.00    +0.000 A 
ATOM     21  C   UNL     1      -1.296  10.393  18.251  0.00  0.00    +0.000 A 
ATOM     22  C   UNL     1      -0.379   9.435  17.772  0.00  0.00    +0.000 A 
BRANCH  20  23
ATOM     23  C   UNL     1      -1.830  12.462  19.634  0.00  0.00    +0.000 A 
ATOM     24  C   UNL     1      -1.377  13.584  20.358  0.00  0.00    +0.000 A 
ATOM     25  C   UNL     1      -2.259  14.430  21.038  0.00  0.00    +0.000 A 
ATOM     26  C   UNL     1      -3.627  14.188  20.995  0.00  0.00    +0.000 A 
ATOM     27  C   UNL     1      -4.108  13.097  20.276  0.00  0.00    +0.000 A 
ATOM     28  C   UNL     1      -3.219  12.244  19.611  0.00  0.00    +0.000 A 
ENDBRANCH  20  23
ENDBRANCH   3  17
TORSDOF 3
ENDMDL
MODEL 7
REMARK VINA RESULT:      -8.3      1.674      1.980
REMARK  Name = 
REMARK  4 active torsions:
REMARK  status: ('A' for Active; 'I' for Inactive)
REMARK    1  A    between atoms: C_1  and  N_2
REMARK    2  A    between atoms: C_4  and  C_5
REMARK    3  A    between atoms: N_7  and  C_8
REMARK    4  A    between atoms: C_11  and  C_12
REMARK                            x       y       z     vdW  Elec       q    Type
REMARK                         _______ _______ _______ _____ _____    ______ ____
ROOT
ATOM      1  C   UNL     1       2.170   7.441  19.716  0.00  0.00    +0.000 C 
ATOM      2  O   UNL     1       1.883   8.030  18.682  0.00  0.00    +0.000 OA
ATOM      3  N   UNL     1       1.846   7.836  21.008  0.00  0.00    +0.000 N 
ATOM      4  H   UNL     1       2.435   7.464  21.747  0.00  0.00    +0.000 HD
ENDROOT
BRANCH   1   8
ATOM      5  C   UNL     1       6.427   5.511  18.596  0.00  0.00    +0.000 C 
ATOM      6  N   UNL     1       5.087   5.281  19.105  0.00  0.00    +0.000 N 
ATOM      7  N   UNL     1       4.281   6.383  19.267  0.00  0.00    +0.000 NA
ATOM      8  C   UNL     1       3.039   6.196  19.611  0.00  0.00    +0.000 A 
ATOM      9  C   UNL     1       2.444   4.859  19.859  0.00  0.00    +0.000 A 
ATOM     10  C   UNL     1       1.102   4.643  20.204  0.00  0.00    +0.000 A 
ATOM     11  C   UNL     1       0.608   3.346  20.373  0.00  0.00    +0.000 A 
ATOM     12  C   UNL     1       1.456   2.253  20.232  0.00  0.00    +0.000 A 
ATOM     13  C   UNL     1       2.796   2.458  19.909  0.00  0.00    +0.000 A 
ATOM     14  C   UNL     1       3.283   3.761  19.715  0.00  0.00    +0.000 A 
ATOM     15  C   UNL     1       4.686   3.965  19.317  0.00  0.00    +0.000 A 
ATOM     16  O   UNL     1       5.424   2.994  19.174  0.00  0.00    +0.000 OA
ENDBRANCH   1   8
BRANCH   3  17
ATOM     17  C   UNL     1       1.021   8.952  21.275  0.00  0.00    +0.000 A 
ATOM     18  C   UNL     1       0.576   9.225  22.568  0.00  0.00    +0.000 A 
ATOM     19  C   UNL     1      -0.377  10.216  22.808  0.00  0.00    +0.000 A 
ATOM     20  C   UNL     1      -0.897  11.002  21.773  0.00  0.00    +0.000 A 
ATOM     21  C   UNL     1      -0.349  10.797  20.490  0.00  0.00    +0.000 A 
ATOM     22  C   UNL     1       0.605   9.789  20.241  0.00  0.00    +0.000 A 
BRANCH  20  23
ATOM     23  C   UNL     1      -2.005  11.955  22.038  0.00  0.00    +0.000 A 
ATOM     24  C   UNL     1      -2.648  12.008  23.291  0.00  0.00    +0.000 A 
ATOM     25  C   UNL     1      -3.750  12.838  23.523  0.00  0.00    +0.000 A 
ATOM     26  C   UNL     1      -4.228  13.658  22.507  0.00  0.00    +0.000 A 
ATOM     27  C   UNL     1      -3.606  13.641  21.262  0.00  0.00    +0.000 A 
ATOM     28  C   UNL     1      -2.514  12.796  21.031  0.00  0.00    +0.000 A 
ENDBRANCH  20  23
ENDBRANCH   3  17
TORSDOF 3
ENDMDL
MODEL 8
REMARK VINA RESULT:      -8.3      3.337      9.729
REMARK  Name = 
REMARK  4 active torsions:
REMARK  status: ('A' for Active; 'I' for Inactive)
REMARK    1  A    between atoms: C_1  and  N_2
REMARK    2  A    between atoms: C_4  and  C_5
REMARK    3  A    between atoms: N_7  and  C_8
REMARK    4  A    between atoms: C_11  and  C_12
REMARK                            x       y       z     vdW  Elec       q    Type
REMARK                         _______ _______ _______ _____ _____    ______ ____
ROOT
ATOM      1  C   UNL     1       0.545  12.037  20.477  0.00  0.00    +0.000 C 
ATOM      2  O   UNL     1       1.590  12.082  21.113  0.00  0.00    +0.000 OA
ATOM      3  N   UNL     1       0.199  11.089  19.522  0.00  0.00    +0.000 N 
ATOM      4  H   UNL     1      -0.506  11.373  18.849  0.00  0.00    +0.000 HD
ENDROOT
BRANCH   1   8
ATOM      5  C   UNL     1      -0.844  16.504  19.370  0.00  0.00    +0.000 C 
ATOM      6  N   UNL     1      -1.137  15.292  20.113  0.00  0.00    +0.000 N 
ATOM      7  N   UNL     1      -0.288  14.225  19.932  0.00  0.00    +0.000 NA
ATOM      8  C   UNL     1      -0.458  13.167  20.670  0.00  0.00    +0.000 A 
ATOM      9  C   UNL     1      -1.531  13.033  21.687  0.00  0.00    +0.000 A 
ATOM     10  C   UNL     1      -1.707  11.909  22.507  0.00  0.00    +0.000 A 
ATOM     11  C   UNL     1      -2.715  11.883  23.476  0.00  0.00    +0.000 A 
ATOM     12  C   UNL     1      -3.577  12.966  23.615  0.00  0.00    +0.000 A 
ATOM     13  C   UNL     1      -3.422  14.080  22.791  0.00  0.00    +0.000 A 
ATOM     14  C   UNL     1      -2.393  14.113  21.836  0.00  0.00    +0.000 A 
ATOM     15  C   UNL     1      -2.201  15.317  21.011  0.00  0.00    +0.000 A 
ATOM     16  O   UNL     1      -2.952  16.277  21.153  0.00  0.00    +0.000 OA
ENDBRANCH   1   8
BRANCH   3  17
ATOM     17  C   UNL     1       1.007   9.963  19.246  0.00  0.00    +0.000 A 
ATOM     18  C   UNL     1       1.646   9.820  18.015  0.00  0.00    +0.000 A 
ATOM     19  C   UNL     1       2.296   8.633  17.674  0.00  0.00    +0.000 A 
ATOM     20  C   UNL     1       2.369   7.553  18.561  0.00  0.00    +0.000 A 
ATOM     21  C   UNL     1       1.823   7.755  19.846  0.00  0.00    +0.000 A 
ATOM     22  C   UNL     1       1.155   8.948  20.190  0.00  0.00    +0.000 A 
BRANCH  20  23
ATOM     23  C   UNL     1       2.948   6.257  18.122  0.00  0.00    +0.000 A 
ATOM     24  C   UNL     1       2.162   5.091  18.033  0.00  0.00    +0.000 A 
ATOM     25  C   UNL     1       2.716   3.849  17.707  0.00  0.00    +0.000 A 
ATOM     26  C   UNL     1       4.076   3.743  17.439  0.00  0.00    +0.000 A 
ATOM     27  C   UNL     1       4.878   4.879  17.503  0.00  0.00    +0.000 A 
ATOM     28  C   UNL     1       4.320   6.117  17.846  0.00  0.00    +0.000 A 
ENDBRANCH  20  23
ENDBRANCH   3  17
TORSDOF 3
ENDMDL
MODEL 9
REMARK VINA RESULT:      -8.2      1.573      2.869
REMARK  Name = 
REMARK  4 active torsions:
REMARK  status: ('A' for Active; 'I' for Inactive)
REMARK    1  A    between atoms: C_1  and  N_2
REMARK    2  A    between atoms: C_4  and  C_5
REMARK    3  A    between atoms: N_7  and  C_8
REMARK    4  A    between atoms: C_11  and  C_12
REMARK                            x       y       z     vdW  Elec       q    Type
REMARK                         _______ _______ _______ _____ _____    ______ ____
ROOT
ATOM      1  C   UNL     1       2.057   7.394  19.510  0.00  0.00    +0.000 C 
ATOM      2  O   UNL     1       2.234   8.310  18.718  0.00  0.00    +0.000 OA
ATOM      3  N   UNL     1       1.506   7.496  20.782  0.00  0.00    +0.000 N 
ATOM      4  H   UNL     1       1.748   6.753  21.431  0.00  0.00    +0.000 HD
ENDROOT
BRANCH   1   8
ATOM      5  C   UNL     1       2.134   2.675  20.421  0.00  0.00    +0.000 C 
ATOM      6  N   UNL     1       2.565   3.748  19.544  0.00  0.00    +0.000 N 
ATOM      7  N   UNL     1       2.098   5.011  19.822  0.00  0.00    +0.000 NA
ATOM      8  C   UNL     1       2.558   6.009  19.124  0.00  0.00    +0.000 A 
ATOM      9  C   UNL     1       3.547   5.863  18.027  0.00  0.00    +0.000 A 
ATOM     10  C   UNL     1       4.070   6.932  17.287  0.00  0.00    +0.000 A 
ATOM     11  C   UNL     1       5.038   6.713  16.302  0.00  0.00    +0.000 A 
ATOM     12  C   UNL     1       5.469   5.421  16.023  0.00  0.00    +0.000 A 
ATOM     13  C   UNL     1       4.940   4.348  16.740  0.00  0.00    +0.000 A 
ATOM     14  C   UNL     1       3.987   4.575  17.747  0.00  0.00    +0.000 A 
ATOM     15  C   UNL     1       3.478   3.442  18.538  0.00  0.00    +0.000 A 
ATOM     16  O   UNL     1       3.878   2.307  18.300  0.00  0.00    +0.000 OA
ENDBRANCH   1   8
BRANCH   3  17
ATOM     17  C   UNL     1       0.969   8.705  21.279  0.00  0.00    +0.000 A 
ATOM     18  C   UNL     1       0.628   8.841  22.625  0.00  0.00    +0.000 A 
ATOM     19  C   UNL     1      -0.064   9.962  23.083  0.00  0.00    +0.000 A 
ATOM     20  C   UNL     1      -0.413  11.012  22.226  0.00  0.00    +0.000 A 
ATOM     21  C   UNL     1       0.043  10.916  20.895  0.00  0.00    +0.000 A 
ATOM     22  C   UNL     1       0.733   9.780  20.425  0.00  0.00    +0.000 A 
BRANCH  20  23
ATOM     23  C   UNL     1      -1.264  12.128  22.713  0.00  0.00    +0.000 A 
ATOM     24  C   UNL     1      -0.782  13.451  22.772  0.00  0.00    +0.000 A 
ATOM     25  C   UNL     1      -1.545  14.493  23.310  0.00  0.00    +0.000 A 
ATOM     26  C   UNL     1      -2.826  14.241  23.788  0.00  0.00    +0.000 A 
ATOM     27  C   UNL     1      -3.337  12.948  23.730  0.00  0.00    +0.000 A 
ATOM     28  C   UNL     1      -2.563  11.906  23.205  0.00  0.00    +0.000 A 
ENDBRANCH  20  23
ENDBRANCH   3  17
TORSDOF 3
ENDMDL
