MODEL 1
REMARK VINA RESULT:      -8.4      0.000      0.000
REMARK  Name = 
REMARK  7 active torsions:
REMARK  status: ('A' for Active; 'I' for Inactive)
REMARK    1  A    between atoms: C_1  and  C_2
REMARK    2  A    between atoms: C_2  and  C_3
REMARK    3  A    between atoms: C_3  and  N_4
REMARK    4  A    between atoms: C_6  and  C_7
REMARK    5  A    between atoms: N_9  and  C_10
REMARK    6  A    between atoms: C_15  and  O_16
REMARK    7  A    between atoms: O_16  and  C_17
REMARK                            x       y       z     vdW  Elec       q    Type
REMARK                         _______ _______ _______ _____ _____    ______ ____
ROOT
ATOM      1  C   UNL     1       2.054   7.830  19.070  0.00  0.00    +0.000 C 
ATOM      2  O   UNL     1       2.011   8.187  20.242  0.00  0.00    +0.000 OA
ATOM      3  N   UNL     1       1.770   8.628  17.968  0.00  0.00    +0.000 N 
ATOM      4  H   UNL     1       1.582   8.176  17.079  0.00  0.00    +0.000 HD
ENDROOT
BRANCH   1   7
ATOM      5  N   UNL     1       1.832   4.146  19.003  0.00  0.00    +0.000 N 
ATOM      6  N   UNL     1       1.676   5.469  19.380  0.00  0.00    +0.000 NA
ATOM      7  C   UNL     1       2.407   6.372  18.794  0.00  0.00    +0.000 A 
ATOM      8  C   UNL     1       3.473   6.045  17.819  0.00  0.00    +0.000 A 
ATOM      9  C   UNL     1       4.395   6.980  17.326  0.00  0.00    +0.000 A 
ATOM     10  C   UNL     1       5.370   6.582  16.402  0.00  0.00    +0.000 A 
ATOM     11  C   UNL     1       5.433   5.263  15.960  0.00  0.00    +0.000 A 
ATOM     12  C   UNL     1       4.517   4.332  16.445  0.00  0.00    +0.000 A 
ATOM     13  C   UNL     1       3.550   4.728  17.383  0.00  0.00    +0.000 A 
ATOM     14  C   UNL     1       2.627   3.725  17.938  0.00  0.00    +0.000 A 
ATOM     15  O   UNL     1       2.630   2.585  17.480  0.00  0.00    +0.000 OA
BRANCH   5  16
ATOM     16  C   UNL     1       0.957   3.173  19.648  0.00  0.00    +0.000 C 
BRANCH  16  18
ATOM     17  C   UNL     1       2.629   2.634  21.486  0.00  0.00    +0.000 C 
ATOM     18  C   UNL     1       1.206   3.054  21.155  0.00  0.00    +0.000 C 
ENDBRANCH  16  18
ENDBRANCH   5  16
ENDBRANCH   1   7
BRANCH   3  19
ATOM     19  C   UNL     1       1.415   9.999  18.117  0.00  0.00    +0.000 A 
ATOM     20  C   UNL     1       2.390  10.993  18.248  0.00  0.00    +0.000 A 
ATOM     21  N   UNL     1       2.136  12.309  18.467  0.00  0.00    +0.000 NA
ATOM     22  C   UNL     1       0.850  12.649  18.641  0.00  0.00    +0.000 A 
ATOM     23  C   UNL     1      -0.192  11.748  18.541  0.00  0.00    +0.000 A 
ATOM     24  C   UNL     1       0.081  10.418  18.176  0.00  0.00    +0.000 A 
BRANCH  24  25
ATOM     25  O   UNL     1      -0.925   9.487  17.960  0.00  0.00    +0.000 OA
BRANCH  25  26
ATOM     26  C   UNL     1      -2.099   9.926  17.376  0.00  0.00    +0.000 A 
ATOM     27  C   UNL     1      -2.258  10.044  15.988  0.00  0.00    +0.000 A 
ATOM     28  C   UNL     1      -3.409  10.630  15.462  0.00  0.00    +0.000 A 
ATOM     29  C   UNL     1      -4.440  11.024  16.313  0.00  0.00    +0.000 A 
ATOM     30  C   UNL     1      -4.323  10.824  17.689  0.00  0.00    +0.000 A 
ATOM     31  C   UNL     1      -3.152  10.276  18.222  0.00  0.00    +0.000 A 
ENDBRANCH  25  26
ENDBRANCH  24  25
ENDBRANCH   3  19
TORSDOF 6
ENDMDL
MODEL 2
REMARK VINA RESULT:      -8.3      2.103      3.714
REMARK  Name = 
REMARK  7 active torsions:
REMARK  status: ('A' for Active; 'I' for Inactive)
REMARK    1  A    between atoms: C_1  and  C_2
REMARK    2  A    between atoms: C_2  and  C_3
REMARK    3  A    between atoms: C_3  and  N_4
REMARK    4  A    between atoms: C_6  and  C_7
REMARK    5  A    between atoms: N_9  and  C_10
REMARK    6  A    between atoms: C_15  and  O_16
REMARK    7  A    between atoms: O_16  and  C_17
REMARK                            x       y       z     vdW  Elec       q    Type
REMARK                         _______ _______ _______ _____ _____    ______ ____
ROOT
ATOM      1  C   UNL     1       2.001   6.937  19.868  0.00  0.00    +0.000 C 
ATOM      2  O   UNL     1       1.761   6.380  20.934  0.00  0.00    +0.000 OA
ATOM      3  N   UNL     1       1.704   8.259  19.559  0.00  0.00    +0.000 N 
ATOM      4  H   UNL     1       1.704   8.538  18.583  0.00  0.00    +0.000 HD
ENDROOT
BRANCH   1   7
ATOM      5  N   UNL     1       4.286   5.911  17.157  0.00  0.00    +0.000 N 
ATOM      6  N   UNL     1       3.539   6.684  18.028  0.00  0.00    +0.000 NA
ATOM      7  C   UNL     1       2.644   6.097  18.769  0.00  0.00    +0.000 A 
ATOM      8  C   UNL     1       2.312   4.658  18.653  0.00  0.00    +0.000 A 
ATOM      9  C   UNL     1       1.226   4.053  19.300  0.00  0.00    +0.000 A 
ATOM     10  C   UNL     1       0.987   2.682  19.135  0.00  0.00    +0.000 A 
ATOM     11  C   UNL     1       1.824   1.907  18.335  0.00  0.00    +0.000 A 
ATOM     12  C   UNL     1       2.906   2.505  17.692  0.00  0.00    +0.000 A 
ATOM     13  C   UNL     1       3.135   3.882  17.846  0.00  0.00    +0.000 A 
ATOM     14  C   UNL     1       4.242   4.518  17.113  0.00  0.00    +0.000 A 
ATOM     15  O   UNL     1       5.028   3.816  16.481  0.00  0.00    +0.000 OA
BRANCH   5  16
ATOM     16  C   UNL     1       5.313   6.600  16.383  0.00  0.00    +0.000 C 
BRANCH  16  18
ATOM     17  C   UNL     1       7.358   6.192  17.836  0.00  0.00    +0.000 C 
ATOM     18  C   UNL     1       6.403   7.223  17.260  0.00  0.00    +0.000 C 
ENDBRANCH  16  18
ENDBRANCH   5  16
ENDBRANCH   1   7
BRANCH   3  19
ATOM     19  C   UNL     1       1.090   9.123  20.509  0.00  0.00    +0.000 A 
ATOM     20  C   UNL     1       1.264   8.933  21.884  0.00  0.00    +0.000 A 
ATOM     21  N   UNL     1       0.657   9.664  22.854  0.00  0.00    +0.000 NA
ATOM     22  C   UNL     1      -0.227  10.585  22.444  0.00  0.00    +0.000 A 
ATOM     23  C   UNL     1      -0.482  10.851  21.112  0.00  0.00    +0.000 A 
ATOM     24  C   UNL     1       0.258  10.180  20.123  0.00  0.00    +0.000 A 
BRANCH  24  25
ATOM     25  O   UNL     1       0.125  10.470  18.773  0.00  0.00    +0.000 OA
BRANCH  25  26
ATOM     26  C   UNL     1      -1.153  10.621  18.266  0.00  0.00    +0.000 A 
ATOM     27  C   UNL     1      -2.042  11.600  18.731  0.00  0.00    +0.000 A 
ATOM     28  C   UNL     1      -3.364  11.612  18.288  0.00  0.00    +0.000 A 
ATOM     29  C   UNL     1      -3.782  10.701  17.319  0.00  0.00    +0.000 A 
ATOM     30  C   UNL     1      -2.874   9.783  16.788  0.00  0.00    +0.000 A 
ATOM     31  C   UNL     1      -1.559   9.741  17.262  0.00  0.00    +0.000 A 
ENDBRANCH  25  26
ENDBRANCH  24  25
ENDBRANCH   3  19
TORSDOF 6
ENDMDL
MODEL 3
REMARK VINA RESULT:      -7.9      1.665      3.502
REMARK  Name = 
REMARK  7 active torsions:
REMARK  status: ('A' for Active; 'I' for Inactive)
REMARK    1  A    between atoms: C_1  and  C_2
REMARK    2  A    between atoms: C_2  and  C_3
REMARK    3  A    between atoms: C_3  and  N_4
REMARK    4  A    between atoms: C_6  and  C_7
REMARK    5  A    between atoms: N_9  and  C_10
REMARK    6  A    between atoms: C_15  and  O_16
REMARK    7  A    between atoms: O_16  and  C_17
REMARK                            x       y       z     vdW  Elec       q    Type
REMARK                         _______ _______ _______ _____ _____    ______ ____
ROOT
ATOM      1  C   UNL     1       1.802   7.946  19.892  0.00  0.00    +0.000 C 
ATOM      2  O   UNL     1       1.644   7.782  21.097  0.00  0.00    +0.000 OA
ATOM      3  N   UNL     1       1.391   9.056  19.164  0.00  0.00    +0.000 N 
ATOM      4  H   UNL     1       1.334   8.978  18.154  0.00  0.00    +0.000 HD
ENDROOT
BRANCH   1   7
ATOM      5  N   UNL     1       4.079   6.174  17.591  0.00  0.00    +0.000 N 
ATOM      6  N   UNL     1       3.308   7.160  18.181  0.00  0.00    +0.000 NA
ATOM      7  C   UNL     1       2.467   6.816  19.113  0.00  0.00    +0.000 A 
ATOM      8  C   UNL     1       2.218   5.408  19.502  0.00  0.00    +0.000 A 
ATOM      9  C   UNL     1       1.185   5.006  20.360  0.00  0.00    +0.000 A 
ATOM     10  C   UNL     1       1.024   3.650  20.675  0.00  0.00    +0.000 A 
ATOM     11  C   UNL     1       1.886   2.691  20.148  0.00  0.00    +0.000 A 
ATOM     12  C   UNL     1       2.915   3.088  19.297  0.00  0.00    +0.000 A 
ATOM     13  C   UNL     1       3.066   4.445  18.969  0.00  0.00    +0.000 A 
ATOM     14  C   UNL     1       4.116   4.847  18.020  0.00  0.00    +0.000 A 
ATOM     15  O   UNL     1       4.926   4.012  17.628  0.00  0.00    +0.000 OA
BRANCH   5  16
ATOM     16  C   UNL     1       5.044   6.609  16.587  0.00  0.00    +0.000 C 
BRANCH  16  18
ATOM     17  C   UNL     1       7.378   6.390  17.569  0.00  0.00    +0.000 C 
ATOM     18  C   UNL     1       6.249   7.334  17.194  0.00  0.00    +0.000 C 
ENDBRANCH  16  18
ENDBRANCH   5  16
ENDBRANCH   1   7
BRANCH   3  19
ATOM     19  C   UNL     1       0.748  10.159  19.794  0.00  0.00    +0.000 A 
ATOM     20  C   UNL     1       1.468  11.081  20.561  0.00  0.00    +0.000 A 
ATOM     21  N   UNL     1       0.922  12.114  21.252  0.00  0.00    +0.000 NA
ATOM     22  C   UNL     1      -0.417  12.197  21.246  0.00  0.00    +0.000 A 
ATOM     23  C   UNL     1      -1.226  11.336  20.529  0.00  0.00    +0.000 A 
ATOM     24  C   UNL     1      -0.635  10.359  19.709  0.00  0.00    +0.000 A 
BRANCH  24  25
ATOM     25  O   UNL     1      -1.383   9.529  18.888  0.00  0.00    +0.000 OA
BRANCH  25  26
ATOM     26  C   UNL     1      -2.181  10.119  17.925  0.00  0.00    +0.000 A 
ATOM     27  C   UNL     1      -3.246  10.974  18.242  0.00  0.00    +0.000 A 
ATOM     28  C   UNL     1      -4.106  11.423  17.241  0.00  0.00    +0.000 A 
ATOM     29  C   UNL     1      -3.860  11.089  15.911  0.00  0.00    +0.000 A 
ATOM     30  C   UNL     1      -2.748  10.312  15.581  0.00  0.00    +0.000 A 
ATOM     31  C   UNL     1      -1.908   9.825  16.588  0.00  0.00    +0.000 A 
ENDBRANCH  25  26
ENDBRANCH  24  25
ENDBRANCH   3  19
TORSDOF 6
ENDMDL
MODEL 4
REMARK VINA RESULT:      -7.9      2.745      4.555
REMARK  Name = 
REMARK  7 active torsions:
REMARK  status: ('A' for Active; 'I' for Inactive)
REMARK    1  A    between atoms: C_1  and  C_2
REMARK    2  A    between atoms: C_2  and  C_3
REMARK    3  A    between atoms: C_3  and  N_4
REMARK    4  A    between atoms: C_6  and  C_7
REMARK    5  A    between atoms: N_9  and  C_10
REMARK    6  A    between atoms: C_15  and  O_16
REMARK    7  A    between atoms: O_16  and  C_17
REMARK                            x       y       z     vdW  Elec       q    Type
REMARK                         _______ _______ _______ _____ _____    ______ ____
ROOT
ATOM      1  C   UNL     1       2.005   6.961  19.979  0.00  0.00    +0.000 C 
ATOM      2  O   UNL     1       1.608   6.299  20.932  0.00  0.00    +0.000 OA
ATOM      3  N   UNL     1       1.803   8.324  19.798  0.00  0.00    +0.000 N 
ATOM      4  H   UNL     1       1.939   8.714  18.871  0.00  0.00    +0.000 HD
ENDROOT
BRANCH   1   7
ATOM      5  N   UNL     1       4.519   6.179  17.392  0.00  0.00    +0.000 N 
ATOM      6  N   UNL     1       3.692   6.873  18.257  0.00  0.00    +0.000 NA
ATOM      7  C   UNL     1       2.749   6.220  18.873  0.00  0.00    +0.000 A 
ATOM      8  C   UNL     1       2.449   4.792  18.614  0.00  0.00    +0.000 A 
ATOM      9  C   UNL     1       1.324   4.126  19.119  0.00  0.00    +0.000 A 
ATOM     10  C   UNL     1       1.121   2.771  18.825  0.00  0.00    +0.000 A 
ATOM     11  C   UNL     1       2.032   2.071  18.038  0.00  0.00    +0.000 A 
ATOM     12  C   UNL     1       3.153   2.729  17.536  0.00  0.00    +0.000 A 
ATOM     13  C   UNL     1       3.347   4.091  17.818  0.00  0.00    +0.000 A 
ATOM     14  C   UNL     1       4.500   4.794  17.233  0.00  0.00    +0.000 A 
ATOM     15  O   UNL     1       5.345   4.153  16.614  0.00  0.00    +0.000 OA
BRANCH   5  16
ATOM     16  C   UNL     1       5.594   6.939  16.763  0.00  0.00    +0.000 C 
BRANCH  16  18
ATOM     17  C   UNL     1       7.674   8.157  17.570  0.00  0.00    +0.000 C 
ATOM     18  C   UNL     1       6.919   6.839  17.525  0.00  0.00    +0.000 C 
ENDBRANCH  16  18
ENDBRANCH   5  16
ENDBRANCH   1   7
BRANCH   3  19
ATOM     19  C   UNL     1       1.109   9.106  20.765  0.00  0.00    +0.000 A 
ATOM     20  C   UNL     1       1.169   8.799  22.128  0.00  0.00    +0.000 A 
ATOM     21  N   UNL     1       0.481   9.446  23.103  0.00  0.00    +0.000 NA
ATOM     22  C   UNL     1      -0.371  10.401  22.701  0.00  0.00    +0.000 A 
ATOM     23  C   UNL     1      -0.515  10.780  21.380  0.00  0.00    +0.000 A 
ATOM     24  C   UNL     1       0.307  10.194  20.402  0.00  0.00    +0.000 A 
BRANCH  24  25
ATOM     25  O   UNL     1       0.285  10.598  19.075  0.00  0.00    +0.000 OA
BRANCH  25  26
ATOM     26  C   UNL     1       0.814  11.839  18.767  0.00  0.00    +0.000 A 
ATOM     27  C   UNL     1       2.171  12.032  18.472  0.00  0.00    +0.000 A 
ATOM     28  C   UNL     1       2.676  13.322  18.313  0.00  0.00    +0.000 A 
ATOM     29  C   UNL     1       1.816  14.417  18.366  0.00  0.00    +0.000 A 
ATOM     30  C   UNL     1       0.449  14.221  18.569  0.00  0.00    +0.000 A 
ATOM     31  C   UNL     1      -0.053  12.931  18.772  0.00  0.00    +0.000 A 
ENDBRANCH  25  26
ENDBRANCH  24  25
ENDBRANCH   3  19
TORSDOF 6
ENDMDL
MODEL 5
REMARK VINA RESULT:      -7.8      2.311      7.710
REMARK  Name = 
REMARK  7 active torsions:
REMARK  status: ('A' for Active; 'I' for Inactive)
REMARK    1  A    between atoms: C_1  and  C_2
REMARK    2  A    between atoms: C_2  and  C_3
REMARK    3  A    between atoms: C_3  and  N_4
REMARK    4  A    between atoms: C_6  and  C_7
REMARK    5  A    between atoms: N_9  and  C_10
REMARK    6  A    between atoms: C_15  and  O_16
REMARK    7  A    between atoms: O_16  and  C_17
REMARK                            x       y       z     vdW  Elec       q    Type
REMARK                         _______ _______ _______ _____ _____    ______ ____
ROOT
ATOM      1  C   UNL     1       1.433   9.252  18.226  0.00  0.00    +0.000 C 
ATOM      2  O   UNL     1       1.984   9.814  17.286  0.00  0.00    +0.000 OA
ATOM      3  N   UNL     1       1.753   7.993  18.719  0.00  0.00    +0.000 N 
ATOM      4  H   UNL     1       1.079   7.520  19.313  0.00  0.00    +0.000 HD
ENDROOT
BRANCH   1   7
ATOM      5  N   UNL     1      -0.503  11.252  20.650  0.00  0.00    +0.000 N 
ATOM      6  N   UNL     1       0.453  10.421  20.094  0.00  0.00    +0.000 NA
ATOM      7  C   UNL     1       0.263   9.976  18.886  0.00  0.00    +0.000 A 
ATOM      8  C   UNL     1      -0.975  10.230  18.113  0.00  0.00    +0.000 A 
ATOM      9  C   UNL     1      -1.279   9.604  16.896  0.00  0.00    +0.000 A 
ATOM     10  C   UNL     1      -2.475   9.907  16.232  0.00  0.00    +0.000 A 
ATOM     11  C   UNL     1      -3.370  10.832  16.766  0.00  0.00    +0.000 A 
ATOM     12  C   UNL     1      -3.070  11.457  17.974  0.00  0.00    +0.000 A 
ATOM     13  C   UNL     1      -1.878  11.141  18.647  0.00  0.00    +0.000 A 
ATOM     14  C   UNL     1      -1.599  11.759  19.953  0.00  0.00    +0.000 A 
ATOM     15  O   UNL     1      -2.347  12.638  20.376  0.00  0.00    +0.000 OA
BRANCH   5  16
ATOM     16  C   UNL     1      -0.226  11.769  21.986  0.00  0.00    +0.000 C 
BRANCH  16  18
ATOM     17  C   UNL     1      -0.304   9.616  23.336  0.00  0.00    +0.000 C 
ATOM     18  C   UNL     1      -0.934  10.977  23.089  0.00  0.00    +0.000 C 
ENDBRANCH  16  18
ENDBRANCH   5  16
ENDBRANCH   1   7
BRANCH   3  19
ATOM     19  C   UNL     1       2.818   7.228  18.164  0.00  0.00    +0.000 A 
ATOM     20  C   UNL     1       4.030   7.823  17.802  0.00  0.00    +0.000 A 
ATOM     21  N   UNL     1       5.064   7.182  17.201  0.00  0.00    +0.000 NA
ATOM     22  C   UNL     1       4.861   5.897  16.872  0.00  0.00    +0.000 A 
ATOM     23  C   UNL     1       3.700   5.212  17.175  0.00  0.00    +0.000 A 
ATOM     24  C   UNL     1       2.697   5.855  17.920  0.00  0.00    +0.000 A 
BRANCH  24  25
ATOM     25  O   UNL     1       1.551   5.197  18.345  0.00  0.00    +0.000 OA
BRANCH  25  26
ATOM     26  C   UNL     1       1.679   4.262  19.357  0.00  0.00    +0.000 A 
ATOM     27  C   UNL     1       1.341   2.913  19.188  0.00  0.00    +0.000 A 
ATOM     28  C   UNL     1       1.350   2.047  20.281  0.00  0.00    +0.000 A 
ATOM     29  C   UNL     1       1.775   2.504  21.528  0.00  0.00    +0.000 A 
ATOM     30  C   UNL     1       2.198   3.826  21.678  0.00  0.00    +0.000 A 
ATOM     31  C   UNL     1       2.149   4.707  20.593  0.00  0.00    +0.000 A 
ENDBRANCH  25  26
ENDBRANCH  24  25
ENDBRANCH   3  19
TORSDOF 6
ENDMDL
MODEL 6
REMARK VINA RESULT:      -7.7      2.932      8.042
REMARK  Name = 
REMARK  7 active torsions:
REMARK  status: ('A' for Active; 'I' for Inactive)
REMARK    1  A    between atoms: C_1  and  C_2
REMARK    2  A    between atoms: C_2  and  C_3
REMARK    3  A    between atoms: C_3  and  N_4
REMARK    4  A    between atoms: C_6  and  C_7
REMARK    5  A    between atoms: N_9  and  C_10
REMARK    6  A    between atoms: C_15  and  O_16
REMARK    7  A    between atoms: O_16  and  C_17
REMARK                            x       y       z     vdW  Elec       q    Type
REMARK                         _______ _______ _______ _____ _____    ______ ____
ROOT
ATOM      1  C   UNL     1       2.477   8.121  18.000  0.00  0.00    +0.000 C 
ATOM      2  O   UNL     1       1.628   7.432  17.444  0.00  0.00    +0.000 OA
ATOM      3  N   UNL     1       3.831   7.825  18.089  0.00  0.00    +0.000 N 
ATOM      4  H   UNL     1       4.388   8.315  18.782  0.00  0.00    +0.000 HD
ENDROOT
BRANCH   1   7
ATOM      5  N   UNL     1       1.659  11.674  18.577  0.00  0.00    +0.000 N 
ATOM      6  N   UNL     1       2.245  10.520  18.087  0.00  0.00    +0.000 NA
ATOM      7  C   UNL     1       2.000   9.394  18.693  0.00  0.00    +0.000 A 
ATOM      8  C   UNL     1       1.208   9.300  19.941  0.00  0.00    +0.000 A 
ATOM      9  C   UNL     1       1.096   8.132  20.708  0.00  0.00    +0.000 A 
ATOM     10  C   UNL     1       0.323   8.133  21.877  0.00  0.00    +0.000 A 
ATOM     11  C   UNL     1      -0.345   9.286  22.286  0.00  0.00    +0.000 A 
ATOM     12  C   UNL     1      -0.237  10.447  21.524  0.00  0.00    +0.000 A 
ATOM     13  C   UNL     1       0.551  10.450  20.362  0.00  0.00    +0.000 A 
ATOM     14  C   UNL     1       0.710  11.698  19.598  0.00  0.00    +0.000 A 
ATOM     15  O   UNL     1       0.051  12.685  19.913  0.00  0.00    +0.000 OA
BRANCH   5  16
ATOM     16  C   UNL     1       1.920  12.906  17.839  0.00  0.00    +0.000 C 
BRANCH  16  18
ATOM     17  C   UNL     1       2.868  15.208  18.352  0.00  0.00    +0.000 C 
ATOM     18  C   UNL     1       3.093  13.706  18.411  0.00  0.00    +0.000 C 
ENDBRANCH  16  18
ENDBRANCH   5  16
ENDBRANCH   1   7
BRANCH   3  19
ATOM     19  C   UNL     1       4.375   6.654  17.490  0.00  0.00    +0.000 A 
ATOM     20  C   UNL     1       4.802   6.649  16.158  0.00  0.00    +0.000 A 
ATOM     21  N   UNL     1       5.262   5.560  15.491  0.00  0.00    +0.000 NA
ATOM     22  C   UNL     1       5.228   4.394  16.155  0.00  0.00    +0.000 A 
ATOM     23  C   UNL     1       4.819   4.282  17.470  0.00  0.00    +0.000 A 
ATOM     24  C   UNL     1       4.478   5.443  18.185  0.00  0.00    +0.000 A 
BRANCH  24  25
ATOM     25  O   UNL     1       4.156   5.415  19.534  0.00  0.00    +0.000 OA
BRANCH  25  26
ATOM     26  C   UNL     1       3.152   4.556  19.942  0.00  0.00    +0.000 A 
ATOM     27  C   UNL     1       1.802   4.762  19.626  0.00  0.00    +0.000 A 
ATOM     28  C   UNL     1       0.819   3.947  20.185  0.00  0.00    +0.000 A 
ATOM     29  C   UNL     1       1.184   2.873  20.995  0.00  0.00    +0.000 A 
ATOM     30  C   UNL     1       2.533   2.609  21.238  0.00  0.00    +0.000 A 
ATOM     31  C   UNL     1       3.519   3.452  20.713  0.00  0.00    +0.000 A 
ENDBRANCH  25  26
ENDBRANCH  24  25
ENDBRANCH   3  19
TORSDOF 6
ENDMDL
MODEL 7
REMARK VINA RESULT:      -7.7      1.687      3.479
REMARK  Name = 
REMARK  7 active torsions:
REMARK  status: ('A' for Active; 'I' for Inactive)
REMARK    1  A    between atoms: C_1  and  C_2
REMARK    2  A    between atoms: C_2  and  C_3
REMARK    3  A    between atoms: C_3  and  N_4
REMARK    4  A    between atoms: C_6  and  C_7
REMARK    5  A    between atoms: N_9  and  C_10
REMARK    6  A    between atoms: C_15  and  O_16
REMARK    7  A    between atoms: O_16  and  C_17
REMARK                            x       y       z     vdW  Elec       q    Type
REMARK                         _______ _______ _______ _____ _____    ______ ____
ROOT
ATOM      1  C   UNL     1       1.764   7.791  20.006  0.00  0.00    +0.000 C 
ATOM      2  O   UNL     1       1.343   7.601  21.142  0.00  0.00    +0.000 OA
ATOM      3  N   UNL     1       1.523   8.917  19.229  0.00  0.00    +0.000 N 
ATOM      4  H   UNL     1       1.691   8.860  18.230  0.00  0.00    +0.000 HD
ENDROOT
BRANCH   1   7
ATOM      5  N   UNL     1       4.413   6.077  18.091  0.00  0.00    +0.000 N 
ATOM      6  N   UNL     1       3.518   7.034  18.534  0.00  0.00    +0.000 NA
ATOM      7  C   UNL     1       2.587   6.675  19.370  0.00  0.00    +0.000 A 
ATOM      8  C   UNL     1       2.374   5.271  19.792  0.00  0.00    +0.000 A 
ATOM      9  C   UNL     1       1.266   4.838  20.534  0.00  0.00    +0.000 A 
ATOM     10  C   UNL     1       1.146   3.488  20.891  0.00  0.00    +0.000 A 
ATOM     11  C   UNL     1       2.123   2.566  20.522  0.00  0.00    +0.000 A 
ATOM     12  C   UNL     1       3.226   2.994  19.786  0.00  0.00    +0.000 A 
ATOM     13  C   UNL     1       3.337   4.343  19.414  0.00  0.00    +0.000 A 
ATOM     14  C   UNL     1       4.473   4.774  18.584  0.00  0.00    +0.000 A 
ATOM     15  O   UNL     1       5.375   3.977  18.336  0.00  0.00    +0.000 OA
BRANCH   5  16
ATOM     16  C   UNL     1       5.470   6.533  17.195  0.00  0.00    +0.000 C 
BRANCH  16  18
ATOM     17  C   UNL     1       5.858   5.243  15.039  0.00  0.00    +0.000 C 
ATOM     18  C   UNL     1       5.106   6.377  15.715  0.00  0.00    +0.000 C 
ENDBRANCH  16  18
ENDBRANCH   5  16
ENDBRANCH   1   7
BRANCH   3  19
ATOM     19  C   UNL     1       0.754  10.008  19.723  0.00  0.00    +0.000 A 
ATOM     20  C   UNL     1       1.177  10.756  20.827  0.00  0.00    +0.000 A 
ATOM     21  N   UNL     1       0.470  11.761  21.404  0.00  0.00    +0.000 NA
ATOM     22  C   UNL     1      -0.756  11.990  20.910  0.00  0.00    +0.000 A 
ATOM     23  C   UNL     1      -1.276  11.307  19.827  0.00  0.00    +0.000 A 
ATOM     24  C   UNL     1      -0.475  10.367  19.157  0.00  0.00    +0.000 A 
BRANCH  24  25
ATOM     25  O   UNL     1      -0.898   9.719  18.006  0.00  0.00    +0.000 OA
BRANCH  25  26
ATOM     26  C   UNL     1      -2.094  10.121  17.438  0.00  0.00    +0.000 A 
ATOM     27  C   UNL     1      -2.160  10.826  16.229  0.00  0.00    +0.000 A 
ATOM     28  C   UNL     1      -3.379  11.333  15.779  0.00  0.00    +0.000 A 
ATOM     29  C   UNL     1      -4.547  11.066  16.491  0.00  0.00    +0.000 A 
ATOM     30  C   UNL     1      -4.497  10.286  17.647  0.00  0.00    +0.000 A 
ATOM     31  C   UNL     1      -3.270   9.814  18.123  0.00  0.00    +0.000 A 
ENDBRANCH  25  26
ENDBRANCH  24  25
ENDBRANCH   3  19
TORSDOF 6
ENDMDL
MODEL 8
REMARK VINA RESULT:      -7.6      2.292      7.932
REMARK  Name = 
REMARK  7 active torsions:
REMARK  status: ('A' for Active; 'I' for Inactive)
REMARK    1  A    between atoms: C_1  and  C_2
REMARK    2  A    between atoms: C_2  and  C_3
REMARK    3  A    between atoms: C_3  and  N_4
REMARK    4  A    between atoms: C_6  and  C_7
REMARK    5  A    between atoms: N_9  and  C_10
REMARK    6  A    between atoms: C_15  and  O_16
REMARK    7  A    between atoms: O_16  and  C_17
REMARK                            x       y       z     vdW  Elec       q    Type
REMARK                         _______ _______ _______ _____ _____    ______ ____
ROOT
ATOM      1  C   UNL     1       1.261   9.804  18.656  0.00  0.00    +0.000 C 
ATOM      2  O   UNL     1       2.055  10.469  18.001  0.00  0.00    +0.000 OA
ATOM      3  N   UNL     1       1.387   8.453  18.955  0.00  0.00    +0.000 N 
ATOM      4  H   UNL     1       0.564   7.949  19.270  0.00  0.00    +0.000 HD
ENDROOT
BRANCH   1   7
ATOM      5  N   UNL     1      -0.964  11.941  20.683  0.00  0.00    +0.000 N 
ATOM      6  N   UNL     1       0.086  11.128  20.294  0.00  0.00    +0.000 NA
ATOM      7  C   UNL     1       0.002  10.508  19.153  0.00  0.00    +0.000 A 
ATOM      8  C   UNL     1      -1.206  10.546  18.296  0.00  0.00    +0.000 A 
ATOM      9  C   UNL     1      -1.388   9.736  17.166  0.00  0.00    +0.000 A 
ATOM     10  C   UNL     1      -2.564   9.841  16.411  0.00  0.00    +0.000 A 
ATOM     11  C   UNL     1      -3.558  10.749  16.768  0.00  0.00    +0.000 A 
ATOM     12  C   UNL     1      -3.379  11.557  17.889  0.00  0.00    +0.000 A 
ATOM     13  C   UNL     1      -2.208  11.440  18.654  0.00  0.00    +0.000 A 
ATOM     14  C   UNL     1      -2.055  12.252  19.872  0.00  0.00    +0.000 A 
ATOM     15  O   UNL     1      -2.893  13.112  20.132  0.00  0.00    +0.000 OA
BRANCH   5  16
ATOM     16  C   UNL     1      -0.807  12.657  21.945  0.00  0.00    +0.000 C 
BRANCH  16  18
ATOM     17  C   UNL     1      -1.039  10.460  23.203  0.00  0.00    +0.000 C 
ATOM     18  C   UNL     1      -1.443  11.923  23.129  0.00  0.00    +0.000 C 
ENDBRANCH  16  18
ENDBRANCH   5  16
ENDBRANCH   1   7
BRANCH   3  19
ATOM     19  C   UNL     1       2.517   7.701  18.526  0.00  0.00    +0.000 A 
ATOM     20  C   UNL     1       3.245   8.065  17.388  0.00  0.00    +0.000 A 
ATOM     21  N   UNL     1       4.285   7.363  16.872  0.00  0.00    +0.000 NA
ATOM     22  C   UNL     1       4.576   6.198  17.470  0.00  0.00    +0.000 A 
ATOM     23  C   UNL     1       3.919   5.738  18.594  0.00  0.00    +0.000 A 
ATOM     24  C   UNL     1       2.937   6.545  19.195  0.00  0.00    +0.000 A 
BRANCH  24  25
ATOM     25  O   UNL     1       2.309   6.191  20.380  0.00  0.00    +0.000 OA
BRANCH  25  26
ATOM     26  C   UNL     1       1.962   4.864  20.558  0.00  0.00    +0.000 A 
ATOM     27  C   UNL     1       2.444   4.091  21.622  0.00  0.00    +0.000 A 
ATOM     28  C   UNL     1       2.179   2.722  21.670  0.00  0.00    +0.000 A 
ATOM     29  C   UNL     1       1.364   2.138  20.702  0.00  0.00    +0.000 A 
ATOM     30  C   UNL     1       0.807   2.924  19.692  0.00  0.00    +0.000 A 
ATOM     31  C   UNL     1       1.107   4.288  19.618  0.00  0.00    +0.000 A 
ENDBRANCH  25  26
ENDBRANCH  24  25
ENDBRANCH   3  19
TORSDOF 6
ENDMDL
MODEL 9
REMARK VINA RESULT:      -7.6      1.066      1.366
REMARK  Name = 
REMARK  7 active torsions:
REMARK  status: ('A' for Active; 'I' for Inactive)
REMARK    1  A    between atoms: C_1  and  C_2
REMARK    2  A    between atoms: C_2  and  C_3
REMARK    3  A    between atoms: C_3  and  N_4
REMARK    4  A    between atoms: C_6  and  C_7
REMARK    5  A    between atoms: N_9  and  C_10
REMARK    6  A    between atoms: C_15  and  O_16
REMARK    7  A    between atoms: O_16  and  C_17
REMARK                            x       y       z     vdW  Elec       q    Type
REMARK                         _______ _______ _______ _____ _____    ______ ____
ROOT
ATOM      1  C   UNL     1       2.178   8.594  18.117  0.00  0.00    +0.000 C 
ATOM      2  O   UNL     1       2.572   9.093  17.069  0.00  0.00    +0.000 OA
ATOM      3  N   UNL     1       1.475   9.255  19.117  0.00  0.00    +0.000 N 
ATOM      4  H   UNL     1       1.430   8.831  20.038  0.00  0.00    +0.000 HD
ENDROOT
BRANCH   1   7
ATOM      5  N   UNL     1       1.995   5.146  19.423  0.00  0.00    +0.000 N 
ATOM      6  N   UNL     1       1.853   6.517  19.299  0.00  0.00    +0.000 NA
ATOM      7  C   UNL     1       2.527   7.130  18.370  0.00  0.00    +0.000 A 
ATOM      8  C   UNL     1       3.519   6.450  17.505  0.00  0.00    +0.000 A 
ATOM      9  C   UNL     1       4.389   7.124  16.636  0.00  0.00    +0.000 A 
ATOM     10  C   UNL     1       5.295   6.398  15.851  0.00  0.00    +0.000 A 
ATOM     11  C   UNL     1       5.340   5.007  15.920  0.00  0.00    +0.000 A 
ATOM     12  C   UNL     1       4.474   4.335  16.781  0.00  0.00    +0.000 A 
ATOM     13  C   UNL     1       3.577   5.064  17.578  0.00  0.00    +0.000 A 
ATOM     14  C   UNL     1       2.711   4.350  18.530  0.00  0.00    +0.000 A 
ATOM     15  O   UNL     1       2.692   3.122  18.523  0.00  0.00    +0.000 OA
BRANCH   5  16
ATOM     16  C   UNL     1       1.183   4.492  20.444  0.00  0.00    +0.000 C 
BRANCH  16  18
ATOM     17  C   UNL     1       1.647   2.415  21.833  0.00  0.00    +0.000 C 
ATOM     18  C   UNL     1       2.022   3.862  21.559  0.00  0.00    +0.000 C 
ENDBRANCH  16  18
ENDBRANCH   5  16
ENDBRANCH   1   7
BRANCH   3  19
ATOM     19  C   UNL     1       1.113  10.626  18.986  0.00  0.00    +0.000 A 
ATOM     20  C   UNL     1       2.073  11.642  19.047  0.00  0.00    +0.000 A 
ATOM     21  N   UNL     1       1.803  12.972  19.005  0.00  0.00    +0.000 NA
ATOM     22  C   UNL     1       0.507  13.318  18.976  0.00  0.00    +0.000 A 
ATOM     23  C   UNL     1      -0.522  12.399  18.920  0.00  0.00    +0.000 A 
ATOM     24  C   UNL     1      -0.218  11.030  18.825  0.00  0.00    +0.000 A 
BRANCH  24  25
ATOM     25  O   UNL     1      -1.198  10.061  18.666  0.00  0.00    +0.000 OA
BRANCH  25  26
ATOM     26  C   UNL     1      -2.180  10.284  17.718  0.00  0.00    +0.000 A 
ATOM     27  C   UNL     1      -3.396  10.913  18.020  0.00  0.00    +0.000 A 
ATOM     28  C   UNL     1      -4.407  10.980  17.063  0.00  0.00    +0.000 A 
ATOM     29  C   UNL     1      -4.180  10.493  15.776  0.00  0.00    +0.000 A 
ATOM     30  C   UNL     1      -2.938   9.948  15.446  0.00  0.00    +0.000 A 
ATOM     31  C   UNL     1      -1.937   9.841  16.418  0.00  0.00    +0.000 A 
ENDBRANCH  25  26
ENDBRANCH  24  25
ENDBRANCH   3  19
TORSDOF 6
ENDMDL
