MODEL 1
REMARK VINA RESULT:      -8.7      0.000      0.000
REMARK  Name = 
REMARK  3 active torsions:
REMARK  status: ('A' for Active; 'I' for Inactive)
REMARK    1  A    between atoms: C_2  and  C_3
REMARK    2  A    between atoms: C_3  and  C_4
REMARK    3  A    between atoms: N_13  and  C_14
REMARK                            x       y       z     vdW  Elec       q    Type
REMARK                         _______ _______ _______ _____ _____    ______ ____
ROOT
ATOM      1  O   UNL     1       1.505   4.736  19.445  0.00  0.00    +0.000 OA
ATOM      2  C   UNL     1       2.684   5.078  19.363  0.00  0.00    +0.000 C 
ATOM      3  N   UNL     1       3.119   6.382  19.177  0.00  0.00    +0.000 N 
ATOM      4  H   UNL     1       4.107   6.506  18.956  0.00  0.00    +0.000 HD
ENDROOT
BRANCH   3   5
ATOM      5  C   UNL     1       2.322   7.547  19.194  0.00  0.00    +0.000 A 
ATOM      6  C   UNL     1       2.058   8.309  18.030  0.00  0.00    +0.000 A 
ATOM      7  C   UNL     1       1.219   9.429  18.059  0.00  0.00    +0.000 A 
ATOM      8  C   UNL     1       0.665   9.767  19.271  0.00  0.00    +0.000 A 
ATOM      9  C   UNL     1       0.921   9.037  20.418  0.00  0.00    +0.000 A 
ATOM     10  C   UNL     1       1.738   7.918  20.413  0.00  0.00    +0.000 A 
ATOM     11  C   UNL     1       0.178   9.669  21.507  0.00  0.00    +0.000 C 
ATOM     12  O   UNL     1       0.171   9.296  22.663  0.00  0.00    +0.000 OA
ATOM     13  N   UNL     1      -0.486  10.726  20.964  0.00  0.00    +0.000 N 
ATOM     14  C   UNL     1      -0.253  10.848  19.627  0.00  0.00    +0.000 C 
ATOM     15  O   UNL     1      -0.712  11.669  18.860  0.00  0.00    +0.000 OA
ATOM     16  H   UNL     1      -1.094  11.338  21.482  0.00  0.00    +0.000 HD
ENDBRANCH   3   5
BRANCH   2  17
ATOM     17  C   UNL     1       3.771   4.033  19.551  0.00  0.00    +0.000 C 
BRANCH  17  18
ATOM     18  C   UNL     1       5.068   4.354  18.907  0.00  0.00    +0.000 A 
ATOM     19  N   UNL     1       6.131   4.684  19.660  0.00  0.00    +0.000 NA
ATOM     20  O   UNL     1       7.172   4.887  18.769  0.00  0.00    +0.000 OA
ATOM     21  C   UNL     1       6.732   4.686  17.499  0.00  0.00    +0.000 A 
ATOM     22  C   UNL     1       7.490   4.801  16.337  0.00  0.00    +0.000 A 
ATOM     23  C   UNL     1       6.818   4.551  15.135  0.00  0.00    +0.000 A 
ATOM     24  C   UNL     1       5.464   4.202  15.122  0.00  0.00    +0.000 A 
ATOM     25  C   UNL     1       4.731   4.089  16.312  0.00  0.00    +0.000 A 
ATOM     26  C   UNL     1       5.391   4.344  17.526  0.00  0.00    +0.000 A 
ENDBRANCH  17  18
ENDBRANCH   2  17
TORSDOF 3
ENDMDL
MODEL 2
REMARK VINA RESULT:      -8.4      2.287      8.236
REMARK  Name = 
REMARK  3 active torsions:
REMARK  status: ('A' for Active; 'I' for Inactive)
REMARK    1  A    between atoms: C_2  and  C_3
REMARK    2  A    between atoms: C_3  and  C_4
REMARK    3  A    between atoms: N_13  and  C_14
REMARK                            x       y       z     vdW  Elec       q    Type
REMARK                         _______ _______ _______ _____ _____    ______ ____
ROOT
ATOM      1  O   UNL     1       1.445   8.572  19.893  0.00  0.00    +0.000 OA
ATOM      2  C   UNL     1       1.781   8.831  18.737  0.00  0.00    +0.000 C 
ATOM      3  N   UNL     1       2.408   7.942  17.877  0.00  0.00    +0.000 N 
ATOM      4  H   UNL     1       2.783   8.331  17.013  0.00  0.00    +0.000 HD
ENDROOT
BRANCH   3   5
ATOM      5  C   UNL     1       2.641   6.568  18.107  0.00  0.00    +0.000 A 
ATOM      6  C   UNL     1       1.651   5.579  17.891  0.00  0.00    +0.000 A 
ATOM      7  C   UNL     1       1.921   4.217  18.072  0.00  0.00    +0.000 A 
ATOM      8  C   UNL     1       3.190   3.877  18.477  0.00  0.00    +0.000 A 
ATOM      9  C   UNL     1       4.164   4.833  18.701  0.00  0.00    +0.000 A 
ATOM     10  C   UNL     1       3.926   6.186  18.518  0.00  0.00    +0.000 A 
ATOM     11  C   UNL     1       5.375   4.127  19.115  0.00  0.00    +0.000 C 
ATOM     12  O   UNL     1       6.434   4.652  19.398  0.00  0.00    +0.000 OA
ATOM     13  N   UNL     1       5.073   2.799  19.109  0.00  0.00    +0.000 N 
ATOM     14  C   UNL     1       3.785   2.566  18.731  0.00  0.00    +0.000 C 
ATOM     15  O   UNL     1       3.224   1.497  18.607  0.00  0.00    +0.000 OA
ATOM     16  H   UNL     1       5.728   2.070  19.339  0.00  0.00    +0.000 HD
ENDBRANCH   3   5
BRANCH   2  17
ATOM     17  C   UNL     1       1.428  10.188  18.152  0.00  0.00    +0.000 C 
BRANCH  17  18
ATOM     18  C   UNL     1       0.149  10.765  18.635  0.00  0.00    +0.000 A 
ATOM     19  N   UNL     1       0.142  11.599  19.688  0.00  0.00    +0.000 NA
ATOM     20  O   UNL     1      -1.180  11.977  19.856  0.00  0.00    +0.000 OA
ATOM     21  C   UNL     1      -1.952  11.370  18.917  0.00  0.00    +0.000 A 
ATOM     22  C   UNL     1      -3.330  11.504  18.771  0.00  0.00    +0.000 A 
ATOM     23  C   UNL     1      -3.914  10.773  17.730  0.00  0.00    +0.000 A 
ATOM     24  C   UNL     1      -3.141   9.964  16.891  0.00  0.00    +0.000 A 
ATOM     25  C   UNL     1      -1.753   9.857  17.062  0.00  0.00    +0.000 A 
ATOM     26  C   UNL     1      -1.154  10.579  18.108  0.00  0.00    +0.000 A 
ENDBRANCH  17  18
ENDBRANCH   2  17
TORSDOF 3
ENDMDL
MODEL 3
REMARK VINA RESULT:      -8.2      2.003      3.308
REMARK  Name = 
REMARK  3 active torsions:
REMARK  status: ('A' for Active; 'I' for Inactive)
REMARK    1  A    between atoms: C_2  and  C_3
REMARK    2  A    between atoms: C_3  and  C_4
REMARK    3  A    between atoms: N_13  and  C_14
REMARK                            x       y       z     vdW  Elec       q    Type
REMARK                         _______ _______ _______ _____ _____    ______ ____
ROOT
ATOM      1  O   UNL     1       5.627   4.934  18.790  0.00  0.00    +0.000 OA
ATOM      2  C   UNL     1       4.866   4.540  17.907  0.00  0.00    +0.000 C 
ATOM      3  N   UNL     1       3.529   4.891  17.798  0.00  0.00    +0.000 N 
ATOM      4  H   UNL     1       2.973   4.365  17.125  0.00  0.00    +0.000 HD
ENDROOT
BRANCH   3   5
ATOM      5  C   UNL     1       2.845   5.853  18.571  0.00  0.00    +0.000 A 
ATOM      6  C   UNL     1       2.376   5.588  19.880  0.00  0.00    +0.000 A 
ATOM      7  C   UNL     1       1.749   6.575  20.651  0.00  0.00    +0.000 A 
ATOM      8  C   UNL     1       1.600   7.817  20.080  0.00  0.00    +0.000 A 
ATOM      9  C   UNL     1       2.045   8.088  18.799  0.00  0.00    +0.000 A 
ATOM     10  C   UNL     1       2.679   7.132  18.020  0.00  0.00    +0.000 A 
ATOM     11  C   UNL     1       1.728   9.487  18.518  0.00  0.00    +0.000 C 
ATOM     12  O   UNL     1       1.973  10.069  17.480  0.00  0.00    +0.000 OA
ATOM     13  N   UNL     1       1.124   9.981  19.634  0.00  0.00    +0.000 N 
ATOM     14  C   UNL     1       1.017   9.045  20.618  0.00  0.00    +0.000 C 
ATOM     15  O   UNL     1       0.550   9.180  21.731  0.00  0.00    +0.000 OA
ATOM     16  H   UNL     1       0.810  10.932  19.732  0.00  0.00    +0.000 HD
ENDBRANCH   3   5
BRANCH   2  17
ATOM     17  C   UNL     1       5.419   3.666  16.794  0.00  0.00    +0.000 C 
BRANCH  17  18
ATOM     18  C   UNL     1       6.282   4.370  15.813  0.00  0.00    +0.000 A 
ATOM     19  N   UNL     1       7.126   5.329  16.226  0.00  0.00    +0.000 NA
ATOM     20  O   UNL     1       7.795   5.754  15.089  0.00  0.00    +0.000 OA
ATOM     21  C   UNL     1       7.348   5.059  14.010  0.00  0.00    +0.000 A 
ATOM     22  C   UNL     1       7.783   5.208  12.696  0.00  0.00    +0.000 A 
ATOM     23  C   UNL     1       7.171   4.383  11.746  0.00  0.00    +0.000 A 
ATOM     24  C   UNL     1       6.186   3.461  12.115  0.00  0.00    +0.000 A 
ATOM     25  C   UNL     1       5.776   3.331  13.450  0.00  0.00    +0.000 A 
ATOM     26  C   UNL     1       6.376   4.160  14.414  0.00  0.00    +0.000 A 
ENDBRANCH  17  18
ENDBRANCH   2  17
TORSDOF 3
ENDMDL
MODEL 4
REMARK VINA RESULT:      -8.2      1.847      8.053
REMARK  Name = 
REMARK  3 active torsions:
REMARK  status: ('A' for Active; 'I' for Inactive)
REMARK    1  A    between atoms: C_2  and  C_3
REMARK    2  A    between atoms: C_3  and  C_4
REMARK    3  A    between atoms: N_13  and  C_14
REMARK                            x       y       z     vdW  Elec       q    Type
REMARK                         _______ _______ _______ _____ _____    ______ ____
ROOT
ATOM      1  O   UNL     1       1.277   4.950  19.611  0.00  0.00    +0.000 OA
ATOM      2  C   UNL     1       1.948   5.782  20.220  0.00  0.00    +0.000 C 
ATOM      3  N   UNL     1       3.284   6.058  19.971  0.00  0.00    +0.000 N 
ATOM      4  H   UNL     1       3.764   6.643  20.654  0.00  0.00    +0.000 HD
ENDROOT
BRANCH   3   5
ATOM      5  C   UNL     1       4.064   5.556  18.906  0.00  0.00    +0.000 A 
ATOM      6  C   UNL     1       3.522   5.276  17.628  0.00  0.00    +0.000 A 
ATOM      7  C   UNL     1       4.324   4.832  16.571  0.00  0.00    +0.000 A 
ATOM      8  C   UNL     1       5.666   4.672  16.825  0.00  0.00    +0.000 A 
ATOM      9  C   UNL     1       6.208   4.934  18.070  0.00  0.00    +0.000 A 
ATOM     10  C   UNL     1       5.437   5.385  19.130  0.00  0.00    +0.000 A 
ATOM     11  C   UNL     1       7.641   4.661  17.984  0.00  0.00    +0.000 C 
ATOM     12  O   UNL     1       8.437   4.781  18.894  0.00  0.00    +0.000 OA
ATOM     13  N   UNL     1       7.886   4.264  16.705  0.00  0.00    +0.000 N 
ATOM     14  C   UNL     1       6.755   4.251  15.945  0.00  0.00    +0.000 C 
ATOM     15  O   UNL     1       6.647   3.967  14.769  0.00  0.00    +0.000 OA
ATOM     16  H   UNL     1       8.798   4.024  16.352  0.00  0.00    +0.000 HD
ENDBRANCH   3   5
BRANCH   2  17
ATOM     17  C   UNL     1       1.275   6.643  21.276  0.00  0.00    +0.000 C 
BRANCH  17  18
ATOM     18  C   UNL     1       1.056   8.058  20.886  0.00  0.00    +0.000 A 
ATOM     19  N   UNL     1       1.534   8.515  19.717  0.00  0.00    +0.000 NA
ATOM     20  O   UNL     1       1.136   9.840  19.643  0.00  0.00    +0.000 OA
ATOM     21  C   UNL     1       0.434  10.169  20.759  0.00  0.00    +0.000 A 
ATOM     22  C   UNL     1      -0.125  11.412  21.045  0.00  0.00    +0.000 A 
ATOM     23  C   UNL     1      -0.802  11.518  22.265  0.00  0.00    +0.000 A 
ATOM     24  C   UNL     1      -0.907  10.426  23.132  0.00  0.00    +0.000 A 
ATOM     25  C   UNL     1      -0.337   9.186  22.810  0.00  0.00    +0.000 A 
ATOM     26  C   UNL     1       0.353   9.066  21.592  0.00  0.00    +0.000 A 
ENDBRANCH  17  18
ENDBRANCH   2  17
TORSDOF 3
ENDMDL
MODEL 5
REMARK VINA RESULT:      -8.2      2.611      8.133
REMARK  Name = 
REMARK  3 active torsions:
REMARK  status: ('A' for Active; 'I' for Inactive)
REMARK    1  A    between atoms: C_2  and  C_3
REMARK    2  A    between atoms: C_3  and  C_4
REMARK    3  A    between atoms: N_13  and  C_14
REMARK                            x       y       z     vdW  Elec       q    Type
REMARK                         _______ _______ _______ _____ _____    ______ ____
ROOT
ATOM      1  O   UNL     1       1.757   8.297  19.705  0.00  0.00    +0.000 OA
ATOM      2  C   UNL     1       2.111   8.440  18.535  0.00  0.00    +0.000 C 
ATOM      3  N   UNL     1       2.878   7.531  17.823  0.00  0.00    +0.000 N 
ATOM      4  H   UNL     1       3.243   7.846  16.925  0.00  0.00    +0.000 HD
ENDROOT
BRANCH   3   5
ATOM      5  C   UNL     1       3.264   6.240  18.246  0.00  0.00    +0.000 A 
ATOM      6  C   UNL     1       4.537   5.965  18.799  0.00  0.00    +0.000 A 
ATOM      7  C   UNL     1       4.878   4.690  19.263  0.00  0.00    +0.000 A 
ATOM      8  C   UNL     1       3.924   3.706  19.153  0.00  0.00    +0.000 A 
ATOM      9  C   UNL     1       2.678   3.957  18.607  0.00  0.00    +0.000 A 
ATOM     10  C   UNL     1       2.313   5.213  18.151  0.00  0.00    +0.000 A 
ATOM     11  C   UNL     1       1.929   2.703  18.646  0.00  0.00    +0.000 C 
ATOM     12  O   UNL     1       0.792   2.549  18.245  0.00  0.00    +0.000 OA
ATOM     13  N   UNL     1       2.748   1.777  19.216  0.00  0.00    +0.000 N 
ATOM     14  C   UNL     1       3.959   2.301  19.556  0.00  0.00    +0.000 C 
ATOM     15  O   UNL     1       4.891   1.741  20.096  0.00  0.00    +0.000 OA
ATOM     16  H   UNL     1       2.486   0.820  19.387  0.00  0.00    +0.000 HD
ENDBRANCH   3   5
BRANCH   2  17
ATOM     17  C   UNL     1       1.625   9.653  17.760  0.00  0.00    +0.000 C 
BRANCH  17  18
ATOM     18  C   UNL     1       0.569  10.447  18.436  0.00  0.00    +0.000 A 
ATOM     19  N   UNL     1       0.890  11.268  19.450  0.00  0.00    +0.000 NA
ATOM     20  O   UNL     1      -0.297  11.873  19.831  0.00  0.00    +0.000 OA
ATOM     21  C   UNL     1      -1.314  11.414  19.055  0.00  0.00    +0.000 A 
ATOM     22  C   UNL     1      -2.651  11.790  19.141  0.00  0.00    +0.000 A 
ATOM     23  C   UNL     1      -3.525  11.176  18.237  0.00  0.00    +0.000 A 
ATOM     24  C   UNL     1      -3.062  10.245  17.302  0.00  0.00    +0.000 A 
ATOM     25  C   UNL     1      -1.706   9.893  17.238  0.00  0.00    +0.000 A 
ATOM     26  C   UNL     1      -0.818  10.496  18.145  0.00  0.00    +0.000 A 
ENDBRANCH  17  18
ENDBRANCH   2  17
TORSDOF 3
ENDMDL
MODEL 6
REMARK VINA RESULT:      -8.2      1.552      1.946
REMARK  Name = 
REMARK  3 active torsions:
REMARK  status: ('A' for Active; 'I' for Inactive)
REMARK    1  A    between atoms: C_2  and  C_3
REMARK    2  A    between atoms: C_3  and  C_4
REMARK    3  A    between atoms: N_13  and  C_14
REMARK                            x       y       z     vdW  Elec       q    Type
REMARK                         _______ _______ _______ _____ _____    ______ ____
ROOT
ATOM      1  O   UNL     1       1.089   5.250  20.631  0.00  0.00    +0.000 OA
ATOM      2  C   UNL     1       2.192   5.604  20.217  0.00  0.00    +0.000 C 
ATOM      3  N   UNL     1       2.530   6.906  19.878  0.00  0.00    +0.000 N 
ATOM      4  H   UNL     1       3.416   7.035  19.390  0.00  0.00    +0.000 HD
ENDROOT
BRANCH   3   5
ATOM      5  C   UNL     1       1.743   8.061  20.078  0.00  0.00    +0.000 A 
ATOM      6  C   UNL     1       1.294   8.874  19.010  0.00  0.00    +0.000 A 
ATOM      7  C   UNL     1       0.468   9.983  19.227  0.00  0.00    +0.000 A 
ATOM      8  C   UNL     1       0.113  10.257  20.527  0.00  0.00    +0.000 A 
ATOM      9  C   UNL     1       0.551   9.476  21.581  0.00  0.00    +0.000 A 
ATOM     10  C   UNL     1       1.360   8.367  21.392  0.00  0.00    +0.000 A 
ATOM     11  C   UNL     1      -0.009  10.049  22.804  0.00  0.00    +0.000 C 
ATOM     12  O   UNL     1       0.169   9.621  23.927  0.00  0.00    +0.000 OA
ATOM     13  N   UNL     1      -0.754  11.123  22.425  0.00  0.00    +0.000 N 
ATOM     14  C   UNL     1      -0.739  11.310  21.076  0.00  0.00    +0.000 C 
ATOM     15  O   UNL     1      -1.316  12.162  20.432  0.00  0.00    +0.000 OA
ATOM     16  H   UNL     1      -1.274  11.703  23.063  0.00  0.00    +0.000 HD
ENDBRANCH   3   5
BRANCH   2  17
ATOM     17  C   UNL     1       3.311   4.580  20.131  0.00  0.00    +0.000 C 
BRANCH  17  18
ATOM     18  C   UNL     1       3.751   4.246  18.754  0.00  0.00    +0.000 A 
ATOM     19  N   UNL     1       2.880   3.717  17.878  0.00  0.00    +0.000 NA
ATOM     20  O   UNL     1       3.588   3.557  16.698  0.00  0.00    +0.000 OA
ATOM     21  C   UNL     1       4.867   3.980  16.871  0.00  0.00    +0.000 A 
ATOM     22  C   UNL     1       5.874   3.972  15.910  0.00  0.00    +0.000 A 
ATOM     23  C   UNL     1       7.123   4.452  16.321  0.00  0.00    +0.000 A 
ATOM     24  C   UNL     1       7.327   4.917  17.624  0.00  0.00    +0.000 A 
ATOM     25  C   UNL     1       6.287   4.917  18.566  0.00  0.00    +0.000 A 
ATOM     26  C   UNL     1       5.030   4.430  18.169  0.00  0.00    +0.000 A 
ENDBRANCH  17  18
ENDBRANCH   2  17
TORSDOF 3
ENDMDL
MODEL 7
REMARK VINA RESULT:      -8.1      3.202      8.016
REMARK  Name = 
REMARK  3 active torsions:
REMARK  status: ('A' for Active; 'I' for Inactive)
REMARK    1  A    between atoms: C_2  and  C_3
REMARK    2  A    between atoms: C_3  and  C_4
REMARK    3  A    between atoms: N_13  and  C_14
REMARK                            x       y       z     vdW  Elec       q    Type
REMARK                         _______ _______ _______ _____ _____    ______ ____
ROOT
ATOM      1  O   UNL     1      -0.122   7.870  21.559  0.00  0.00    +0.000 OA
ATOM      2  C   UNL     1       0.974   8.389  21.346  0.00  0.00    +0.000 C 
ATOM      3  N   UNL     1       2.029   7.770  20.693  0.00  0.00    +0.000 N 
ATOM      4  H   UNL     1       2.931   8.244  20.733  0.00  0.00    +0.000 HD
ENDROOT
BRANCH   3   5
ATOM      5  C   UNL     1       1.999   6.519  20.039  0.00  0.00    +0.000 A 
ATOM      6  C   UNL     1       2.200   6.382  18.645  0.00  0.00    +0.000 A 
ATOM      7  C   UNL     1       2.222   5.127  18.025  0.00  0.00    +0.000 A 
ATOM      8  C   UNL     1       2.032   4.027  18.828  0.00  0.00    +0.000 A 
ATOM      9  C   UNL     1       1.826   4.147  20.191  0.00  0.00    +0.000 A 
ATOM     10  C   UNL     1       1.812   5.376  20.830  0.00  0.00    +0.000 A 
ATOM     11  C   UNL     1       1.664   2.795  20.724  0.00  0.00    +0.000 C 
ATOM     12  O   UNL     1       1.463   2.518  21.889  0.00  0.00    +0.000 OA
ATOM     13  N   UNL     1       1.790   1.943  19.669  0.00  0.00    +0.000 N 
ATOM     14  C   UNL     1       2.020   2.602  18.499  0.00  0.00    +0.000 C 
ATOM     15  O   UNL     1       2.196   2.128  17.396  0.00  0.00    +0.000 OA
ATOM     16  H   UNL     1       1.738   0.941  19.744  0.00  0.00    +0.000 HD
ENDBRANCH   3   5
BRANCH   2  17
ATOM     17  C   UNL     1       1.194   9.838  21.745  0.00  0.00    +0.000 C 
BRANCH  17  18
ATOM     18  C   UNL     1       0.079  10.758  21.407  0.00  0.00    +0.000 A 
ATOM     19  N   UNL     1      -0.361  11.644  22.315  0.00  0.00    +0.000 NA
ATOM     20  O   UNL     1      -1.366  12.359  21.683  0.00  0.00    +0.000 OA
ATOM     21  C   UNL     1      -1.526  11.898  20.415  0.00  0.00    +0.000 A 
ATOM     22  C   UNL     1      -2.442  12.367  19.477  0.00  0.00    +0.000 A 
ATOM     23  C   UNL     1      -2.429  11.732  18.231  0.00  0.00    +0.000 A 
ATOM     24  C   UNL     1      -1.535  10.691  17.958  0.00  0.00    +0.000 A 
ATOM     25  C   UNL     1      -0.621  10.247  18.924  0.00  0.00    +0.000 A 
ATOM     26  C   UNL     1      -0.628  10.871  20.183  0.00  0.00    +0.000 A 
ENDBRANCH  17  18
ENDBRANCH   2  17
TORSDOF 3
ENDMDL
MODEL 8
REMARK VINA RESULT:      -8.1      3.210      8.666
REMARK  Name = 
REMARK  3 active torsions:
REMARK  status: ('A' for Active; 'I' for Inactive)
REMARK    1  A    between atoms: C_2  and  C_3
REMARK    2  A    between atoms: C_3  and  C_4
REMARK    3  A    between atoms: N_13  and  C_14
REMARK                            x       y       z     vdW  Elec       q    Type
REMARK                         _______ _______ _______ _____ _____    ______ ____
ROOT
ATOM      1  O   UNL     1      -0.245   7.943  21.393  0.00  0.00    +0.000 OA
ATOM      2  C   UNL     1       0.881   8.429  21.283  0.00  0.00    +0.000 C 
ATOM      3  N   UNL     1       1.972   7.780  20.725  0.00  0.00    +0.000 N 
ATOM      4  H   UNL     1       2.880   8.226  20.848  0.00  0.00    +0.000 HD
ENDROOT
BRANCH   3   5
ATOM      5  C   UNL     1       1.963   6.532  20.064  0.00  0.00    +0.000 A 
ATOM      6  C   UNL     1       2.197   6.402  18.674  0.00  0.00    +0.000 A 
ATOM      7  C   UNL     1       2.240   5.150  18.049  0.00  0.00    +0.000 A 
ATOM      8  C   UNL     1       2.037   4.045  18.842  0.00  0.00    +0.000 A 
ATOM      9  C   UNL     1       1.799   4.157  20.201  0.00  0.00    +0.000 A 
ATOM     10  C   UNL     1       1.763   5.384  20.844  0.00  0.00    +0.000 A 
ATOM     11  C   UNL     1       1.631   2.802  20.723  0.00  0.00    +0.000 C 
ATOM     12  O   UNL     1       1.405   2.518  21.882  0.00  0.00    +0.000 OA
ATOM     13  N   UNL     1       1.786   1.956  19.668  0.00  0.00    +0.000 N 
ATOM     14  C   UNL     1       2.040   2.622  18.507  0.00  0.00    +0.000 C 
ATOM     15  O   UNL     1       2.244   2.154  17.405  0.00  0.00    +0.000 OA
ATOM     16  H   UNL     1       1.738   0.953  19.736  0.00  0.00    +0.000 HD
ENDBRANCH   3   5
BRANCH   2  17
ATOM     17  C   UNL     1       1.107   9.869  21.707  0.00  0.00    +0.000 C 
BRANCH  17  18
ATOM     18  C   UNL     1       0.124  10.843  21.171  0.00  0.00    +0.000 A 
ATOM     19  N   UNL     1       0.230  11.278  19.905  0.00  0.00    +0.000 NA
ATOM     20  O   UNL     1      -0.841  12.136  19.714  0.00  0.00    +0.000 OA
ATOM     21  C   UNL     1      -1.572  12.215  20.856  0.00  0.00    +0.000 A 
ATOM     22  C   UNL     1      -2.720  12.980  21.048  0.00  0.00    +0.000 A 
ATOM     23  C   UNL     1      -3.303  12.908  22.318  0.00  0.00    +0.000 A 
ATOM     24  C   UNL     1      -2.754  12.105  23.323  0.00  0.00    +0.000 A 
ATOM     25  C   UNL     1      -1.600  11.342  23.093  0.00  0.00    +0.000 A 
ATOM     26  C   UNL     1      -0.999  11.410  21.825  0.00  0.00    +0.000 A 
ENDBRANCH  17  18
ENDBRANCH   2  17
TORSDOF 3
ENDMDL
MODEL 9
REMARK VINA RESULT:      -8.1      6.675      7.968
REMARK  Name = 
REMARK  3 active torsions:
REMARK  status: ('A' for Active; 'I' for Inactive)
REMARK    1  A    between atoms: C_2  and  C_3
REMARK    2  A    between atoms: C_3  and  C_4
REMARK    3  A    between atoms: N_13  and  C_14
REMARK                            x       y       z     vdW  Elec       q    Type
REMARK                         _______ _______ _______ _____ _____    ______ ____
ROOT
ATOM      1  O   UNL     1       7.514   9.189  17.609  0.00  0.00    +0.000 OA
ATOM      2  C   UNL     1       8.291   8.614  18.371  0.00  0.00    +0.000 C 
ATOM      3  N   UNL     1       9.281   9.240  19.113  0.00  0.00    +0.000 N 
ATOM      4  H   UNL     1       9.961   8.634  19.570  0.00  0.00    +0.000 HD
ENDROOT
BRANCH   3   5
ATOM      5  C   UNL     1       9.483  10.632  19.244  0.00  0.00    +0.000 A 
ATOM      6  C   UNL     1       9.161  11.343  20.425  0.00  0.00    +0.000 A 
ATOM      7  C   UNL     1       9.422  12.712  20.553  0.00  0.00    +0.000 A 
ATOM      8  C   UNL     1      10.001  13.344  19.478  0.00  0.00    +0.000 A 
ATOM      9  C   UNL     1      10.314  12.664  18.315  0.00  0.00    +0.000 A 
ATOM     10  C   UNL     1      10.076  11.307  18.167  0.00  0.00    +0.000 A 
ATOM     11  C   UNL     1      10.907  13.633  17.395  0.00  0.00    +0.000 C 
ATOM     12  O   UNL     1      11.301  13.387  16.272  0.00  0.00    +0.000 OA
ATOM     13  N   UNL     1      10.930  14.827  18.048  0.00  0.00    +0.000 N 
ATOM     14  C   UNL     1      10.412  14.737  19.305  0.00  0.00    +0.000 C 
ATOM     15  O   UNL     1      10.312  15.614  20.138  0.00  0.00    +0.000 OA
ATOM     16  H   UNL     1      11.303  15.677  17.658  0.00  0.00    +0.000 HD
ENDBRANCH   3   5
BRANCH   2  17
ATOM     17  C   UNL     1       8.132   7.120  18.598  0.00  0.00    +0.000 C 
BRANCH  17  18
ATOM     18  C   UNL     1       7.257   6.427  17.620  0.00  0.00    +0.000 A 
ATOM     19  N   UNL     1       7.534   6.490  16.307  0.00  0.00    +0.000 NA
ATOM     20  O   UNL     1       6.562   5.724  15.683  0.00  0.00    +0.000 OA
ATOM     21  C   UNL     1       5.713   5.217  16.615  0.00  0.00    +0.000 A 
ATOM     22  C   UNL     1       4.611   4.402  16.368  0.00  0.00    +0.000 A 
ATOM     23  C   UNL     1       3.875   4.004  17.490  0.00  0.00    +0.000 A 
ATOM     24  C   UNL     1       4.244   4.405  18.778  0.00  0.00    +0.000 A 
ATOM     25  C   UNL     1       5.364   5.221  18.991  0.00  0.00    +0.000 A 
ATOM     26  C   UNL     1       6.108   5.636  17.873  0.00  0.00    +0.000 A 
ENDBRANCH  17  18
ENDBRANCH   2  17
TORSDOF 3
ENDMDL
