MODEL 1
REMARK VINA RESULT:      -8.6      0.000      0.000
REMARK  Name = 
REMARK  3 active torsions:
REMARK  status: ('A' for Active; 'I' for Inactive)
REMARK    1  A    between atoms: C_6  and  C_7
REMARK    2  A    between atoms: C_7  and  C_8
REMARK    3  A    between atoms: C_11  and  C_12
REMARK                            x       y       z     vdW  Elec       q    Type
REMARK                         _______ _______ _______ _____ _____    ______ ____
ROOT
ATOM      1  C   UNL     1       3.361   4.754  19.679  0.00  0.00    +0.000 A 
ATOM      2  N   UNL     1       2.544   4.636  20.734  0.00  0.00    +0.000 NA
ATOM      3  O   UNL     1       1.850   5.843  20.738  0.00  0.00    +0.000 OA
ATOM      4  C   UNL     1       2.324   6.591  19.689  0.00  0.00    +0.000 A 
ATOM      5  N   UNL     1       3.246   5.946  18.995  0.00  0.00    +0.000 NA
ENDROOT
BRANCH   4   6
ATOM      6  C   UNL     1       1.872   7.996  19.429  0.00  0.00    +0.000 A 
ATOM      7  N   UNL     1       2.114   8.598  18.250  0.00  0.00    +0.000 NA
ATOM      8  O   UNL     1       1.525   9.853  18.331  0.00  0.00    +0.000 OA
ATOM      9  C   UNL     1       0.966   9.986  19.551  0.00  0.00    +0.000 A 
ATOM     10  C   UNL     1       1.155   8.851  20.299  0.00  0.00    +0.000 A 
ATOM     11  C   UNL     1       0.688   8.744  21.704  0.00  0.00    +0.000 C 
ATOM     12  C   UNL     1      -0.288   9.896  22.053  0.00  0.00    +0.000 C 
ATOM     13  C   UNL     1       0.138  11.261  21.464  0.00  0.00    +0.000 C 
ATOM     14  C   UNL     1       0.256  11.223  19.927  0.00  0.00    +0.000 C 
ENDBRANCH   4   6
BRANCH   1  15
ATOM     15  C   UNL     1       4.442   3.770  19.409  0.00  0.00    +0.000 C 
BRANCH  15  21
ATOM     16  C   UNL     1       6.447   5.035  18.514  0.00  0.00    +0.000 A 
ATOM     17  C   UNL     1       7.262   5.476  17.468  0.00  0.00    +0.000 A 
ATOM     18  C   UNL     1       6.892   5.154  16.179  0.00  0.00    +0.000 A 
ATOM     19  C   UNL     1       5.741   4.434  15.907  0.00  0.00    +0.000 A 
ATOM     20  C   UNL     1       4.912   4.000  16.930  0.00  0.00    +0.000 A 
ATOM     21  C   UNL     1       5.273   4.289  18.260  0.00  0.00    +0.000 A 
ATOM     22  C   UNL     1       5.582   4.308  14.440  0.00  0.00    +0.000 C 
ATOM     23  C   UNL     1       6.987   4.733  14.006  0.00  0.00    +0.000 C 
ATOM     24  O   UNL     1       7.595   5.517  15.060  0.00  0.00    +0.000 OA
ENDBRANCH  15  21
ENDBRANCH   1  15
TORSDOF 3
ENDMDL
MODEL 2
REMARK VINA RESULT:      -8.6      2.930      8.239
REMARK  Name = 
REMARK  3 active torsions:
REMARK  status: ('A' for Active; 'I' for Inactive)
REMARK    1  A    between atoms: C_6  and  C_7
REMARK    2  A    between atoms: C_7  and  C_8
REMARK    3  A    between atoms: C_11  and  C_12
REMARK                            x       y       z     vdW  Elec       q    Type
REMARK                         _______ _______ _______ _____ _____    ______ ____
ROOT
ATOM      1  C   UNL     1       1.548   9.265  18.755  0.00  0.00    +0.000 A 
ATOM      2  N   UNL     1       2.025   9.651  17.565  0.00  0.00    +0.000 NA
ATOM      3  O   UNL     1       2.746   8.539  17.133  0.00  0.00    +0.000 OA
ATOM      4  C   UNL     1       2.651   7.584  18.115  0.00  0.00    +0.000 A 
ATOM      5  N   UNL     1       1.901   7.984  19.127  0.00  0.00    +0.000 NA
ENDROOT
BRANCH   4   6
ATOM      6  C   UNL     1       3.379   6.276  18.042  0.00  0.00    +0.000 A 
ATOM      7  N   UNL     1       4.722   6.230  17.982  0.00  0.00    +0.000 NA
ATOM      8  O   UNL     1       5.061   4.883  17.977  0.00  0.00    +0.000 OA
ATOM      9  C   UNL     1       3.926   4.157  18.011  0.00  0.00    +0.000 A 
ATOM     10  C   UNL     1       2.825   4.974  18.046  0.00  0.00    +0.000 A 
ATOM     11  C   UNL     1       1.441   4.437  18.034  0.00  0.00    +0.000 C 
ATOM     12  C   UNL     1       1.436   2.913  18.315  0.00  0.00    +0.000 C 
ATOM     13  C   UNL     1       2.584   2.155  17.608  0.00  0.00    +0.000 C 
ATOM     14  C   UNL     1       3.972   2.682  18.020  0.00  0.00    +0.000 C 
ENDBRANCH   4   6
BRANCH   1  15
ATOM     15  C   UNL     1       0.878  10.217  19.678  0.00  0.00    +0.000 C 
BRANCH  15  21
ATOM     16  C   UNL     1      -1.262  11.575  19.694  0.00  0.00    +0.000 A 
ATOM     17  C   UNL     1      -2.480  11.966  19.131  0.00  0.00    +0.000 A 
ATOM     18  C   UNL     1      -2.876  11.358  17.958  0.00  0.00    +0.000 A 
ATOM     19  C   UNL     1      -2.114  10.374  17.351  0.00  0.00    +0.000 A 
ATOM     20  C   UNL     1      -0.911   9.962  17.902  0.00  0.00    +0.000 A 
ATOM     21  C   UNL     1      -0.463  10.579  19.086  0.00  0.00    +0.000 A 
ATOM     22  C   UNL     1      -2.831   9.873  16.156  0.00  0.00    +0.000 C 
ATOM     23  C   UNL     1      -3.879  10.980  16.020  0.00  0.00    +0.000 C 
ATOM     24  O   UNL     1      -4.041  11.643  17.296  0.00  0.00    +0.000 OA
ENDBRANCH  15  21
ENDBRANCH   1  15
TORSDOF 3
ENDMDL
MODEL 3
REMARK VINA RESULT:      -8.4      1.952      2.682
REMARK  Name = 
REMARK  3 active torsions:
REMARK  status: ('A' for Active; 'I' for Inactive)
REMARK    1  A    between atoms: C_6  and  C_7
REMARK    2  A    between atoms: C_7  and  C_8
REMARK    3  A    between atoms: C_11  and  C_12
REMARK                            x       y       z     vdW  Elec       q    Type
REMARK                         _______ _______ _______ _____ _____    ______ ____
ROOT
ATOM      1  C   UNL     1       2.290   6.721  19.489  0.00  0.00    +0.000 A 
ATOM      2  N   UNL     1       2.349   7.679  18.554  0.00  0.00    +0.000 NA
ATOM      3  O   UNL     1       1.813   8.790  19.201  0.00  0.00    +0.000 OA
ATOM      4  C   UNL     1       1.464   8.396  20.469  0.00  0.00    +0.000 A 
ATOM      5  N   UNL     1       1.761   7.128  20.695  0.00  0.00    +0.000 NA
ENDROOT
BRANCH   4   6
ATOM      6  C   UNL     1       0.769   9.306  21.435  0.00  0.00    +0.000 A 
ATOM      7  N   UNL     1       0.997   9.221  22.759  0.00  0.00    +0.000 NA
ATOM      8  O   UNL     1       0.241  10.228  23.345  0.00  0.00    +0.000 OA
ATOM      9  C   UNL     1      -0.435  10.876  22.375  0.00  0.00    +0.000 A 
ATOM     10  C   UNL     1      -0.153  10.339  21.144  0.00  0.00    +0.000 A 
ATOM     11  C   UNL     1      -0.803  10.828  19.901  0.00  0.00    +0.000 C 
ATOM     12  C   UNL     1      -1.528  12.175  20.148  0.00  0.00    +0.000 C 
ATOM     13  C   UNL     1      -2.271  12.232  21.504  0.00  0.00    +0.000 C 
ATOM     14  C   UNL     1      -1.324  12.007  22.699  0.00  0.00    +0.000 C 
ENDBRANCH   4   6
BRANCH   1  15
ATOM     15  C   UNL     1       2.576   5.297  19.172  0.00  0.00    +0.000 C 
BRANCH  15  21
ATOM     16  C   UNL     1       5.108   5.232  19.236  0.00  0.00    +0.000 A 
ATOM     17  C   UNL     1       6.356   5.113  18.619  0.00  0.00    +0.000 A 
ATOM     18  C   UNL     1       6.389   4.984  17.247  0.00  0.00    +0.000 A 
ATOM     19  C   UNL     1       5.234   4.990  16.483  0.00  0.00    +0.000 A 
ATOM     20  C   UNL     1       3.988   5.121  17.076  0.00  0.00    +0.000 A 
ATOM     21  C   UNL     1       3.915   5.230  18.478  0.00  0.00    +0.000 A 
ATOM     22  C   UNL     1       5.598   4.902  15.050  0.00  0.00    +0.000 C 
ATOM     23  C   UNL     1       7.061   4.479  15.197  0.00  0.00    +0.000 C 
ATOM     24  O   UNL     1       7.538   4.856  16.510  0.00  0.00    +0.000 OA
ENDBRANCH  15  21
ENDBRANCH   1  15
TORSDOF 3
ENDMDL
MODEL 4
REMARK VINA RESULT:      -8.4      1.307      1.826
REMARK  Name = 
REMARK  3 active torsions:
REMARK  status: ('A' for Active; 'I' for Inactive)
REMARK    1  A    between atoms: C_6  and  C_7
REMARK    2  A    between atoms: C_7  and  C_8
REMARK    3  A    between atoms: C_11  and  C_12
REMARK                            x       y       z     vdW  Elec       q    Type
REMARK                         _______ _______ _______ _____ _____    ______ ____
ROOT
ATOM      1  C   UNL     1       3.385   4.328  19.521  0.00  0.00    +0.000 A 
ATOM      2  N   UNL     1       2.199   3.748  19.749  0.00  0.00    +0.000 NA
ATOM      3  O   UNL     1       1.369   4.826  20.053  0.00  0.00    +0.000 OA
ATOM      4  C   UNL     1       2.138   5.961  19.997  0.00  0.00    +0.000 A 
ATOM      5  N   UNL     1       3.387   5.701  19.650  0.00  0.00    +0.000 NA
ENDROOT
BRANCH   4   6
ATOM      6  C   UNL     1       1.605   7.316  20.355  0.00  0.00    +0.000 A 
ATOM      7  N   UNL     1       1.060   7.551  21.563  0.00  0.00    +0.000 NA
ATOM      8  O   UNL     1       0.722   8.899  21.576  0.00  0.00    +0.000 OA
ATOM      9  C   UNL     1       1.047   9.433  20.382  0.00  0.00    +0.000 A 
ATOM     10  C   UNL     1       1.603   8.486  19.560  0.00  0.00    +0.000 A 
ATOM     11  C   UNL     1       2.006   8.789  18.163  0.00  0.00    +0.000 C 
ATOM     12  C   UNL     1       2.027  10.318  17.913  0.00  0.00    +0.000 C 
ATOM     13  C   UNL     1       0.846  11.065  18.575  0.00  0.00    +0.000 C 
ATOM     14  C   UNL     1       0.808  10.861  20.103  0.00  0.00    +0.000 C 
ENDBRANCH   4   6
BRANCH   1  15
ATOM     15  C   UNL     1       4.628   3.532  19.355  0.00  0.00    +0.000 C 
BRANCH  15  21
ATOM     16  C   UNL     1       6.582   4.857  18.434  0.00  0.00    +0.000 A 
ATOM     17  C   UNL     1       7.348   5.353  17.375  0.00  0.00    +0.000 A 
ATOM     18  C   UNL     1       6.926   5.085  16.090  0.00  0.00    +0.000 A 
ATOM     19  C   UNL     1       5.770   4.365  15.835  0.00  0.00    +0.000 A 
ATOM     20  C   UNL     1       4.991   3.877  16.871  0.00  0.00    +0.000 A 
ATOM     21  C   UNL     1       5.405   4.111  18.197  0.00  0.00    +0.000 A 
ATOM     22  C   UNL     1       5.550   4.303  14.372  0.00  0.00    +0.000 C 
ATOM     23  C   UNL     1       6.931   4.763  13.898  0.00  0.00    +0.000 C 
ATOM     24  O   UNL     1       7.576   5.505  14.960  0.00  0.00    +0.000 OA
ENDBRANCH  15  21
ENDBRANCH   1  15
TORSDOF 3
ENDMDL
MODEL 5
REMARK VINA RESULT:      -8.4      3.071      8.099
REMARK  Name = 
REMARK  3 active torsions:
REMARK  status: ('A' for Active; 'I' for Inactive)
REMARK    1  A    between atoms: C_6  and  C_7
REMARK    2  A    between atoms: C_7  and  C_8
REMARK    3  A    between atoms: C_11  and  C_12
REMARK                            x       y       z     vdW  Elec       q    Type
REMARK                         _______ _______ _______ _____ _____    ______ ____
ROOT
ATOM      1  C   UNL     1       1.470   9.443  18.765  0.00  0.00    +0.000 A 
ATOM      2  N   UNL     1       2.112   9.683  17.614  0.00  0.00    +0.000 NA
ATOM      3  O   UNL     1       2.713   8.460  17.321  0.00  0.00    +0.000 OA
ATOM      4  C   UNL     1       2.390   7.594  18.335  0.00  0.00    +0.000 A 
ATOM      5  N   UNL     1       1.605   8.155  19.239  0.00  0.00    +0.000 NA
ENDROOT
BRANCH   4   6
ATOM      6  C   UNL     1       2.935   6.199  18.410  0.00  0.00    +0.000 A 
ATOM      7  N   UNL     1       3.810   5.744  17.495  0.00  0.00    +0.000 NA
ATOM      8  O   UNL     1       4.141   4.454  17.887  0.00  0.00    +0.000 OA
ATOM      9  C   UNL     1       3.449   4.156  19.005  0.00  0.00    +0.000 A 
ATOM     10  C   UNL     1       2.661   5.212  19.386  0.00  0.00    +0.000 A 
ATOM     11  C   UNL     1       1.751   5.138  20.557  0.00  0.00    +0.000 C 
ATOM     12  C   UNL     1       2.070   3.897  21.429  0.00  0.00    +0.000 C 
ATOM     13  C   UNL     1       2.397   2.633  20.600  0.00  0.00    +0.000 C 
ATOM     14  C   UNL     1       3.602   2.844  19.662  0.00  0.00    +0.000 C 
ENDBRANCH   4   6
BRANCH   1  15
ATOM     15  C   UNL     1       0.849  10.534  19.559  0.00  0.00    +0.000 C 
BRANCH  15  21
ATOM     16  C   UNL     1      -1.400  11.699  19.654  0.00  0.00    +0.000 A 
ATOM     17  C   UNL     1      -2.665  11.987  19.133  0.00  0.00    +0.000 A 
ATOM     18  C   UNL     1      -3.042  11.357  17.966  0.00  0.00    +0.000 A 
ATOM     19  C   UNL     1      -2.216  10.448  17.325  0.00  0.00    +0.000 A 
ATOM     20  C   UNL     1      -0.965  10.138  17.835  0.00  0.00    +0.000 A 
ATOM     21  C   UNL     1      -0.537  10.782  19.012  0.00  0.00    +0.000 A 
ATOM     22  C   UNL     1      -2.923   9.896  16.147  0.00  0.00    +0.000 C 
ATOM     23  C   UNL     1      -4.067  10.908  16.054  0.00  0.00    +0.000 C 
ATOM     24  O   UNL     1      -4.247  11.544  17.342  0.00  0.00    +0.000 OA
ENDBRANCH  15  21
ENDBRANCH   1  15
TORSDOF 3
ENDMDL
MODEL 6
REMARK VINA RESULT:      -8.4      1.019      1.174
REMARK  Name = 
REMARK  3 active torsions:
REMARK  status: ('A' for Active; 'I' for Inactive)
REMARK    1  A    between atoms: C_6  and  C_7
REMARK    2  A    between atoms: C_7  and  C_8
REMARK    3  A    between atoms: C_11  and  C_12
REMARK                            x       y       z     vdW  Elec       q    Type
REMARK                         _______ _______ _______ _____ _____    ______ ____
ROOT
ATOM      1  C   UNL     1       3.547   4.591  18.503  0.00  0.00    +0.000 A 
ATOM      2  N   UNL     1       3.512   4.713  19.837  0.00  0.00    +0.000 NA
ATOM      3  O   UNL     1       2.968   5.982  20.027  0.00  0.00    +0.000 OA
ATOM      4  C   UNL     1       2.738   6.518  18.785  0.00  0.00    +0.000 A 
ATOM      5  N   UNL     1       3.063   5.682  17.813  0.00  0.00    +0.000 NA
ENDROOT
BRANCH   4   6
ATOM      6  C   UNL     1       2.237   7.917  18.589  0.00  0.00    +0.000 A 
ATOM      7  N   UNL     1       2.455   8.580  17.439  0.00  0.00    +0.000 NA
ATOM      8  O   UNL     1       1.822   9.809  17.577  0.00  0.00    +0.000 OA
ATOM      9  C   UNL     1       1.261   9.866  18.801  0.00  0.00    +0.000 A 
ATOM     10  C   UNL     1       1.492   8.706  19.497  0.00  0.00    +0.000 A 
ATOM     11  C   UNL     1       1.031   8.519  20.896  0.00  0.00    +0.000 C 
ATOM     12  C   UNL     1       0.016   9.619  21.297  0.00  0.00    +0.000 C 
ATOM     13  C   UNL     1       0.393  11.024  20.770  0.00  0.00    +0.000 C 
ATOM     14  C   UNL     1       0.509  11.059  19.233  0.00  0.00    +0.000 C 
ENDBRANCH   4   6
BRANCH   1  15
ATOM     15  C   UNL     1       4.246   3.461  17.837  0.00  0.00    +0.000 C 
BRANCH  15  21
ATOM     16  C   UNL     1       6.223   4.909  17.195  0.00  0.00    +0.000 A 
ATOM     17  C   UNL     1       7.139   5.406  16.263  0.00  0.00    +0.000 A 
ATOM     18  C   UNL     1       7.005   5.008  14.949  0.00  0.00    +0.000 A 
ATOM     19  C   UNL     1       5.989   4.159  14.542  0.00  0.00    +0.000 A 
ATOM     20  C   UNL     1       5.063   3.668  15.448  0.00  0.00    +0.000 A 
ATOM     21  C   UNL     1       5.185   4.034  16.803  0.00  0.00    +0.000 A 
ATOM     22  C   UNL     1       6.070   3.975  13.075  0.00  0.00    +0.000 C 
ATOM     23  C   UNL     1       7.473   4.537  12.836  0.00  0.00    +0.000 C 
ATOM     24  O   UNL     1       7.829   5.413  13.932  0.00  0.00    +0.000 OA
ENDBRANCH  15  21
ENDBRANCH   1  15
TORSDOF 3
ENDMDL
MODEL 7
REMARK VINA RESULT:      -8.3      1.876      7.941
REMARK  Name = 
REMARK  3 active torsions:
REMARK  status: ('A' for Active; 'I' for Inactive)
REMARK    1  A    between atoms: C_6  and  C_7
REMARK    2  A    between atoms: C_7  and  C_8
REMARK    3  A    between atoms: C_11  and  C_12
REMARK                            x       y       z     vdW  Elec       q    Type
REMARK                         _______ _______ _______ _____ _____    ______ ____
ROOT
ATOM      1  C   UNL     1       3.626   4.826  18.523  0.00  0.00    +0.000 A 
ATOM      2  N   UNL     1       3.027   3.964  17.690  0.00  0.00    +0.000 NA
ATOM      3  O   UNL     1       3.895   3.915  16.601  0.00  0.00    +0.000 OA
ATOM      4  C   UNL     1       4.936   4.768  16.871  0.00  0.00    +0.000 A 
ATOM      5  N   UNL     1       4.820   5.336  18.059  0.00  0.00    +0.000 NA
ENDROOT
BRANCH   4   6
ATOM      6  C   UNL     1       6.028   5.048  15.883  0.00  0.00    +0.000 A 
ATOM      7  N   UNL     1       7.079   5.822  16.208  0.00  0.00    +0.000 NA
ATOM      8  O   UNL     1       7.911   5.830  15.095  0.00  0.00    +0.000 OA
ATOM      9  C   UNL     1       7.338   5.085  14.129  0.00  0.00    +0.000 A 
ATOM     10  C   UNL     1       6.142   4.568  14.557  0.00  0.00    +0.000 A 
ATOM     11  C   UNL     1       5.272   3.751  13.673  0.00  0.00    +0.000 C 
ATOM     12  C   UNL     1       6.035   3.310  12.399  0.00  0.00    +0.000 C 
ATOM     13  C   UNL     1       6.941   4.417  11.812  0.00  0.00    +0.000 C 
ATOM     14  C   UNL     1       7.999   4.904  12.823  0.00  0.00    +0.000 C 
ENDBRANCH   4   6
BRANCH   1  15
ATOM     15  C   UNL     1       2.947   5.340  19.741  0.00  0.00    +0.000 C 
BRANCH  15  21
ATOM     16  C   UNL     1       2.488   7.237  18.125  0.00  0.00    +0.000 A 
ATOM     17  C   UNL     1       1.971   8.499  17.818  0.00  0.00    +0.000 A 
ATOM     18  C   UNL     1       1.405   9.232  18.838  0.00  0.00    +0.000 A 
ATOM     19  C   UNL     1       1.357   8.760  20.139  0.00  0.00    +0.000 A 
ATOM     20  C   UNL     1       1.877   7.518  20.467  0.00  0.00    +0.000 A 
ATOM     21  C   UNL     1       2.440   6.730  19.444  0.00  0.00    +0.000 A 
ATOM     22  C   UNL     1       0.756   9.796  21.010  0.00  0.00    +0.000 C 
ATOM     23  C   UNL     1       0.166  10.708  19.932  0.00  0.00    +0.000 C 
ATOM     24  O   UNL     1       0.860  10.480  18.682  0.00  0.00    +0.000 OA
ENDBRANCH  15  21
ENDBRANCH   1  15
TORSDOF 3
ENDMDL
MODEL 8
REMARK VINA RESULT:      -8.2      2.104      3.069
REMARK  Name = 
REMARK  3 active torsions:
REMARK  status: ('A' for Active; 'I' for Inactive)
REMARK    1  A    between atoms: C_6  and  C_7
REMARK    2  A    between atoms: C_7  and  C_8
REMARK    3  A    between atoms: C_11  and  C_12
REMARK                            x       y       z     vdW  Elec       q    Type
REMARK                         _______ _______ _______ _____ _____    ______ ____
ROOT
ATOM      1  C   UNL     1       2.776   7.512  18.465  0.00  0.00    +0.000 A 
ATOM      2  N   UNL     1       2.852   8.147  17.288  0.00  0.00    +0.000 NA
ATOM      3  O   UNL     1       1.992   9.231  17.453  0.00  0.00    +0.000 OA
ATOM      4  C   UNL     1       1.460   9.141  18.715  0.00  0.00    +0.000 A 
ATOM      5  N   UNL     1       1.935   8.104  19.384  0.00  0.00    +0.000 NA
ENDROOT
BRANCH   4   6
ATOM      6  C   UNL     1       0.417  10.091  19.221  0.00  0.00    +0.000 A 
ATOM      7  N   UNL     1       0.573  10.738  20.390  0.00  0.00    +0.000 NA
ATOM      8  O   UNL     1      -0.538  11.561  20.527  0.00  0.00    +0.000 OA
ATOM      9  C   UNL     1      -1.339  11.377  19.459  0.00  0.00    +0.000 A 
ATOM     10  C   UNL     1      -0.800  10.455  18.598  0.00  0.00    +0.000 A 
ATOM     11  C   UNL     1      -1.501  10.021  17.363  0.00  0.00    +0.000 C 
ATOM     12  C   UNL     1      -2.687  10.964  17.039  0.00  0.00    +0.000 C 
ATOM     13  C   UNL     1      -3.486  11.399  18.291  0.00  0.00    +0.000 C 
ATOM     14  C   UNL     1      -2.602  12.127  19.323  0.00  0.00    +0.000 C 
ENDBRANCH   4   6
BRANCH   1  15
ATOM     15  C   UNL     1       3.384   6.172  18.674  0.00  0.00    +0.000 C 
BRANCH  15  21
ATOM     16  C   UNL     1       5.779   6.594  17.961  0.00  0.00    +0.000 A 
ATOM     17  C   UNL     1       6.860   6.412  17.094  0.00  0.00    +0.000 A 
ATOM     18  C   UNL     1       6.662   5.639  15.969  0.00  0.00    +0.000 A 
ATOM     19  C   UNL     1       5.434   5.069  15.679  0.00  0.00    +0.000 A 
ATOM     20  C   UNL     1       4.347   5.251  16.519  0.00  0.00    +0.000 A 
ATOM     21  C   UNL     1       4.519   6.013  17.691  0.00  0.00    +0.000 A 
ATOM     22  C   UNL     1       5.521   4.361  14.381  0.00  0.00    +0.000 C 
ATOM     23  C   UNL     1       7.043   4.328  14.224  0.00  0.00    +0.000 C 
ATOM     24  O   UNL     1       7.629   5.374  15.035  0.00  0.00    +0.000 OA
ENDBRANCH  15  21
ENDBRANCH   1  15
TORSDOF 3
ENDMDL
MODEL 9
REMARK VINA RESULT:      -8.2      2.071      7.672
REMARK  Name = 
REMARK  3 active torsions:
REMARK  status: ('A' for Active; 'I' for Inactive)
REMARK    1  A    between atoms: C_6  and  C_7
REMARK    2  A    between atoms: C_7  and  C_8
REMARK    3  A    between atoms: C_11  and  C_12
REMARK                            x       y       z     vdW  Elec       q    Type
REMARK                         _______ _______ _______ _____ _____    ______ ____
ROOT
ATOM      1  C   UNL     1       3.672   4.370  18.554  0.00  0.00    +0.000 A 
ATOM      2  N   UNL     1       2.967   3.752  17.597  0.00  0.00    +0.000 NA
ATOM      3  O   UNL     1       3.793   3.850  16.478  0.00  0.00    +0.000 OA
ATOM      4  C   UNL     1       4.919   4.535  16.861  0.00  0.00    +0.000 A 
ATOM      5  N   UNL     1       4.895   4.857  18.143  0.00  0.00    +0.000 NA
ENDROOT
BRANCH   4   6
ATOM      6  C   UNL     1       6.001   4.913  15.895  0.00  0.00    +0.000 A 
ATOM      7  N   UNL     1       7.011   5.722  16.264  0.00  0.00    +0.000 NA
ATOM      8  O   UNL     1       7.848   5.822  15.159  0.00  0.00    +0.000 OA
ATOM      9  C   UNL     1       7.317   5.095  14.155  0.00  0.00    +0.000 A 
ATOM     10  C   UNL     1       6.146   4.501  14.549  0.00  0.00    +0.000 A 
ATOM     11  C   UNL     1       5.322   3.685  13.622  0.00  0.00    +0.000 C 
ATOM     12  C   UNL     1       6.113   3.341  12.335  0.00  0.00    +0.000 C 
ATOM     13  C   UNL     1       6.967   4.517  11.806  0.00  0.00    +0.000 C 
ATOM     14  C   UNL     1       7.994   5.007  12.847  0.00  0.00    +0.000 C 
ENDBRANCH   4   6
BRANCH   1  15
ATOM     15  C   UNL     1       3.085   4.682  19.883  0.00  0.00    +0.000 C 
BRANCH  15  21
ATOM     16  C   UNL     1       1.795   6.594  20.933  0.00  0.00    +0.000 A 
ATOM     17  C   UNL     1       1.268   7.888  20.909  0.00  0.00    +0.000 A 
ATOM     18  C   UNL     1       1.433   8.633  19.760  0.00  0.00    +0.000 A 
ATOM     19  C   UNL     1       2.081   8.125  18.646  0.00  0.00    +0.000 A 
ATOM     20  C   UNL     1       2.597   6.839  18.646  0.00  0.00    +0.000 A 
ATOM     21  C   UNL     1       2.469   6.059  19.812  0.00  0.00    +0.000 A 
ATOM     22  C   UNL     1       2.038   9.130  17.560  0.00  0.00    +0.000 C 
ATOM     23  C   UNL     1       1.614  10.353  18.376  0.00  0.00    +0.000 C 
ATOM     24  O   UNL     1       0.971   9.913  19.596  0.00  0.00    +0.000 OA
ENDBRANCH  15  21
ENDBRANCH   1  15
TORSDOF 3
ENDMDL
