MODEL 1
REMARK VINA RESULT:      -8.7      0.000      0.000
REMARK  Name = 
REMARK  4 active torsions:
REMARK  status: ('A' for Active; 'I' for Inactive)
REMARK    1  A    between atoms: C_1  and  C_2
REMARK    2  A    between atoms: C_6  and  N_7
REMARK    3  A    between atoms: C_8  and  C_10
REMARK    4  A    between atoms: C_10  and  N_11
REMARK                            x       y       z     vdW  Elec       q    Type
REMARK                         _______ _______ _______ _____ _____    ______ ____
ROOT
ATOM      1  N   UNL     1       5.588   6.199  18.196  0.00  0.00    +0.000 N 
ATOM      2  C   UNL     1       4.419   6.551  17.584  0.00  0.00    +0.000 C 
ATOM      3  O   UNL     1       4.251   7.445  16.776  0.00  0.00    +0.000 OA
ATOM      4  N   UNL     1       3.425   5.678  18.004  0.00  0.00    +0.000 N 
ATOM      5  C   UNL     1       4.053   4.508  18.604  0.00  0.00    +0.000 C 
ATOM      6  C   UNL     1       4.567   3.560  17.481  0.00  0.00    +0.000 C 
ATOM      7  C   UNL     1       3.645   2.455  17.005  0.00  0.00    +0.000 C 
ATOM      8  C   UNL     1       2.291   2.365  17.684  0.00  0.00    +0.000 C 
ATOM      9  C   UNL     1       2.265   2.822  19.119  0.00  0.00    +0.000 A 
ATOM     10  C   UNL     1       1.272   2.298  19.962  0.00  0.00    +0.000 A 
ATOM     11  C   UNL     1       1.159   2.734  21.277  0.00  0.00    +0.000 A 
ATOM     12  C   UNL     1       2.043   3.692  21.763  0.00  0.00    +0.000 A 
ATOM     13  C   UNL     1       3.022   4.241  20.928  0.00  0.00    +0.000 A 
ATOM     14  C   UNL     1       3.137   3.829  19.590  0.00  0.00    +0.000 A 
ATOM     15  C   UNL     1       5.345   5.175  19.081  0.00  0.00    +0.000 C 
ATOM     16  O   UNL     1       6.136   4.784  19.926  0.00  0.00    +0.000 OA
ATOM     17  H   UNL     1       2.691   6.142  18.529  0.00  0.00    +0.000 HD
ENDROOT
BRANCH   1  18
ATOM     18  C   UNL     1       6.861   6.318  17.513  0.00  0.00    +0.000 C 
BRANCH  18  20
ATOM     19  N   UNL     1       6.548   5.710  15.189  0.00  0.00    +0.000 N 
ATOM     20  C   UNL     1       7.135   5.349  16.385  0.00  0.00    +0.000 C 
ATOM     21  O   UNL     1       7.927   4.436  16.557  0.00  0.00    +0.000 OA
ATOM     22  H   UNL     1       6.015   6.574  15.185  0.00  0.00    +0.000 HD
BRANCH  19  28
ATOM     23  C   UNL     1       4.344   2.841  11.907  0.00  0.00    +0.000 C 
ATOM     24  C   UNL     1       5.557   3.615  12.321  0.00  0.00    +0.000 A 
ATOM     25  C   UNL     1       6.709   3.643  11.530  0.00  0.00    +0.000 A 
ATOM     26  C   UNL     1       7.826   4.365  11.947  0.00  0.00    +0.000 A 
ATOM     27  C   UNL     1       7.804   5.060  13.157  0.00  0.00    +0.000 A 
ATOM     28  C   UNL     1       6.660   5.046  13.955  0.00  0.00    +0.000 A 
ATOM     29  C   UNL     1       5.541   4.326  13.527  0.00  0.00    +0.000 A 
ENDBRANCH  19  28
ENDBRANCH  18  20
ENDBRANCH   1  18
TORSDOF 3
ENDMDL
MODEL 2
REMARK VINA RESULT:      -8.3      1.546      2.543
REMARK  Name = 
REMARK  4 active torsions:
REMARK  status: ('A' for Active; 'I' for Inactive)
REMARK    1  A    between atoms: C_1  and  C_2
REMARK    2  A    between atoms: C_6  and  N_7
REMARK    3  A    between atoms: C_8  and  C_10
REMARK    4  A    between atoms: C_10  and  N_11
REMARK                            x       y       z     vdW  Elec       q    Type
REMARK                         _______ _______ _______ _____ _____    ______ ____
ROOT
ATOM      1  N   UNL     1       5.942   5.170  17.276  0.00  0.00    +0.000 N 
ATOM      2  C   UNL     1       6.310   5.474  18.555  0.00  0.00    +0.000 C 
ATOM      3  O   UNL     1       7.380   5.921  18.927  0.00  0.00    +0.000 OA
ATOM      4  N   UNL     1       5.230   5.228  19.392  0.00  0.00    +0.000 N 
ATOM      5  C   UNL     1       4.023   5.127  18.582  0.00  0.00    +0.000 C 
ATOM      6  C   UNL     1       3.539   6.553  18.189  0.00  0.00    +0.000 C 
ATOM      7  C   UNL     1       2.524   7.232  19.087  0.00  0.00    +0.000 C 
ATOM      8  C   UNL     1       2.057   6.443  20.296  0.00  0.00    +0.000 C 
ATOM      9  C   UNL     1       2.046   4.948  20.118  0.00  0.00    +0.000 A 
ATOM     10  C   UNL     1       1.166   4.194  20.910  0.00  0.00    +0.000 A 
ATOM     11  C   UNL     1       1.161   2.806  20.836  0.00  0.00    +0.000 A 
ATOM     12  C   UNL     1       2.030   2.160  19.962  0.00  0.00    +0.000 A 
ATOM     13  C   UNL     1       2.930   2.897  19.183  0.00  0.00    +0.000 A 
ATOM     14  C   UNL     1       2.964   4.300  19.262  0.00  0.00    +0.000 A 
ATOM     15  C   UNL     1       4.674   4.638  17.285  0.00  0.00    +0.000 C 
ATOM     16  O   UNL     1       4.148   4.078  16.335  0.00  0.00    +0.000 OA
ATOM     17  H   UNL     1       5.413   4.489  20.062  0.00  0.00    +0.000 HD
ENDROOT
BRANCH   1  18
ATOM     18  C   UNL     1       6.426   5.943  16.149  0.00  0.00    +0.000 C 
BRANCH  18  20
ATOM     19  N   UNL     1       5.739   4.494  14.332  0.00  0.00    +0.000 N 
ATOM     20  C   UNL     1       6.795   5.182  14.895  0.00  0.00    +0.000 C 
ATOM     21  O   UNL     1       7.906   5.328  14.410  0.00  0.00    +0.000 OA
ATOM     22  H   UNL     1       4.841   4.576  14.799  0.00  0.00    +0.000 HD
BRANCH  19  28
ATOM     23  C   UNL     1       3.209   3.036  10.417  0.00  0.00    +0.000 C 
ATOM     24  C   UNL     1       4.489   3.017  11.194  0.00  0.00    +0.000 A 
ATOM     25  C   UNL     1       5.595   2.281  10.759  0.00  0.00    +0.000 A 
ATOM     26  C   UNL     1       6.769   2.275  11.509  0.00  0.00    +0.000 A 
ATOM     27  C   UNL     1       6.847   2.998  12.700  0.00  0.00    +0.000 A 
ATOM     28  C   UNL     1       5.754   3.742  13.145  0.00  0.00    +0.000 A 
ATOM     29  C   UNL     1       4.581   3.749  12.384  0.00  0.00    +0.000 A 
ENDBRANCH  19  28
ENDBRANCH  18  20
ENDBRANCH   1  18
TORSDOF 3
ENDMDL
MODEL 3
REMARK VINA RESULT:      -8.2      1.678      2.724
REMARK  Name = 
REMARK  4 active torsions:
REMARK  status: ('A' for Active; 'I' for Inactive)
REMARK    1  A    between atoms: C_1  and  C_2
REMARK    2  A    between atoms: C_6  and  N_7
REMARK    3  A    between atoms: C_8  and  C_10
REMARK    4  A    between atoms: C_10  and  N_11
REMARK                            x       y       z     vdW  Elec       q    Type
REMARK                         _______ _______ _______ _____ _____    ______ ____
ROOT
ATOM      1  N   UNL     1       6.507   4.868  17.643  0.00  0.00    +0.000 N 
ATOM      2  C   UNL     1       6.687   5.490  18.844  0.00  0.00    +0.000 C 
ATOM      3  O   UNL     1       7.693   6.051  19.239  0.00  0.00    +0.000 OA
ATOM      4  N   UNL     1       5.497   5.421  19.556  0.00  0.00    +0.000 N 
ATOM      5  C   UNL     1       4.420   5.083  18.635  0.00  0.00    +0.000 C 
ATOM      6  C   UNL     1       4.000   6.351  17.836  0.00  0.00    +0.000 C 
ATOM      7  C   UNL     1       2.868   7.196  18.386  0.00  0.00    +0.000 C 
ATOM      8  C   UNL     1       2.230   6.714  19.675  0.00  0.00    +0.000 C 
ATOM      9  C   UNL     1       2.242   5.221  19.874  0.00  0.00    +0.000 A 
ATOM     10  C   UNL     1       1.255   4.656  20.698  0.00  0.00    +0.000 A 
ATOM     11  C   UNL     1       1.257   3.293  20.971  0.00  0.00    +0.000 A 
ATOM     12  C   UNL     1       2.242   2.481  20.416  0.00  0.00    +0.000 A 
ATOM     13  C   UNL     1       3.246   3.034  19.612  0.00  0.00    +0.000 A 
ATOM     14  C   UNL     1       3.272   4.413  19.344  0.00  0.00    +0.000 A 
ATOM     15  C   UNL     1       5.250   4.312  17.605  0.00  0.00    +0.000 C 
ATOM     16  O   UNL     1       4.865   3.518  16.760  0.00  0.00    +0.000 OA
ATOM     17  H   UNL     1       5.580   4.877  20.408  0.00  0.00    +0.000 HD
ENDROOT
BRANCH   1  18
ATOM     18  C   UNL     1       7.150   5.355  16.438  0.00  0.00    +0.000 C 
BRANCH  18  20
ATOM     19  N   UNL     1       6.507   4.017  14.523  0.00  0.00    +0.000 N 
ATOM     20  C   UNL     1       6.375   5.242  15.144  0.00  0.00    +0.000 C 
ATOM     21  O   UNL     1       5.614   6.140  14.822  0.00  0.00    +0.000 OA
ATOM     22  H   UNL     1       7.088   3.328  14.992  0.00  0.00    +0.000 HD
BRANCH  19  28
ATOM     23  C   UNL     1       6.657   0.978  10.701  0.00  0.00    +0.000 C 
ATOM     24  C   UNL     1       5.952   2.075  11.438  0.00  0.00    +0.000 A 
ATOM     25  C   UNL     1       4.764   2.632  10.955  0.00  0.00    +0.000 A 
ATOM     26  C   UNL     1       4.137   3.659  11.658  0.00  0.00    +0.000 A 
ATOM     27  C   UNL     1       4.692   4.141  12.845  0.00  0.00    +0.000 A 
ATOM     28  C   UNL     1       5.874   3.592  13.342  0.00  0.00    +0.000 A 
ATOM     29  C   UNL     1       6.494   2.558  12.636  0.00  0.00    +0.000 A 
ENDBRANCH  19  28
ENDBRANCH  18  20
ENDBRANCH   1  18
TORSDOF 3
ENDMDL
MODEL 4
REMARK VINA RESULT:      -8.2      3.215      5.386
REMARK  Name = 
REMARK  4 active torsions:
REMARK  status: ('A' for Active; 'I' for Inactive)
REMARK    1  A    between atoms: C_1  and  C_2
REMARK    2  A    between atoms: C_6  and  N_7
REMARK    3  A    between atoms: C_8  and  C_10
REMARK    4  A    between atoms: C_10  and  N_11
REMARK                            x       y       z     vdW  Elec       q    Type
REMARK                         _______ _______ _______ _____ _____    ______ ____
ROOT
ATOM      1  N   UNL     1       5.544   6.603  17.989  0.00  0.00    +0.000 N 
ATOM      2  C   UNL     1       4.372   6.883  17.347  0.00  0.00    +0.000 C 
ATOM      3  O   UNL     1       4.172   7.762  16.529  0.00  0.00    +0.000 OA
ATOM      4  N   UNL     1       3.420   5.956  17.750  0.00  0.00    +0.000 N 
ATOM      5  C   UNL     1       4.100   4.828  18.372  0.00  0.00    +0.000 C 
ATOM      6  C   UNL     1       4.695   3.905  17.267  0.00  0.00    +0.000 C 
ATOM      7  C   UNL     1       3.849   2.747  16.777  0.00  0.00    +0.000 C 
ATOM      8  C   UNL     1       2.487   2.582  17.425  0.00  0.00    +0.000 C 
ATOM      9  C   UNL     1       2.400   3.045  18.855  0.00  0.00    +0.000 A 
ATOM     10  C   UNL     1       1.420   2.468  19.679  0.00  0.00    +0.000 A 
ATOM     11  C   UNL     1       1.250   2.903  20.987  0.00  0.00    +0.000 A 
ATOM     12  C   UNL     1       2.065   3.914  21.488  0.00  0.00    +0.000 A 
ATOM     13  C   UNL     1       3.031   4.514  20.672  0.00  0.00    +0.000 A 
ATOM     14  C   UNL     1       3.201   4.102  19.340  0.00  0.00    +0.000 A 
ATOM     15  C   UNL     1       5.340   5.571  18.874  0.00  0.00    +0.000 C 
ATOM     16  O   UNL     1       6.132   5.231  19.740  0.00  0.00    +0.000 OA
ATOM     17  H   UNL     1       2.648   6.380  18.254  0.00  0.00    +0.000 HD
ENDROOT
BRANCH   1  18
ATOM     18  C   UNL     1       6.825   6.791  17.335  0.00  0.00    +0.000 C 
BRANCH  18  20
ATOM     19  N   UNL     1       7.900   8.896  17.864  0.00  0.00    +0.000 N 
ATOM     20  C   UNL     1       7.892   7.537  18.104  0.00  0.00    +0.000 C 
ATOM     21  O   UNL     1       8.548   6.946  18.946  0.00  0.00    +0.000 OA
ATOM     22  H   UNL     1       7.200   9.251  17.220  0.00  0.00    +0.000 HD
BRANCH  19  28
ATOM     23  C   UNL     1      10.903  12.682  17.144  0.00  0.00    +0.000 C 
ATOM     24  C   UNL     1      10.230  11.745  18.099  0.00  0.00    +0.000 A 
ATOM     25  C   UNL     1      10.446  11.829  19.477  0.00  0.00    +0.000 A 
ATOM     26  C   UNL     1       9.813  10.936  20.341  0.00  0.00    +0.000 A 
ATOM     27  C   UNL     1       8.964   9.951  19.835  0.00  0.00    +0.000 A 
ATOM     28  C   UNL     1       8.733   9.858  18.462  0.00  0.00    +0.000 A 
ATOM     29  C   UNL     1       9.366  10.761  17.603  0.00  0.00    +0.000 A 
ENDBRANCH  19  28
ENDBRANCH  18  20
ENDBRANCH   1  18
TORSDOF 3
ENDMDL
MODEL 5
REMARK VINA RESULT:      -8.0      3.159      5.635
REMARK  Name = 
REMARK  4 active torsions:
REMARK  status: ('A' for Active; 'I' for Inactive)
REMARK    1  A    between atoms: C_1  and  C_2
REMARK    2  A    between atoms: C_6  and  N_7
REMARK    3  A    between atoms: C_8  and  C_10
REMARK    4  A    between atoms: C_10  and  N_11
REMARK                            x       y       z     vdW  Elec       q    Type
REMARK                         _______ _______ _______ _____ _____    ______ ____
ROOT
ATOM      1  N   UNL     1       6.631   5.232  17.816  0.00  0.00    +0.000 N 
ATOM      2  C   UNL     1       6.563   5.298  19.178  0.00  0.00    +0.000 C 
ATOM      3  O   UNL     1       7.442   5.650  19.943  0.00  0.00    +0.000 OA
ATOM      4  N   UNL     1       5.283   4.929  19.571  0.00  0.00    +0.000 N 
ATOM      5  C   UNL     1       4.401   4.997  18.413  0.00  0.00    +0.000 C 
ATOM      6  C   UNL     1       4.012   6.480  18.141  0.00  0.00    +0.000 C 
ATOM      7  C   UNL     1       2.740   7.009  18.773  0.00  0.00    +0.000 C 
ATOM      8  C   UNL     1       1.944   6.028  19.613  0.00  0.00    +0.000 C 
ATOM      9  C   UNL     1       2.047   4.589  19.183  0.00  0.00    +0.000 A 
ATOM     10  C   UNL     1       0.990   3.724  19.509  0.00  0.00    +0.000 A 
ATOM     11  C   UNL     1       1.061   2.371  19.197  0.00  0.00    +0.000 A 
ATOM     12  C   UNL     1       2.186   1.873  18.547  0.00  0.00    +0.000 A 
ATOM     13  C   UNL     1       3.258   2.718  18.236  0.00  0.00    +0.000 A 
ATOM     14  C   UNL     1       3.212   4.084  18.565  0.00  0.00    +0.000 A 
ATOM     15  C   UNL     1       5.447   4.733  17.327  0.00  0.00    +0.000 C 
ATOM     16  O   UNL     1       5.271   4.360  16.177  0.00  0.00    +0.000 OA
ATOM     17  H   UNL     1       5.272   4.079  20.125  0.00  0.00    +0.000 HD
ENDROOT
BRANCH   1  18
ATOM     18  C   UNL     1       7.419   6.182  17.054  0.00  0.00    +0.000 C 
BRANCH  18  20
ATOM     19  N   UNL     1       8.455   8.130  18.054  0.00  0.00    +0.000 N 
ATOM     20  C   UNL     1       7.317   7.639  17.448  0.00  0.00    +0.000 C 
ATOM     21  O   UNL     1       6.344   8.288  17.098  0.00  0.00    +0.000 OA
ATOM     22  H   UNL     1       9.230   7.484  18.162  0.00  0.00    +0.000 HD
BRANCH  19  28
ATOM     23  C   UNL     1       7.881  12.880  17.070  0.00  0.00    +0.000 C 
ATOM     24  C   UNL     1       8.396  11.817  17.989  0.00  0.00    +0.000 A 
ATOM     25  C   UNL     1       9.071  12.138  19.170  0.00  0.00    +0.000 A 
ATOM     26  C   UNL     1       9.549  11.126  20.000  0.00  0.00    +0.000 A 
ATOM     27  C   UNL     1       9.361   9.786  19.656  0.00  0.00    +0.000 A 
ATOM     28  C   UNL     1       8.685   9.449  18.483  0.00  0.00    +0.000 A 
ATOM     29  C   UNL     1       8.203  10.470  17.659  0.00  0.00    +0.000 A 
ENDBRANCH  19  28
ENDBRANCH  18  20
ENDBRANCH   1  18
TORSDOF 3
ENDMDL
MODEL 6
REMARK VINA RESULT:      -7.9      1.418      2.464
REMARK  Name = 
REMARK  4 active torsions:
REMARK  status: ('A' for Active; 'I' for Inactive)
REMARK    1  A    between atoms: C_1  and  C_2
REMARK    2  A    between atoms: C_6  and  N_7
REMARK    3  A    between atoms: C_8  and  C_10
REMARK    4  A    between atoms: C_10  and  N_11
REMARK                            x       y       z     vdW  Elec       q    Type
REMARK                         _______ _______ _______ _____ _____    ______ ____
ROOT
ATOM      1  N   UNL     1       6.078   5.193  18.061  0.00  0.00    +0.000 N 
ATOM      2  C   UNL     1       6.183   5.156  19.422  0.00  0.00    +0.000 C 
ATOM      3  O   UNL     1       7.158   5.442  20.092  0.00  0.00    +0.000 OA
ATOM      4  N   UNL     1       4.956   4.772  19.946  0.00  0.00    +0.000 N 
ATOM      5  C   UNL     1       3.937   4.936  18.918  0.00  0.00    +0.000 C 
ATOM      6  C   UNL     1       3.546   6.439  18.807  0.00  0.00    +0.000 C 
ATOM      7  C   UNL     1       2.374   6.932  19.632  0.00  0.00    +0.000 C 
ATOM      8  C   UNL     1       1.671   5.899  20.492  0.00  0.00    +0.000 C 
ATOM      9  C   UNL     1       1.691   4.494  19.949  0.00  0.00    +0.000 A 
ATOM     10  C   UNL     1       0.667   3.618  20.342  0.00  0.00    +0.000 A 
ATOM     11  C   UNL     1       0.671   2.292  19.925  0.00  0.00    +0.000 A 
ATOM     12  C   UNL     1       1.696   1.833  19.103  0.00  0.00    +0.000 A 
ATOM     13  C   UNL     1       2.736   2.688  18.722  0.00  0.00    +0.000 A 
ATOM     14  C   UNL     1       2.759   4.026  19.153  0.00  0.00    +0.000 A 
ATOM     15  C   UNL     1       4.832   4.743  17.692  0.00  0.00    +0.000 C 
ATOM     16  O   UNL     1       4.506   4.460  16.549  0.00  0.00    +0.000 OA
ATOM     17  H   UNL     1       4.999   3.883  20.433  0.00  0.00    +0.000 HD
ENDROOT
BRANCH   1  18
ATOM     18  C   UNL     1       6.781   6.189  17.277  0.00  0.00    +0.000 C 
BRANCH  18  20
ATOM     19  N   UNL     1       7.229   5.148  15.136  0.00  0.00    +0.000 N 
ATOM     20  C   UNL     1       6.565   6.172  15.781  0.00  0.00    +0.000 C 
ATOM     21  O   UNL     1       5.753   6.935  15.283  0.00  0.00    +0.000 OA
ATOM     22  H   UNL     1       7.773   4.519  15.718  0.00  0.00    +0.000 HD
BRANCH  19  28
ATOM     23  C   UNL     1       5.369   2.234  11.685  0.00  0.00    +0.000 C 
ATOM     24  C   UNL     1       6.255   3.385  12.047  0.00  0.00    +0.000 A 
ATOM     25  C   UNL     1       6.990   4.073  11.077  0.00  0.00    +0.000 A 
ATOM     26  C   UNL     1       7.815   5.134  11.446  0.00  0.00    +0.000 A 
ATOM     27  C   UNL     1       7.916   5.514  12.786  0.00  0.00    +0.000 A 
ATOM     28  C   UNL     1       7.186   4.841  13.765  0.00  0.00    +0.000 A 
ATOM     29  C   UNL     1       6.355   3.782  13.386  0.00  0.00    +0.000 A 
ENDBRANCH  19  28
ENDBRANCH  18  20
ENDBRANCH   1  18
TORSDOF 3
ENDMDL
MODEL 7
REMARK VINA RESULT:      -7.9      3.257      5.869
REMARK  Name = 
REMARK  4 active torsions:
REMARK  status: ('A' for Active; 'I' for Inactive)
REMARK    1  A    between atoms: C_1  and  C_2
REMARK    2  A    between atoms: C_6  and  N_7
REMARK    3  A    between atoms: C_8  and  C_10
REMARK    4  A    between atoms: C_10  and  N_11
REMARK                            x       y       z     vdW  Elec       q    Type
REMARK                         _______ _______ _______ _____ _____    ______ ____
ROOT
ATOM      1  N   UNL     1       6.863   5.237  17.901  0.00  0.00    +0.000 N 
ATOM      2  C   UNL     1       6.626   5.339  19.241  0.00  0.00    +0.000 C 
ATOM      3  O   UNL     1       7.401   5.719  20.100  0.00  0.00    +0.000 OA
ATOM      4  N   UNL     1       5.309   4.972  19.481  0.00  0.00    +0.000 N 
ATOM      5  C   UNL     1       4.577   5.001  18.222  0.00  0.00    +0.000 C 
ATOM      6  C   UNL     1       4.220   6.473  17.862  0.00  0.00    +0.000 C 
ATOM      7  C   UNL     1       2.876   7.010  18.315  0.00  0.00    +0.000 C 
ATOM      8  C   UNL     1       1.986   6.047  19.076  0.00  0.00    +0.000 C 
ATOM      9  C   UNL     1       2.147   4.596  18.703  0.00  0.00    +0.000 A 
ATOM     10  C   UNL     1       1.061   3.733  18.919  0.00  0.00    +0.000 A 
ATOM     11  C   UNL     1       1.176   2.373  18.656  0.00  0.00    +0.000 A 
ATOM     12  C   UNL     1       2.375   1.866  18.166  0.00  0.00    +0.000 A 
ATOM     13  C   UNL     1       3.474   2.710  17.968  0.00  0.00    +0.000 A 
ATOM     14  C   UNL     1       3.383   4.084  18.250  0.00  0.00    +0.000 A 
ATOM     15  C   UNL     1       5.752   4.715  17.283  0.00  0.00    +0.000 C 
ATOM     16  O   UNL     1       5.723   4.310  16.130  0.00  0.00    +0.000 OA
ATOM     17  H   UNL     1       5.232   4.137  20.053  0.00  0.00    +0.000 HD
ENDROOT
BRANCH   1  18
ATOM     18  C   UNL     1       7.736   6.172  17.217  0.00  0.00    +0.000 C 
BRANCH  18  20
ATOM     19  N   UNL     1       8.568   8.307  18.002  0.00  0.00    +0.000 N 
ATOM     20  C   UNL     1       7.490   7.645  17.449  0.00  0.00    +0.000 C 
ATOM     21  O   UNL     1       6.464   8.156  17.027  0.00  0.00    +0.000 OA
ATOM     22  H   UNL     1       9.399   7.754  18.182  0.00  0.00    +0.000 HD
BRANCH  19  28
ATOM     23  C   UNL     1      10.016  11.702  21.202  0.00  0.00    +0.000 C 
ATOM     24  C   UNL     1       9.388  11.370  19.884  0.00  0.00    +0.000 A 
ATOM     25  C   UNL     1       8.923  12.371  19.026  0.00  0.00    +0.000 A 
ATOM     26  C   UNL     1       8.333  12.031  17.810  0.00  0.00    +0.000 A 
ATOM     27  C   UNL     1       8.200  10.691  17.442  0.00  0.00    +0.000 A 
ATOM     28  C   UNL     1       8.664   9.681  18.285  0.00  0.00    +0.000 A 
ATOM     29  C   UNL     1       9.260  10.030  19.500  0.00  0.00    +0.000 A 
ENDBRANCH  19  28
ENDBRANCH  18  20
ENDBRANCH   1  18
TORSDOF 3
ENDMDL
MODEL 8
REMARK VINA RESULT:      -7.6      8.263     10.361
REMARK  Name = 
REMARK  4 active torsions:
REMARK  status: ('A' for Active; 'I' for Inactive)
REMARK    1  A    between atoms: C_1  and  C_2
REMARK    2  A    between atoms: C_6  and  N_7
REMARK    3  A    between atoms: C_8  and  C_10
REMARK    4  A    between atoms: C_10  and  N_11
REMARK                            x       y       z     vdW  Elec       q    Type
REMARK                         _______ _______ _______ _____ _____    ______ ____
ROOT
ATOM      1  N   UNL     1      -0.383  10.699  21.571  0.00  0.00    +0.000 N 
ATOM      2  C   UNL     1      -0.582  10.555  22.914  0.00  0.00    +0.000 C 
ATOM      3  O   UNL     1      -0.001   9.795  23.667  0.00  0.00    +0.000 OA
ATOM      4  N   UNL     1      -1.550  11.466  23.313  0.00  0.00    +0.000 N 
ATOM      5  C   UNL     1      -1.699  12.476  22.273  0.00  0.00    +0.000 C 
ATOM      6  C   UNL     1      -0.532  13.502  22.373  0.00  0.00    +0.000 C 
ATOM      7  C   UNL     1      -0.750  14.750  23.205  0.00  0.00    +0.000 C 
ATOM      8  C   UNL     1      -2.109  14.893  23.864  0.00  0.00    +0.000 C 
ATOM      9  C   UNL     1      -3.252  14.260  23.115  0.00  0.00    +0.000 A 
ATOM     10  C   UNL     1      -4.543  14.773  23.321  0.00  0.00    +0.000 A 
ATOM     11  C   UNL     1      -5.643  14.185  22.708  0.00  0.00    +0.000 A 
ATOM     12  C   UNL     1      -5.462  13.084  21.877  0.00  0.00    +0.000 A 
ATOM     13  C   UNL     1      -4.184  12.547  21.680  0.00  0.00    +0.000 A 
ATOM     14  C   UNL     1      -3.063  13.115  22.310  0.00  0.00    +0.000 A 
ATOM     15  C   UNL     1      -1.276  11.620  21.077  0.00  0.00    +0.000 C 
ATOM     16  O   UNL     1      -1.492  11.813  19.890  0.00  0.00    +0.000 OA
ATOM     17  H   UNL     1      -2.391  11.018  23.661  0.00  0.00    +0.000 HD
ENDROOT
BRANCH   1  18
ATOM     18  C   UNL     1       0.932  10.536  20.982  0.00  0.00    +0.000 C 
BRANCH  18  20
ATOM     19  N   UNL     1       1.725   8.282  20.584  0.00  0.00    +0.000 N 
ATOM     20  C   UNL     1       1.122   9.387  20.018  0.00  0.00    +0.000 C 
ATOM     21  O   UNL     1       0.631   9.453  18.902  0.00  0.00    +0.000 OA
ATOM     22  H   UNL     1       1.964   8.346  21.568  0.00  0.00    +0.000 HD
BRANCH  19  28
ATOM     23  C   UNL     1       1.292   3.424  20.854  0.00  0.00    +0.000 C 
ATOM     24  C   UNL     1       1.770   4.626  20.101  0.00  0.00    +0.000 A 
ATOM     25  C   UNL     1       2.445   4.503  18.883  0.00  0.00    +0.000 A 
ATOM     26  C   UNL     1       2.887   5.641  18.210  0.00  0.00    +0.000 A 
ATOM     27  C   UNL     1       2.665   6.909  18.750  0.00  0.00    +0.000 A 
ATOM     28  C   UNL     1       1.989   7.049  19.963  0.00  0.00    +0.000 A 
ATOM     29  C   UNL     1       1.542   5.903  20.628  0.00  0.00    +0.000 A 
ENDBRANCH  19  28
ENDBRANCH  18  20
ENDBRANCH   1  18
TORSDOF 3
ENDMDL
MODEL 9
REMARK VINA RESULT:      -7.5      3.162      5.420
REMARK  Name = 
REMARK  4 active torsions:
REMARK  status: ('A' for Active; 'I' for Inactive)
REMARK    1  A    between atoms: C_1  and  C_2
REMARK    2  A    between atoms: C_6  and  N_7
REMARK    3  A    between atoms: C_8  and  C_10
REMARK    4  A    between atoms: C_10  and  N_11
REMARK                            x       y       z     vdW  Elec       q    Type
REMARK                         _______ _______ _______ _____ _____    ______ ____
ROOT
ATOM      1  N   UNL     1       5.551   6.601  17.997  0.00  0.00    +0.000 N 
ATOM      2  C   UNL     1       4.369   6.897  17.381  0.00  0.00    +0.000 C 
ATOM      3  O   UNL     1       4.161   7.789  16.579  0.00  0.00    +0.000 OA
ATOM      4  N   UNL     1       3.419   5.971  17.789  0.00  0.00    +0.000 N 
ATOM      5  C   UNL     1       4.102   4.830  18.383  0.00  0.00    +0.000 C 
ATOM      6  C   UNL     1       4.670   3.918  17.256  0.00  0.00    +0.000 C 
ATOM      7  C   UNL     1       3.807   2.772  16.766  0.00  0.00    +0.000 C 
ATOM      8  C   UNL     1       2.457   2.608  17.436  0.00  0.00    +0.000 C 
ATOM      9  C   UNL     1       2.400   3.052  18.875  0.00  0.00    +0.000 A 
ATOM     10  C   UNL     1       1.430   2.471  19.708  0.00  0.00    +0.000 A 
ATOM     11  C   UNL     1       1.288   2.890  21.026  0.00  0.00    +0.000 A 
ATOM     12  C   UNL     1       2.120   3.888  21.524  0.00  0.00    +0.000 A 
ATOM     13  C   UNL     1       3.075   4.493  20.699  0.00  0.00    +0.000 A 
ATOM     14  C   UNL     1       3.217   4.097  19.358  0.00  0.00    +0.000 A 
ATOM     15  C   UNL     1       5.356   5.558  18.872  0.00  0.00    +0.000 C 
ATOM     16  O   UNL     1       6.162   5.201  19.718  0.00  0.00    +0.000 OA
ATOM     17  H   UNL     1       2.659   6.394  18.313  0.00  0.00    +0.000 HD
ENDROOT
BRANCH   1  18
ATOM     18  C   UNL     1       6.821   6.789  17.322  0.00  0.00    +0.000 C 
BRANCH  18  20
ATOM     19  N   UNL     1       7.944   8.896  17.730  0.00  0.00    +0.000 N 
ATOM     20  C   UNL     1       7.891   7.558  18.062  0.00  0.00    +0.000 C 
ATOM     21  O   UNL     1       8.513   7.009  18.958  0.00  0.00    +0.000 OA
ATOM     22  H   UNL     1       7.268   9.224  17.047  0.00  0.00    +0.000 HD
BRANCH  19  28
ATOM     23  C   UNL     1       9.255  11.334  21.755  0.00  0.00    +0.000 C 
ATOM     24  C   UNL     1       9.442  11.088  20.289  0.00  0.00    +0.000 A 
ATOM     25  C   UNL     1      10.381  11.805  19.543  0.00  0.00    +0.000 A 
ATOM     26  C   UNL     1      10.525  11.560  18.179  0.00  0.00    +0.000 A 
ATOM     27  C   UNL     1       9.729  10.602  17.548  0.00  0.00    +0.000 A 
ATOM     28  C   UNL     1       8.791   9.874  18.280  0.00  0.00    +0.000 A 
ATOM     29  C   UNL     1       8.657  10.120  19.650  0.00  0.00    +0.000 A 
ENDBRANCH  19  28
ENDBRANCH  18  20
ENDBRANCH   1  18
TORSDOF 3
ENDMDL
