MODEL 1
REMARK VINA RESULT:      -8.7      0.000      0.000
REMARK  Name = 
REMARK  7 active torsions:
REMARK  status: ('A' for Active; 'I' for Inactive)
REMARK    1  A    between atoms: C_1  and  N_2
REMARK    2  A    between atoms: C_6  and  C_7
REMARK    3  A    between atoms: C_8  and  C_9
REMARK    4  A    between atoms: C_9  and  C_10
REMARK    5  A    between atoms: C_14  and  N_15
REMARK    6  A    between atoms: C_20  and  N_21
REMARK    7  A    between atoms: C_23  and  C_24
REMARK                            x       y       z     vdW  Elec       q    Type
REMARK                         _______ _______ _______ _____ _____    ______ ____
ROOT
ATOM      1  N   UNL     1       4.023   4.331  19.110  0.00  0.00    +0.000 N 
ATOM      2  C   UNL     1       5.347   4.990  19.245  0.00  0.00    +0.000 C 
ATOM      3  C   UNL     1       5.904   4.876  17.858  0.00  0.00    +0.000 A 
ATOM      4  C   UNL     1       5.315   3.760  17.262  0.00  0.00    +0.000 A 
ATOM      5  C   UNL     1       5.473   3.451  15.923  0.00  0.00    +0.000 A 
ATOM      6  C   UNL     1       6.266   4.295  15.146  0.00  0.00    +0.000 A 
ATOM      7  C   UNL     1       6.810   5.460  15.729  0.00  0.00    +0.000 A 
ATOM      8  C   UNL     1       6.661   5.761  17.102  0.00  0.00    +0.000 A 
ATOM      9  C   UNL     1       4.209   3.313  18.138  0.00  0.00    +0.000 C 
ATOM     10  O   UNL     1       3.497   2.352  17.904  0.00  0.00    +0.000 OA
ENDROOT
BRANCH   1  15
ATOM     11  C   UNL     1       1.894   7.108  19.993  0.00  0.00    +0.000 A 
ATOM     12  C   UNL     1       2.371   8.011  19.034  0.00  0.00    +0.000 A 
ATOM     13  C   UNL     1       2.973   7.547  17.869  0.00  0.00    +0.000 A 
ATOM     14  C   UNL     1       3.214   6.188  17.709  0.00  0.00    +0.000 A 
ATOM     15  C   UNL     1       3.003   5.326  18.795  0.00  0.00    +0.000 A 
ATOM     16  C   UNL     1       2.176   5.743  19.845  0.00  0.00    +0.000 A 
BRANCH  11  17
ATOM     17  C   UNL     1       1.123   7.614  21.184  0.00  0.00    +0.000 C 
BRANCH  17  19
ATOM     18  C   UNL     1       0.014   9.875  21.632  0.00  0.00    +0.000 C 
ATOM     19  C   UNL     1       1.075   9.113  21.312  0.00  0.00    +0.000 C 
BRANCH  18  25
ATOM     20  C   UNL     1      -2.000  11.708  23.020  0.00  0.00    +0.000 C 
ATOM     21  N   UNL     1      -0.780  12.075  22.335  0.00  0.00    +0.000 N 
ATOM     22  C   UNL     1      -0.347  13.359  22.201  0.00  0.00    +0.000 A 
ATOM     23  N   UNL     1       0.789  13.374  21.545  0.00  0.00    +0.000 NA
ATOM     24  N   UNL     1       1.092  12.078  21.218  0.00  0.00    +0.000 NA
ATOM     25  C   UNL     1       0.142  11.285  21.706  0.00  0.00    +0.000 A 
ENDBRANCH  18  25
ENDBRANCH  17  19
ENDBRANCH  11  17
ENDBRANCH   1  15
BRANCH   8  26
ATOM     26  C   UNL     1       7.214   7.058  17.633  0.00  0.00    +0.000 C 
ATOM     27  F   UNL     1       6.276   8.012  17.878  0.00  0.00    +0.000 F 
ATOM     28  F   UNL     1       7.879   6.890  18.809  0.00  0.00    +0.000 F 
ATOM     29  F   UNL     1       8.108   7.636  16.778  0.00  0.00    +0.000 F 
ENDBRANCH   8  26
BRANCH   6  30
ATOM     30  N   UNL     1       6.269   4.155  13.754  0.00  0.00    +0.000 N 
ATOM     31  H   UNL     1       7.038   4.632  13.290  0.00  0.00    +0.000 HD
ATOM     32  H   UNL     1       5.378   4.343  13.304  0.00  0.00    +0.000 HD
ENDBRANCH   6  30
TORSDOF 6
ENDMDL
MODEL 2
REMARK VINA RESULT:      -8.7      0.677      1.293
REMARK  Name = 
REMARK  7 active torsions:
REMARK  status: ('A' for Active; 'I' for Inactive)
REMARK    1  A    between atoms: C_1  and  N_2
REMARK    2  A    between atoms: C_6  and  C_7
REMARK    3  A    between atoms: C_8  and  C_9
REMARK    4  A    between atoms: C_9  and  C_10
REMARK    5  A    between atoms: C_14  and  N_15
REMARK    6  A    between atoms: C_20  and  N_21
REMARK    7  A    between atoms: C_23  and  C_24
REMARK                            x       y       z     vdW  Elec       q    Type
REMARK                         _______ _______ _______ _____ _____    ______ ____
ROOT
ATOM      1  N   UNL     1       4.153   4.288  19.067  0.00  0.00    +0.000 N 
ATOM      2  C   UNL     1       5.470   4.966  19.188  0.00  0.00    +0.000 C 
ATOM      3  C   UNL     1       6.015   4.855  17.796  0.00  0.00    +0.000 A 
ATOM      4  C   UNL     1       5.436   3.728  17.209  0.00  0.00    +0.000 A 
ATOM      5  C   UNL     1       5.585   3.417  15.869  0.00  0.00    +0.000 A 
ATOM      6  C   UNL     1       6.359   4.270  15.082  0.00  0.00    +0.000 A 
ATOM      7  C   UNL     1       6.892   5.444  15.657  0.00  0.00    +0.000 A 
ATOM      8  C   UNL     1       6.752   5.748  17.029  0.00  0.00    +0.000 A 
ATOM      9  C   UNL     1       4.344   3.269  18.098  0.00  0.00    +0.000 C 
ATOM     10  O   UNL     1       3.644   2.298  17.873  0.00  0.00    +0.000 OA
ENDROOT
BRANCH   1  15
ATOM     11  C   UNL     1       1.925   6.972  19.989  0.00  0.00    +0.000 A 
ATOM     12  C   UNL     1       2.405   7.924  19.080  0.00  0.00    +0.000 A 
ATOM     13  C   UNL     1       3.054   7.521  17.917  0.00  0.00    +0.000 A 
ATOM     14  C   UNL     1       3.337   6.176  17.714  0.00  0.00    +0.000 A 
ATOM     15  C   UNL     1       3.117   5.267  18.759  0.00  0.00    +0.000 A 
ATOM     16  C   UNL     1       2.248   5.622  19.798  0.00  0.00    +0.000 A 
BRANCH  11  17
ATOM     17  C   UNL     1       1.105   7.411  21.174  0.00  0.00    +0.000 C 
BRANCH  17  19
ATOM     18  C   UNL     1      -0.063   9.687  21.146  0.00  0.00    +0.000 C 
ATOM     19  C   UNL     1       1.009   8.902  21.356  0.00  0.00    +0.000 C 
BRANCH  18  25
ATOM     20  C   UNL     1       0.650  11.718  18.977  0.00  0.00    +0.000 C 
ATOM     21  N   UNL     1       0.343  11.966  20.368  0.00  0.00    +0.000 N 
ATOM     22  C   UNL     1       0.339  13.206  20.931  0.00  0.00    +0.000 A 
ATOM     23  N   UNL     1       0.014  13.113  22.199  0.00  0.00    +0.000 NA
ATOM     24  N   UNL     1      -0.171  11.785  22.479  0.00  0.00    +0.000 NA
ATOM     25  C   UNL     1       0.020  11.085  21.363  0.00  0.00    +0.000 A 
ENDBRANCH  18  25
ENDBRANCH  17  19
ENDBRANCH  11  17
ENDBRANCH   1  15
BRANCH   8  26
ATOM     26  C   UNL     1       7.292   7.054  17.551  0.00  0.00    +0.000 C 
ATOM     27  F   UNL     1       7.983   6.951  18.718  0.00  0.00    +0.000 F 
ATOM     28  F   UNL     1       8.147   7.646  16.672  0.00  0.00    +0.000 F 
ATOM     29  F   UNL     1       6.309   7.970  17.789  0.00  0.00    +0.000 F 
ENDBRANCH   8  26
BRANCH   6  30
ATOM     30  N   UNL     1       6.350   4.125  13.690  0.00  0.00    +0.000 N 
ATOM     31  H   UNL     1       7.225   4.385  13.241  0.00  0.00    +0.000 HD
ATOM     32  H   UNL     1       5.546   4.533  13.224  0.00  0.00    +0.000 HD
ENDBRANCH   6  30
TORSDOF 6
ENDMDL
MODEL 3
REMARK VINA RESULT:      -8.6      0.936      1.157
REMARK  Name = 
REMARK  7 active torsions:
REMARK  status: ('A' for Active; 'I' for Inactive)
REMARK    1  A    between atoms: C_1  and  N_2
REMARK    2  A    between atoms: C_6  and  C_7
REMARK    3  A    between atoms: C_8  and  C_9
REMARK    4  A    between atoms: C_9  and  C_10
REMARK    5  A    between atoms: C_14  and  N_15
REMARK    6  A    between atoms: C_20  and  N_21
REMARK    7  A    between atoms: C_23  and  C_24
REMARK                            x       y       z     vdW  Elec       q    Type
REMARK                         _______ _______ _______ _____ _____    ______ ____
ROOT
ATOM      1  N   UNL     1       4.100   4.412  19.058  0.00  0.00    +0.000 N 
ATOM      2  C   UNL     1       5.427   5.063  19.207  0.00  0.00    +0.000 C 
ATOM      3  C   UNL     1       6.003   4.933  17.830  0.00  0.00    +0.000 A 
ATOM      4  C   UNL     1       5.414   3.816  17.233  0.00  0.00    +0.000 A 
ATOM      5  C   UNL     1       5.590   3.495  15.900  0.00  0.00    +0.000 A 
ATOM      6  C   UNL     1       6.401   4.327  15.128  0.00  0.00    +0.000 A 
ATOM      7  C   UNL     1       6.945   5.492  15.710  0.00  0.00    +0.000 A 
ATOM      8  C   UNL     1       6.778   5.806  17.077  0.00  0.00    +0.000 A 
ATOM      9  C   UNL     1       4.292   3.385  18.097  0.00  0.00    +0.000 C 
ATOM     10  O   UNL     1       3.576   2.428  17.860  0.00  0.00    +0.000 OA
ENDROOT
BRANCH   1  15
ATOM     11  C   UNL     1       2.110   7.323  19.827  0.00  0.00    +0.000 A 
ATOM     12  C   UNL     1       2.555   8.128  18.769  0.00  0.00    +0.000 A 
ATOM     13  C   UNL     1       3.072   7.550  17.614  0.00  0.00    +0.000 A 
ATOM     14  C   UNL     1       3.263   6.176  17.556  0.00  0.00    +0.000 A 
ATOM     15  C   UNL     1       3.092   5.413  18.720  0.00  0.00    +0.000 A 
ATOM     16  C   UNL     1       2.342   5.942  19.777  0.00  0.00    +0.000 A 
BRANCH  11  17
ATOM     17  C   UNL     1       1.427   7.951  21.013  0.00  0.00    +0.000 C 
BRANCH  17  19
ATOM     18  C   UNL     1      -0.404   9.682  20.568  0.00  0.00    +0.000 C 
ATOM     19  C   UNL     1       0.879   9.331  20.767  0.00  0.00    +0.000 C 
BRANCH  18  25
ATOM     20  C   UNL     1      -1.216  11.630  22.779  0.00  0.00    +0.000 C 
ATOM     21  N   UNL     1      -1.109  11.882  21.358  0.00  0.00    +0.000 N 
ATOM     22  C   UNL     1      -1.380  13.086  20.784  0.00  0.00    +0.000 A 
ATOM     23  N   UNL     1      -1.183  13.009  19.489  0.00  0.00    +0.000 NA
ATOM     24  N   UNL     1      -0.803  11.724  19.206  0.00  0.00    +0.000 NA
ATOM     25  C   UNL     1      -0.750  11.038  20.345  0.00  0.00    +0.000 A 
ENDBRANCH  18  25
ENDBRANCH  17  19
ENDBRANCH  11  17
ENDBRANCH   1  15
BRANCH   8  26
ATOM     26  C   UNL     1       7.334   7.102  17.606  0.00  0.00    +0.000 C 
ATOM     27  F   UNL     1       8.193   7.733  16.762  0.00  0.00    +0.000 F 
ATOM     28  F   UNL     1       6.355   8.010  17.875  0.00  0.00    +0.000 F 
ATOM     29  F   UNL     1       8.023   6.940  18.774  0.00  0.00    +0.000 F 
ENDBRANCH   8  26
BRANCH   6  30
ATOM     30  N   UNL     1       6.423   4.175  13.737  0.00  0.00    +0.000 N 
ATOM     31  H   UNL     1       7.347   3.992  13.354  0.00  0.00    +0.000 HD
ATOM     32  H   UNL     1       5.933   4.900  13.221  0.00  0.00    +0.000 HD
ENDBRANCH   6  30
TORSDOF 6
ENDMDL
MODEL 4
REMARK VINA RESULT:      -8.5      1.260      1.543
REMARK  Name = 
REMARK  7 active torsions:
REMARK  status: ('A' for Active; 'I' for Inactive)
REMARK    1  A    between atoms: C_1  and  N_2
REMARK    2  A    between atoms: C_6  and  C_7
REMARK    3  A    between atoms: C_8  and  C_9
REMARK    4  A    between atoms: C_9  and  C_10
REMARK    5  A    between atoms: C_14  and  N_15
REMARK    6  A    between atoms: C_20  and  N_21
REMARK    7  A    between atoms: C_23  and  C_24
REMARK                            x       y       z     vdW  Elec       q    Type
REMARK                         _______ _______ _______ _____ _____    ______ ____
ROOT
ATOM      1  N   UNL     1       4.050   4.368  19.083  0.00  0.00    +0.000 N 
ATOM      2  C   UNL     1       5.374   5.024  19.235  0.00  0.00    +0.000 C 
ATOM      3  C   UNL     1       5.949   4.907  17.856  0.00  0.00    +0.000 A 
ATOM      4  C   UNL     1       5.365   3.792  17.252  0.00  0.00    +0.000 A 
ATOM      5  C   UNL     1       5.540   3.481  15.916  0.00  0.00    +0.000 A 
ATOM      6  C   UNL     1       6.346   4.323  15.149  0.00  0.00    +0.000 A 
ATOM      7  C   UNL     1       6.885   5.487  15.739  0.00  0.00    +0.000 A 
ATOM      8  C   UNL     1       6.719   5.789  17.109  0.00  0.00    +0.000 A 
ATOM      9  C   UNL     1       4.246   3.349  18.115  0.00  0.00    +0.000 C 
ATOM     10  O   UNL     1       3.535   2.390  17.872  0.00  0.00    +0.000 OA
ENDROOT
BRANCH   1  15
ATOM     11  C   UNL     1       2.085   7.295  19.855  0.00  0.00    +0.000 A 
ATOM     12  C   UNL     1       2.507   8.084  18.777  0.00  0.00    +0.000 A 
ATOM     13  C   UNL     1       2.996   7.488  17.619  0.00  0.00    +0.000 A 
ATOM     14  C   UNL     1       3.183   6.112  17.575  0.00  0.00    +0.000 A 
ATOM     15  C   UNL     1       3.038   5.366  18.754  0.00  0.00    +0.000 A 
ATOM     16  C   UNL     1       2.313   5.913  19.820  0.00  0.00    +0.000 A 
BRANCH  11  17
ATOM     17  C   UNL     1       1.431   7.942  21.048  0.00  0.00    +0.000 C 
BRANCH  17  19
ATOM     18  C   UNL     1      -0.345   9.703  20.512  0.00  0.00    +0.000 C 
ATOM     19  C   UNL     1       0.915   9.335  20.805  0.00  0.00    +0.000 C 
BRANCH  18  25
ATOM     20  C   UNL     1      -1.760  10.781  18.026  0.00  0.00    +0.000 C 
ATOM     21  N   UNL     1      -1.296  11.517  19.182  0.00  0.00    +0.000 N 
ATOM     22  C   UNL     1      -1.427  12.865  19.320  0.00  0.00    +0.000 A 
ATOM     23  N   UNL     1      -0.923  13.240  20.472  0.00  0.00    +0.000 NA
ATOM     24  N   UNL     1      -0.429  12.121  21.088  0.00  0.00    +0.000 NA
ATOM     25  C   UNL     1      -0.662  11.069  20.308  0.00  0.00    +0.000 A 
ENDBRANCH  18  25
ENDBRANCH  17  19
ENDBRANCH  11  17
ENDBRANCH   1  15
BRANCH   8  26
ATOM     26  C   UNL     1       7.269   7.084  17.647  0.00  0.00    +0.000 C 
ATOM     27  F   UNL     1       8.133   7.720  16.810  0.00  0.00    +0.000 F 
ATOM     28  F   UNL     1       6.287   7.990  17.912  0.00  0.00    +0.000 F 
ATOM     29  F   UNL     1       7.950   6.919  18.818  0.00  0.00    +0.000 F 
ENDBRANCH   8  26
BRANCH   6  30
ATOM     30  N   UNL     1       6.366   4.182  13.757  0.00  0.00    +0.000 N 
ATOM     31  H   UNL     1       5.750   3.454  13.405  0.00  0.00    +0.000 HD
ATOM     32  H   UNL     1       7.293   4.128  13.347  0.00  0.00    +0.000 HD
ENDBRANCH   6  30
TORSDOF 6
ENDMDL
MODEL 5
REMARK VINA RESULT:      -8.5      1.632      2.359
REMARK  Name = 
REMARK  7 active torsions:
REMARK  status: ('A' for Active; 'I' for Inactive)
REMARK    1  A    between atoms: C_1  and  N_2
REMARK    2  A    between atoms: C_6  and  C_7
REMARK    3  A    between atoms: C_8  and  C_9
REMARK    4  A    between atoms: C_9  and  C_10
REMARK    5  A    between atoms: C_14  and  N_15
REMARK    6  A    between atoms: C_20  and  N_21
REMARK    7  A    between atoms: C_23  and  C_24
REMARK                            x       y       z     vdW  Elec       q    Type
REMARK                         _______ _______ _______ _____ _____    ______ ____
ROOT
ATOM      1  N   UNL     1       4.204   2.952  19.037  0.00  0.00    +0.000 N 
ATOM      2  C   UNL     1       5.666   3.216  19.076  0.00  0.00    +0.000 C 
ATOM      3  C   UNL     1       5.829   4.269  18.021  0.00  0.00    +0.000 A 
ATOM      4  C   UNL     1       4.790   4.105  17.103  0.00  0.00    +0.000 A 
ATOM      5  C   UNL     1       4.534   5.008  16.087  0.00  0.00    +0.000 A 
ATOM      6  C   UNL     1       5.363   6.124  15.981  0.00  0.00    +0.000 A 
ATOM      7  C   UNL     1       6.373   6.328  16.946  0.00  0.00    +0.000 A 
ATOM      8  C   UNL     1       6.643   5.393  17.970  0.00  0.00    +0.000 A 
ATOM      9  C   UNL     1       3.825   3.143  17.683  0.00  0.00    +0.000 C 
ATOM     10  O   UNL     1       2.806   2.777  17.124  0.00  0.00    +0.000 OA
ENDROOT
BRANCH   1  15
ATOM     11  C   UNL     1       2.325   5.898  19.938  0.00  0.00    +0.000 A 
ATOM     12  C   UNL     1       1.201   5.242  20.457  0.00  0.00    +0.000 A 
ATOM     13  C   UNL     1       1.305   3.940  20.936  0.00  0.00    +0.000 A 
ATOM     14  C   UNL     1       2.498   3.243  20.788  0.00  0.00    +0.000 A 
ATOM     15  C   UNL     1       3.522   3.800  20.009  0.00  0.00    +0.000 A 
ATOM     16  C   UNL     1       3.512   5.177  19.756  0.00  0.00    +0.000 A 
BRANCH  11  17
ATOM     17  C   UNL     1       2.234   7.351  19.549  0.00  0.00    +0.000 C 
BRANCH  17  19
ATOM     18  C   UNL     1       0.909   9.411  20.288  0.00  0.00    +0.000 C 
ATOM     19  C   UNL     1       1.483   8.218  20.524  0.00  0.00    +0.000 C 
BRANCH  18  25
ATOM     20  C   UNL     1      -1.289  11.485  19.831  0.00  0.00    +0.000 C 
ATOM     21  N   UNL     1      -0.740  11.025  21.088  0.00  0.00    +0.000 N 
ATOM     22  C   UNL     1      -1.145  11.487  22.302  0.00  0.00    +0.000 A 
ATOM     23  N   UNL     1      -0.475  10.877  23.252  0.00  0.00    +0.000 NA
ATOM     24  N   UNL     1       0.405  10.019  22.647  0.00  0.00    +0.000 NA
ATOM     25  C   UNL     1       0.239  10.102  21.329  0.00  0.00    +0.000 A 
ENDBRANCH  18  25
ENDBRANCH  17  19
ENDBRANCH  11  17
ENDBRANCH   1  15
BRANCH   8  26
ATOM     26  C   UNL     1       7.693   5.715  19.001  0.00  0.00    +0.000 C 
ATOM     27  F   UNL     1       8.289   6.927  18.838  0.00  0.00    +0.000 F 
ATOM     28  F   UNL     1       7.187   5.725  20.265  0.00  0.00    +0.000 F 
ATOM     29  F   UNL     1       8.711   4.806  19.014  0.00  0.00    +0.000 F 
ENDBRANCH   8  26
BRANCH   6  30
ATOM     30  N   UNL     1       5.007   7.172  15.123  0.00  0.00    +0.000 N 
ATOM     31  H   UNL     1       5.798   7.705  14.770  0.00  0.00    +0.000 HD
ATOM     32  H   UNL     1       4.266   7.773  15.468  0.00  0.00    +0.000 HD
ENDBRANCH   6  30
TORSDOF 6
ENDMDL
MODEL 6
REMARK VINA RESULT:      -8.5      4.081      5.286
REMARK  Name = 
REMARK  7 active torsions:
REMARK  status: ('A' for Active; 'I' for Inactive)
REMARK    1  A    between atoms: C_1  and  N_2
REMARK    2  A    between atoms: C_6  and  C_7
REMARK    3  A    between atoms: C_8  and  C_9
REMARK    4  A    between atoms: C_9  and  C_10
REMARK    5  A    between atoms: C_14  and  N_15
REMARK    6  A    between atoms: C_20  and  N_21
REMARK    7  A    between atoms: C_23  and  C_24
REMARK                            x       y       z     vdW  Elec       q    Type
REMARK                         _______ _______ _______ _____ _____    ______ ____
ROOT
ATOM      1  N   UNL     1       2.860   5.805  17.455  0.00  0.00    +0.000 N 
ATOM      2  C   UNL     1       1.773   4.850  17.789  0.00  0.00    +0.000 C 
ATOM      3  C   UNL     1       2.497   3.806  18.585  0.00  0.00    +0.000 A 
ATOM      4  C   UNL     1       3.830   3.816  18.171  0.00  0.00    +0.000 A 
ATOM      5  C   UNL     1       4.822   3.094  18.811  0.00  0.00    +0.000 A 
ATOM      6  C   UNL     1       4.459   2.320  19.913  0.00  0.00    +0.000 A 
ATOM      7  C   UNL     1       3.125   2.359  20.374  0.00  0.00    +0.000 A 
ATOM      8  C   UNL     1       2.113   3.082  19.706  0.00  0.00    +0.000 A 
ATOM      9  C   UNL     1       4.028   5.010  17.319  0.00  0.00    +0.000 C 
ATOM     10  O   UNL     1       5.086   5.304  16.791  0.00  0.00    +0.000 OA
ENDROOT
BRANCH   1  15
ATOM     11  C   UNL     1       1.954   9.051  18.745  0.00  0.00    +0.000 A 
ATOM     12  C   UNL     1       1.379   8.612  19.945  0.00  0.00    +0.000 A 
ATOM     13  C   UNL     1       1.745   7.387  20.494  0.00  0.00    +0.000 A 
ATOM     14  C   UNL     1       2.590   6.539  19.790  0.00  0.00    +0.000 A 
ATOM     15  C   UNL     1       2.925   6.856  18.465  0.00  0.00    +0.000 A 
ATOM     16  C   UNL     1       2.774   8.175  18.021  0.00  0.00    +0.000 A 
BRANCH  11  17
ATOM     17  C   UNL     1       1.655  10.435  18.230  0.00  0.00    +0.000 C 
BRANCH  17  19
ATOM     18  C   UNL     1      -0.824  10.189  17.650  0.00  0.00    +0.000 C 
ATOM     19  C   UNL     1       0.199  10.816  18.257  0.00  0.00    +0.000 C 
BRANCH  18  25
ATOM     20  C   UNL     1      -2.858  10.249  15.369  0.00  0.00    +0.000 C 
ATOM     21  N   UNL     1      -3.029  10.700  16.733  0.00  0.00    +0.000 N 
ATOM     22  C   UNL     1      -4.180  11.251  17.206  0.00  0.00    +0.000 A 
ATOM     23  N   UNL     1      -4.036  11.549  18.476  0.00  0.00    +0.000 NA
ATOM     24  N   UNL     1      -2.758  11.213  18.834  0.00  0.00    +0.000 NA
ATOM     25  C   UNL     1      -2.145  10.688  17.776  0.00  0.00    +0.000 A 
ENDBRANCH  18  25
ENDBRANCH  17  19
ENDBRANCH  11  17
ENDBRANCH   1  15
BRANCH   8  26
ATOM     26  C   UNL     1       0.729   3.128  20.300  0.00  0.00    +0.000 C 
ATOM     27  F   UNL     1       0.217   4.380  20.438  0.00  0.00    +0.000 F 
ATOM     28  F   UNL     1      -0.177   2.445  19.547  0.00  0.00    +0.000 F 
ATOM     29  F   UNL     1       0.674   2.571  21.545  0.00  0.00    +0.000 F 
ENDBRANCH   8  26
BRANCH   6  30
ATOM     30  N   UNL     1       5.454   1.761  20.724  0.00  0.00    +0.000 N 
ATOM     31  H   UNL     1       6.214   1.326  20.207  0.00  0.00    +0.000 HD
ATOM     32  H   UNL     1       5.111   1.165  21.471  0.00  0.00    +0.000 HD
ENDBRANCH   6  30
TORSDOF 6
ENDMDL
MODEL 7
REMARK VINA RESULT:      -8.4      4.433      7.201
REMARK  Name = 
REMARK  7 active torsions:
REMARK  status: ('A' for Active; 'I' for Inactive)
REMARK    1  A    between atoms: C_1  and  N_2
REMARK    2  A    between atoms: C_6  and  C_7
REMARK    3  A    between atoms: C_8  and  C_9
REMARK    4  A    between atoms: C_9  and  C_10
REMARK    5  A    between atoms: C_14  and  N_15
REMARK    6  A    between atoms: C_20  and  N_21
REMARK    7  A    between atoms: C_23  and  C_24
REMARK                            x       y       z     vdW  Elec       q    Type
REMARK                         _______ _______ _______ _____ _____    ______ ____
ROOT
ATOM      1  N   UNL     1       5.849   5.101  15.736  0.00  0.00    +0.000 N 
ATOM      2  C   UNL     1       4.676   5.999  15.888  0.00  0.00    +0.000 C 
ATOM      3  C   UNL     1       3.980   5.418  17.081  0.00  0.00    +0.000 A 
ATOM      4  C   UNL     1       4.311   4.063  17.139  0.00  0.00    +0.000 A 
ATOM      5  C   UNL     1       3.977   3.252  18.209  0.00  0.00    +0.000 A 
ATOM      6  C   UNL     1       3.271   3.823  19.267  0.00  0.00    +0.000 A 
ATOM      7  C   UNL     1       2.992   5.207  19.243  0.00  0.00    +0.000 A 
ATOM      8  C   UNL     1       3.318   6.026  18.140  0.00  0.00    +0.000 A 
ATOM      9  C   UNL     1       5.401   3.825  16.167  0.00  0.00    +0.000 C 
ATOM     10  O   UNL     1       5.913   2.737  15.967  0.00  0.00    +0.000 OA
ENDROOT
BRANCH   1  15
ATOM     11  C   UNL     1       7.475   7.711  17.624  0.00  0.00    +0.000 A 
ATOM     12  C   UNL     1       7.719   6.967  18.786  0.00  0.00    +0.000 A 
ATOM     13  C   UNL     1       7.801   5.579  18.728  0.00  0.00    +0.000 A 
ATOM     14  C   UNL     1       7.518   4.919  17.538  0.00  0.00    +0.000 A 
ATOM     15  C   UNL     1       6.990   5.648  16.463  0.00  0.00    +0.000 A 
ATOM     16  C   UNL     1       7.152   7.039  16.438  0.00  0.00    +0.000 A 
BRANCH  11  17
ATOM     17  C   UNL     1       7.524   9.216  17.672  0.00  0.00    +0.000 C 
BRANCH  17  19
ATOM     18  C   UNL     1       9.143  11.078  18.349  0.00  0.00    +0.000 C 
ATOM     19  C   UNL     1       8.775   9.786  18.286  0.00  0.00    +0.000 C 
BRANCH  18  25
ATOM     20  C   UNL     1      11.268  12.834  17.028  0.00  0.00    +0.000 C 
ATOM     21  N   UNL     1      11.295  12.232  18.343  0.00  0.00    +0.000 N 
ATOM     22  C   UNL     1      12.333  12.368  19.213  0.00  0.00    +0.000 A 
ATOM     23  N   UNL     1      12.065  11.722  20.323  0.00  0.00    +0.000 NA
ATOM     24  N   UNL     1      10.840  11.128  20.167  0.00  0.00    +0.000 NA
ATOM     25  C   UNL     1      10.366  11.445  18.965  0.00  0.00    +0.000 A 
ENDBRANCH  18  25
ENDBRANCH  17  19
ENDBRANCH  11  17
ENDBRANCH   1  15
BRANCH   8  26
ATOM     26  C   UNL     1       3.047   7.506  18.219  0.00  0.00    +0.000 C 
ATOM     27  F   UNL     1       4.106   8.291  17.882  0.00  0.00    +0.000 F 
ATOM     28  F   UNL     1       2.033   7.889  17.395  0.00  0.00    +0.000 F 
ATOM     29  F   UNL     1       2.681   7.906  19.472  0.00  0.00    +0.000 F 
ENDBRANCH   8  26
BRANCH   6  30
ATOM     30  N   UNL     1       3.114   3.108  20.460  0.00  0.00    +0.000 N 
ATOM     31  H   UNL     1       3.989   2.882  20.926  0.00  0.00    +0.000 HD
ATOM     32  H   UNL     1       2.496   2.305  20.399  0.00  0.00    +0.000 HD
ENDBRANCH   6  30
TORSDOF 6
ENDMDL
MODEL 8
REMARK VINA RESULT:      -8.4      4.431      6.943
REMARK  Name = 
REMARK  7 active torsions:
REMARK  status: ('A' for Active; 'I' for Inactive)
REMARK    1  A    between atoms: C_1  and  N_2
REMARK    2  A    between atoms: C_6  and  C_7
REMARK    3  A    between atoms: C_8  and  C_9
REMARK    4  A    between atoms: C_9  and  C_10
REMARK    5  A    between atoms: C_14  and  N_15
REMARK    6  A    between atoms: C_20  and  N_21
REMARK    7  A    between atoms: C_23  and  C_24
REMARK                            x       y       z     vdW  Elec       q    Type
REMARK                         _______ _______ _______ _____ _____    ______ ____
ROOT
ATOM      1  N   UNL     1       5.657   4.810  15.752  0.00  0.00    +0.000 N 
ATOM      2  C   UNL     1       4.487   5.702  15.961  0.00  0.00    +0.000 C 
ATOM      3  C   UNL     1       3.865   5.127  17.198  0.00  0.00    +0.000 A 
ATOM      4  C   UNL     1       4.209   3.775  17.249  0.00  0.00    +0.000 A 
ATOM      5  C   UNL     1       3.943   2.972  18.343  0.00  0.00    +0.000 A 
ATOM      6  C   UNL     1       3.293   3.548  19.435  0.00  0.00    +0.000 A 
ATOM      7  C   UNL     1       3.002   4.930  19.414  0.00  0.00    +0.000 A 
ATOM      8  C   UNL     1       3.259   5.741  18.286  0.00  0.00    +0.000 A 
ATOM      9  C   UNL     1       5.244   3.536  16.218  0.00  0.00    +0.000 C 
ATOM     10  O   UNL     1       5.752   2.450  16.000  0.00  0.00    +0.000 OA
ENDROOT
BRANCH   1  15
ATOM     11  C   UNL     1       7.346   7.421  17.584  0.00  0.00    +0.000 A 
ATOM     12  C   UNL     1       7.695   6.656  18.705  0.00  0.00    +0.000 A 
ATOM     13  C   UNL     1       7.810   5.273  18.604  0.00  0.00    +0.000 A 
ATOM     14  C   UNL     1       7.458   4.634  17.422  0.00  0.00    +0.000 A 
ATOM     15  C   UNL     1       6.833   5.373  16.407  0.00  0.00    +0.000 A 
ATOM     16  C   UNL     1       6.954   6.768  16.407  0.00  0.00    +0.000 A 
BRANCH  11  17
ATOM     17  C   UNL     1       7.357   8.925  17.668  0.00  0.00    +0.000 C 
BRANCH  17  19
ATOM     18  C   UNL     1       8.982  10.812  18.253  0.00  0.00    +0.000 C 
ATOM     19  C   UNL     1       8.629   9.515  18.215  0.00  0.00    +0.000 C 
BRANCH  18  25
ATOM     20  C   UNL     1       9.385  11.638  21.169  0.00  0.00    +0.000 C 
ATOM     21  N   UNL     1      10.373  11.563  20.115  0.00  0.00    +0.000 N 
ATOM     22  C   UNL     1      11.686  11.878  20.288  0.00  0.00    +0.000 A 
ATOM     23  N   UNL     1      12.333  11.703  19.161  0.00  0.00    +0.000 NA
ATOM     24  N   UNL     1      11.423  11.293  18.223  0.00  0.00    +0.000 NA
ATOM     25  C   UNL     1      10.229  11.199  18.805  0.00  0.00    +0.000 A 
ENDBRANCH  18  25
ENDBRANCH  17  19
ENDBRANCH  11  17
ENDBRANCH   1  15
BRANCH   8  26
ATOM     26  C   UNL     1       2.982   7.220  18.367  0.00  0.00    +0.000 C 
ATOM     27  F   UNL     1       4.043   8.010  18.050  0.00  0.00    +0.000 F 
ATOM     28  F   UNL     1       1.980   7.602  17.529  0.00  0.00    +0.000 F 
ATOM     29  F   UNL     1       2.594   7.613  19.616  0.00  0.00    +0.000 F 
ENDBRANCH   8  26
BRANCH   6  30
ATOM     30  N   UNL     1       3.210   2.844  20.641  0.00  0.00    +0.000 N 
ATOM     31  H   UNL     1       2.849   1.898  20.545  0.00  0.00    +0.000 HD
ATOM     32  H   UNL     1       2.761   3.348  21.400  0.00  0.00    +0.000 HD
ENDBRANCH   6  30
TORSDOF 6
ENDMDL
MODEL 9
REMARK VINA RESULT:      -8.3      4.053      6.877
REMARK  Name = 
REMARK  7 active torsions:
REMARK  status: ('A' for Active; 'I' for Inactive)
REMARK    1  A    between atoms: C_1  and  N_2
REMARK    2  A    between atoms: C_6  and  C_7
REMARK    3  A    between atoms: C_8  and  C_9
REMARK    4  A    between atoms: C_9  and  C_10
REMARK    5  A    between atoms: C_14  and  N_15
REMARK    6  A    between atoms: C_20  and  N_21
REMARK    7  A    between atoms: C_23  and  C_24
REMARK                            x       y       z     vdW  Elec       q    Type
REMARK                         _______ _______ _______ _____ _____    ______ ____
ROOT
ATOM      1  N   UNL     1       4.735   4.039  16.779  0.00  0.00    +0.000 N 
ATOM      2  C   UNL     1       3.757   5.157  16.776  0.00  0.00    +0.000 C 
ATOM      3  C   UNL     1       3.044   4.962  18.080  0.00  0.00    +0.000 A 
ATOM      4  C   UNL     1       3.126   3.605  18.402  0.00  0.00    +0.000 A 
ATOM      5  C   UNL     1       2.718   3.095  19.621  0.00  0.00    +0.000 A 
ATOM      6  C   UNL     1       2.196   3.985  20.560  0.00  0.00    +0.000 A 
ATOM      7  C   UNL     1       2.173   5.365  20.264  0.00  0.00    +0.000 A 
ATOM      8  C   UNL     1       2.572   5.878  19.010  0.00  0.00    +0.000 A 
ATOM      9  C   UNL     1       4.091   2.980  17.470  0.00  0.00    +0.000 C 
ATOM     10  O   UNL     1       4.382   1.797  17.481  0.00  0.00    +0.000 OA
ENDROOT
BRANCH   1  15
ATOM     11  C   UNL     1       7.093   6.619  17.677  0.00  0.00    +0.000 A 
ATOM     12  C   UNL     1       7.129   6.358  19.053  0.00  0.00    +0.000 A 
ATOM     13  C   UNL     1       6.798   5.097  19.539  0.00  0.00    +0.000 A 
ATOM     14  C   UNL     1       6.311   4.128  18.670  0.00  0.00    +0.000 A 
ATOM     15  C   UNL     1       6.000   4.489  17.351  0.00  0.00    +0.000 A 
ATOM     16  C   UNL     1       6.564   5.652  16.812  0.00  0.00    +0.000 A 
BRANCH  11  17
ATOM     17  C   UNL     1       7.584   7.943  17.150  0.00  0.00    +0.000 C 
BRANCH  17  19
ATOM     18  C   UNL     1       8.676  10.078  18.041  0.00  0.00    +0.000 C 
ATOM     19  C   UNL     1       8.325   8.784  18.154  0.00  0.00    +0.000 C 
BRANCH  18  25
ATOM     20  C   UNL     1      11.164  11.804  17.623  0.00  0.00    +0.000 C 
ATOM     21  N   UNL     1      10.491  11.488  18.865  0.00  0.00    +0.000 N 
ATOM     22  C   UNL     1      10.906  11.935  20.082  0.00  0.00    +0.000 A 
ATOM     23  N   UNL     1      10.094  11.494  21.013  0.00  0.00    +0.000 NA
ATOM     24  N   UNL     1       9.145  10.721  20.398  0.00  0.00    +0.000 NA
ATOM     25  C   UNL     1       9.381  10.723  19.088  0.00  0.00    +0.000 A 
ENDBRANCH  18  25
ENDBRANCH  17  19
ENDBRANCH  11  17
ENDBRANCH   1  15
BRANCH   8  26
ATOM     26  C   UNL     1       2.581   7.370  18.796  0.00  0.00    +0.000 C 
ATOM     27  F   UNL     1       2.259   8.098  19.898  0.00  0.00    +0.000 F 
ATOM     28  F   UNL     1       3.801   7.826  18.401  0.00  0.00    +0.000 F 
ATOM     29  F   UNL     1       1.703   7.765  17.828  0.00  0.00    +0.000 F 
ENDBRANCH   8  26
BRANCH   6  30
ATOM     30  N   UNL     1       1.988   3.558  21.877  0.00  0.00    +0.000 N 
ATOM     31  H   UNL     1       2.841   3.311  22.373  0.00  0.00    +0.000 HD
ATOM     32  H   UNL     1       1.265   2.854  21.988  0.00  0.00    +0.000 HD
ENDBRANCH   6  30
TORSDOF 6
ENDMDL
