MODEL 1
REMARK VINA RESULT:      -8.6      0.000      0.000
REMARK  Name = 
REMARK  7 active torsions:
REMARK  status: ('A' for Active; 'I' for Inactive)
REMARK    1  A    between atoms: N_6  and  C_7
REMARK    2  A    between atoms: C_7  and  C_8
REMARK    3  A    between atoms: C_12  and  C_13
REMARK    4  A    between atoms: N_19  and  C_20
REMARK    5  A    between atoms: C_24  and  C_25
REMARK    6  A    between atoms: C_25  and  O_26
REMARK    7  A    between atoms: O_26  and  C_27
REMARK                            x       y       z     vdW  Elec       q    Type
REMARK                         _______ _______ _______ _____ _____    ______ ____
ROOT
ATOM      1  C   UNL     1      -0.226  11.201  19.166  0.00  0.00    +0.000 A 
ATOM      2  C   UNL     1       0.664  10.369  18.483  0.00  0.00    +0.000 A 
ATOM      3  C   UNL     1       1.172   9.273  19.154  0.00  0.00    +0.000 A 
ATOM      4  C   UNL     1       0.884   8.989  20.484  0.00  0.00    +0.000 A 
ATOM      5  C   UNL     1       0.087   9.854  21.228  0.00  0.00    +0.000 A 
ATOM      6  C   UNL     1      -0.468  10.961  20.545  0.00  0.00    +0.000 A 
ATOM      7  C   UNL     1       1.500   7.675  20.846  0.00  0.00    +0.000 C 
ATOM      8  N   UNL     1       2.175   7.269  19.622  0.00  0.00    +0.000 N 
ATOM      9  C   UNL     1       1.996   8.211  18.605  0.00  0.00    +0.000 C 
ATOM     10  O   UNL     1       2.384   8.232  17.448  0.00  0.00    +0.000 OA
ENDROOT
BRANCH   8  11
ATOM     11  C   UNL     1       2.976   6.101  19.550  0.00  0.00    +0.000 A 
ATOM     12  C   UNL     1       2.585   4.917  20.185  0.00  0.00    +0.000 A 
ATOM     13  C   UNL     1       3.322   3.742  20.037  0.00  0.00    +0.000 A 
ATOM     14  C   UNL     1       4.479   3.734  19.267  0.00  0.00    +0.000 A 
ATOM     15  C   UNL     1       4.923   4.908  18.652  0.00  0.00    +0.000 A 
ATOM     16  C   UNL     1       4.164   6.083  18.800  0.00  0.00    +0.000 A 
BRANCH  15  17
ATOM     17  C   UNL     1       6.173   4.905  17.811  0.00  0.00    +0.000 C 
BRANCH  17  18
ATOM     18  O   UNL     1       7.298   4.595  18.631  0.00  0.00    +0.000 OA
ATOM     19  C   UNL     1       7.872   5.769  19.189  0.00  0.00    +0.000 C 
ENDBRANCH  17  18
ENDBRANCH  15  17
ENDBRANCH   8  11
BRANCH   5  20
ATOM     20  C   UNL     1      -0.230   9.613  22.681  0.00  0.00    +0.000 C 
ATOM     21  F   UNL     1      -0.937  10.624  23.262  0.00  0.00    +0.000 F 
ATOM     22  F   UNL     1      -0.970   8.487  22.876  0.00  0.00    +0.000 F 
ATOM     23  F   UNL     1       0.890   9.465  23.440  0.00  0.00    +0.000 F 
ENDBRANCH   5  20
BRANCH   1  24
ATOM     24  C   UNL     1      -0.994  12.255  18.392  0.00  0.00    +0.000 C 
BRANCH  24  30
ATOM     25  C   UNL     1      -3.804  12.487  19.833  0.00  0.00    +0.000 C 
ATOM     26  C   UNL     1      -3.500  11.853  18.697  0.00  0.00    +0.000 C 
ATOM     27  C   UNL     1      -4.534  11.043  17.953  0.00  0.00    +0.000 C 
ATOM     28  C   UNL     1      -3.945  10.922  16.550  0.00  0.00    +0.000 C 
ATOM     29  C   UNL     1      -2.444  11.149  16.702  0.00  0.00    +0.000 C 
ATOM     30  N   UNL     1      -2.316  11.822  17.987  0.00  0.00    +0.000 N 
ENDBRANCH  24  30
ENDBRANCH   1  24
TORSDOF 6
ENDMDL
MODEL 2
REMARK VINA RESULT:      -8.4      1.025      1.488
REMARK  Name = 
REMARK  7 active torsions:
REMARK  status: ('A' for Active; 'I' for Inactive)
REMARK    1  A    between atoms: N_6  and  C_7
REMARK    2  A    between atoms: C_7  and  C_8
REMARK    3  A    between atoms: C_12  and  C_13
REMARK    4  A    between atoms: N_19  and  C_20
REMARK    5  A    between atoms: C_24  and  C_25
REMARK    6  A    between atoms: C_25  and  O_26
REMARK    7  A    between atoms: O_26  and  C_27
REMARK                            x       y       z     vdW  Elec       q    Type
REMARK                         _______ _______ _______ _____ _____    ______ ____
ROOT
ATOM      1  C   UNL     1      -0.658  11.476  19.390  0.00  0.00    +0.000 A 
ATOM      2  C   UNL     1       0.252  10.810  18.565  0.00  0.00    +0.000 A 
ATOM      3  C   UNL     1       0.904   9.706  19.079  0.00  0.00    +0.000 A 
ATOM      4  C   UNL     1       0.742   9.260  20.385  0.00  0.00    +0.000 A 
ATOM      5  C   UNL     1      -0.074   9.961  21.268  0.00  0.00    +0.000 A 
ATOM      6  C   UNL     1      -0.776  11.073  20.747  0.00  0.00    +0.000 A 
ATOM      7  C   UNL     1       1.500   7.982  20.562  0.00  0.00    +0.000 C 
ATOM      8  N   UNL     1       2.117   7.772  19.261  0.00  0.00    +0.000 N 
ATOM      9  C   UNL     1       1.780   8.792  18.366  0.00  0.00    +0.000 C 
ATOM     10  O   UNL     1       2.079   8.971  17.196  0.00  0.00    +0.000 OA
ENDROOT
BRANCH   8  11
ATOM     11  C   UNL     1       3.013   6.702  19.010  0.00  0.00    +0.000 A 
ATOM     12  C   UNL     1       3.003   5.551  19.806  0.00  0.00    +0.000 A 
ATOM     13  C   UNL     1       3.818   4.460  19.505  0.00  0.00    +0.000 A 
ATOM     14  C   UNL     1       4.675   4.506  18.412  0.00  0.00    +0.000 A 
ATOM     15  C   UNL     1       4.743   5.657  17.619  0.00  0.00    +0.000 A 
ATOM     16  C   UNL     1       3.908   6.746  17.928  0.00  0.00    +0.000 A 
BRANCH  15  17
ATOM     17  C   UNL     1       5.667   5.712  16.431  0.00  0.00    +0.000 C 
BRANCH  17  18
ATOM     18  O   UNL     1       6.390   6.941  16.446  0.00  0.00    +0.000 OA
ATOM     19  C   UNL     1       7.424   6.922  17.422  0.00  0.00    +0.000 C 
ENDBRANCH  17  18
ENDBRANCH  15  17
ENDBRANCH   8  11
BRANCH   5  20
ATOM     20  C   UNL     1      -0.261   9.542  22.704  0.00  0.00    +0.000 C 
ATOM     21  F   UNL     1      -0.989  10.427  23.442  0.00  0.00    +0.000 F 
ATOM     22  F   UNL     1      -0.903   8.347  22.821  0.00  0.00    +0.000 F 
ATOM     23  F   UNL     1       0.922   9.400  23.362  0.00  0.00    +0.000 F 
ENDBRANCH   5  20
BRANCH   1  24
ATOM     24  C   UNL     1      -1.573  12.524  18.786  0.00  0.00    +0.000 C 
BRANCH  24  30
ATOM     25  C   UNL     1      -2.571  10.878  16.271  0.00  0.00    +0.000 C 
ATOM     26  C   UNL     1      -3.293  11.385  17.275  0.00  0.00    +0.000 C 
ATOM     27  C   UNL     1      -4.798  11.289  17.282  0.00  0.00    +0.000 C 
ATOM     28  C   UNL     1      -5.162  11.523  18.746  0.00  0.00    +0.000 C 
ATOM     29  C   UNL     1      -3.979  12.267  19.359  0.00  0.00    +0.000 C 
ATOM     30  N   UNL     1      -2.881  12.011  18.435  0.00  0.00    +0.000 N 
ENDBRANCH  24  30
ENDBRANCH   1  24
TORSDOF 6
ENDMDL
MODEL 3
REMARK VINA RESULT:      -8.4      1.291      2.257
REMARK  Name = 
REMARK  7 active torsions:
REMARK  status: ('A' for Active; 'I' for Inactive)
REMARK    1  A    between atoms: N_6  and  C_7
REMARK    2  A    between atoms: C_7  and  C_8
REMARK    3  A    between atoms: C_12  and  C_13
REMARK    4  A    between atoms: N_19  and  C_20
REMARK    5  A    between atoms: C_24  and  C_25
REMARK    6  A    between atoms: C_25  and  O_26
REMARK    7  A    between atoms: O_26  and  C_27
REMARK                            x       y       z     vdW  Elec       q    Type
REMARK                         _______ _______ _______ _____ _____    ______ ____
ROOT
ATOM      1  C   UNL     1      -0.417  11.368  19.271  0.00  0.00    +0.000 A 
ATOM      2  C   UNL     1       0.490  10.644  18.493  0.00  0.00    +0.000 A 
ATOM      3  C   UNL     1       1.079   9.529  19.056  0.00  0.00    +0.000 A 
ATOM      4  C   UNL     1       0.856   9.124  20.367  0.00  0.00    +0.000 A 
ATOM      5  C   UNL     1       0.042   9.881  21.204  0.00  0.00    +0.000 A 
ATOM      6  C   UNL     1      -0.595  11.007  20.632  0.00  0.00    +0.000 A 
ATOM      7  C   UNL     1       1.554   7.821  20.601  0.00  0.00    +0.000 C 
ATOM      8  N   UNL     1       2.203   7.552  19.327  0.00  0.00    +0.000 N 
ATOM      9  C   UNL     1       1.938   8.561  18.396  0.00  0.00    +0.000 C 
ATOM     10  O   UNL     1       2.281   8.696  17.232  0.00  0.00    +0.000 OA
ENDROOT
BRANCH   8  11
ATOM     11  C   UNL     1       3.062   6.440  19.133  0.00  0.00    +0.000 A 
ATOM     12  C   UNL     1       4.258   6.568  18.419  0.00  0.00    +0.000 A 
ATOM     13  C   UNL     1       5.149   5.501  18.308  0.00  0.00    +0.000 A 
ATOM     14  C   UNL     1       4.850   4.275  18.892  0.00  0.00    +0.000 A 
ATOM     15  C   UNL     1       3.643   4.098  19.577  0.00  0.00    +0.000 A 
ATOM     16  C   UNL     1       2.760   5.186  19.690  0.00  0.00    +0.000 A 
BRANCH  15  17
ATOM     17  C   UNL     1       3.315   2.774  20.216  0.00  0.00    +0.000 C 
BRANCH  17  18
ATOM     18  O   UNL     1       1.902   2.652  20.361  0.00  0.00    +0.000 OA
ATOM     19  C   UNL     1       1.529   2.536  21.727  0.00  0.00    +0.000 C 
ENDBRANCH  17  18
ENDBRANCH  15  17
ENDBRANCH   8  11
BRANCH   5  20
ATOM     20  C   UNL     1      -0.208   9.508  22.643  0.00  0.00    +0.000 C 
ATOM     21  F   UNL     1       0.932   9.340  23.372  0.00  0.00    +0.000 F 
ATOM     22  F   UNL     1      -0.934  10.448  23.308  0.00  0.00    +0.000 F 
ATOM     23  F   UNL     1      -0.898   8.342  22.766  0.00  0.00    +0.000 F 
ENDBRANCH   5  20
BRANCH   1  24
ATOM     24  C   UNL     1      -1.268  12.437  18.610  0.00  0.00    +0.000 C 
BRANCH  24  30
ATOM     25  C   UNL     1      -4.146  12.501  19.930  0.00  0.00    +0.000 C 
ATOM     26  C   UNL     1      -3.761  11.902  18.799  0.00  0.00    +0.000 C 
ATOM     27  C   UNL     1      -4.719  11.054  17.999  0.00  0.00    +0.000 C 
ATOM     28  C   UNL     1      -4.065  10.987  16.621  0.00  0.00    +0.000 C 
ATOM     29  C   UNL     1      -2.585  11.287  16.842  0.00  0.00    +0.000 C 
ATOM     30  N   UNL     1      -2.547  11.944  18.141  0.00  0.00    +0.000 N 
ENDBRANCH  24  30
ENDBRANCH   1  24
TORSDOF 6
ENDMDL
MODEL 4
REMARK VINA RESULT:      -8.3      1.291      2.457
REMARK  Name = 
REMARK  7 active torsions:
REMARK  status: ('A' for Active; 'I' for Inactive)
REMARK    1  A    between atoms: N_6  and  C_7
REMARK    2  A    between atoms: C_7  and  C_8
REMARK    3  A    between atoms: C_12  and  C_13
REMARK    4  A    between atoms: N_19  and  C_20
REMARK    5  A    between atoms: C_24  and  C_25
REMARK    6  A    between atoms: C_25  and  O_26
REMARK    7  A    between atoms: O_26  and  C_27
REMARK                            x       y       z     vdW  Elec       q    Type
REMARK                         _______ _______ _______ _____ _____    ______ ____
ROOT
ATOM      1  C   UNL     1      -0.375  11.279  19.118  0.00  0.00    +0.000 A 
ATOM      2  C   UNL     1       0.535  10.528  18.369  0.00  0.00    +0.000 A 
ATOM      3  C   UNL     1       1.126   9.436  18.974  0.00  0.00    +0.000 A 
ATOM      4  C   UNL     1       0.903   9.081  20.299  0.00  0.00    +0.000 A 
ATOM      5  C   UNL     1       0.087   9.866  21.107  0.00  0.00    +0.000 A 
ATOM      6  C   UNL     1      -0.553  10.969  20.492  0.00  0.00    +0.000 A 
ATOM      7  C   UNL     1       1.604   7.789  20.583  0.00  0.00    +0.000 C 
ATOM      8  N   UNL     1       2.255   7.473  19.320  0.00  0.00    +0.000 N 
ATOM      9  C   UNL     1       1.987   8.446  18.352  0.00  0.00    +0.000 C 
ATOM     10  O   UNL     1       2.331   8.537  17.184  0.00  0.00    +0.000 OA
ENDROOT
BRANCH   8  11
ATOM     11  C   UNL     1       3.116   6.357  19.169  0.00  0.00    +0.000 A 
ATOM     12  C   UNL     1       4.315   6.462  18.457  0.00  0.00    +0.000 A 
ATOM     13  C   UNL     1       5.208   5.393  18.386  0.00  0.00    +0.000 A 
ATOM     14  C   UNL     1       4.908   4.188  19.011  0.00  0.00    +0.000 A 
ATOM     15  C   UNL     1       3.699   4.033  19.697  0.00  0.00    +0.000 A 
ATOM     16  C   UNL     1       2.813   5.123  19.768  0.00  0.00    +0.000 A 
BRANCH  15  17
ATOM     17  C   UNL     1       3.370   2.732  20.380  0.00  0.00    +0.000 C 
BRANCH  17  18
ATOM     18  O   UNL     1       2.067   2.305  19.990  0.00  0.00    +0.000 OA
ATOM     19  C   UNL     1       2.052   1.847  18.645  0.00  0.00    +0.000 C 
ENDBRANCH  17  18
ENDBRANCH  15  17
ENDBRANCH   8  11
BRANCH   5  20
ATOM     20  C   UNL     1      -0.163   9.548  22.559  0.00  0.00    +0.000 C 
ATOM     21  F   UNL     1       0.976   9.356  23.282  0.00  0.00    +0.000 F 
ATOM     22  F   UNL     1      -0.845  10.536  23.201  0.00  0.00    +0.000 F 
ATOM     23  F   UNL     1      -0.898   8.415  22.723  0.00  0.00    +0.000 F 
ENDBRANCH   5  20
BRANCH   1  24
ATOM     24  C   UNL     1      -1.227  12.319  18.417  0.00  0.00    +0.000 C 
BRANCH  24  30
ATOM     25  C   UNL     1      -2.495  10.598  16.081  0.00  0.00    +0.000 C 
ATOM     26  C   UNL     1      -3.115  11.217  17.090  0.00  0.00    +0.000 C 
ATOM     27  C   UNL     1      -4.620  11.231  17.193  0.00  0.00    +0.000 C 
ATOM     28  C   UNL     1      -4.872  11.580  18.658  0.00  0.00    +0.000 C 
ATOM     29  C   UNL     1      -3.604  12.274  19.148  0.00  0.00    +0.000 C 
ATOM     30  N   UNL     1      -2.588  11.882  18.180  0.00  0.00    +0.000 N 
ENDBRANCH  24  30
ENDBRANCH   1  24
TORSDOF 6
ENDMDL
MODEL 5
REMARK VINA RESULT:      -8.3      0.594      1.487
REMARK  Name = 
REMARK  7 active torsions:
REMARK  status: ('A' for Active; 'I' for Inactive)
REMARK    1  A    between atoms: N_6  and  C_7
REMARK    2  A    between atoms: C_7  and  C_8
REMARK    3  A    between atoms: C_12  and  C_13
REMARK    4  A    between atoms: N_19  and  C_20
REMARK    5  A    between atoms: C_24  and  C_25
REMARK    6  A    between atoms: C_25  and  O_26
REMARK    7  A    between atoms: O_26  and  C_27
REMARK                            x       y       z     vdW  Elec       q    Type
REMARK                         _______ _______ _______ _____ _____    ______ ____
ROOT
ATOM      1  C   UNL     1      -0.239  11.144  19.049  0.00  0.00    +0.000 A 
ATOM      2  C   UNL     1       0.679  10.346  18.362  0.00  0.00    +0.000 A 
ATOM      3  C   UNL     1       1.221   9.264  19.029  0.00  0.00    +0.000 A 
ATOM      4  C   UNL     1       0.943   8.964  20.357  0.00  0.00    +0.000 A 
ATOM      5  C   UNL     1       0.117   9.798  21.104  0.00  0.00    +0.000 A 
ATOM      6  C   UNL     1      -0.474  10.891  20.426  0.00  0.00    +0.000 A 
ATOM      7  C   UNL     1       1.601   7.669  20.713  0.00  0.00    +0.000 C 
ATOM      8  N   UNL     1       2.290   7.291  19.488  0.00  0.00    +0.000 N 
ATOM      9  C   UNL     1       2.081   8.232  18.475  0.00  0.00    +0.000 C 
ATOM     10  O   UNL     1       2.468   8.271  17.318  0.00  0.00    +0.000 OA
ENDROOT
BRANCH   8  11
ATOM     11  C   UNL     1       3.129   6.151  19.410  0.00  0.00    +0.000 A 
ATOM     12  C   UNL     1       2.615   4.863  19.599  0.00  0.00    +0.000 A 
ATOM     13  C   UNL     1       3.418   3.735  19.431  0.00  0.00    +0.000 A 
ATOM     14  C   UNL     1       4.758   3.874  19.090  0.00  0.00    +0.000 A 
ATOM     15  C   UNL     1       5.316   5.147  18.934  0.00  0.00    +0.000 A 
ATOM     16  C   UNL     1       4.492   6.275  19.097  0.00  0.00    +0.000 A 
BRANCH  15  17
ATOM     17  C   UNL     1       6.767   5.304  18.560  0.00  0.00    +0.000 C 
BRANCH  17  18
ATOM     18  O   UNL     1       7.072   4.448  17.462  0.00  0.00    +0.000 OA
ATOM     19  C   UNL     1       6.879   5.110  16.219  0.00  0.00    +0.000 C 
ENDBRANCH  17  18
ENDBRANCH  15  17
ENDBRANCH   8  11
BRANCH   5  20
ATOM     20  C   UNL     1      -0.193   9.541  22.557  0.00  0.00    +0.000 C 
ATOM     21  F   UNL     1      -0.943   8.423  22.767  0.00  0.00    +0.000 F 
ATOM     22  F   UNL     1       0.930   9.378  23.310  0.00  0.00    +0.000 F 
ATOM     23  F   UNL     1      -0.886  10.563  23.129  0.00  0.00    +0.000 F 
ENDBRANCH   5  20
BRANCH   1  24
ATOM     24  C   UNL     1      -1.041  12.177  18.279  0.00  0.00    +0.000 C 
BRANCH  24  30
ATOM     25  C   UNL     1      -2.486  10.486  16.025  0.00  0.00    +0.000 C 
ATOM     26  C   UNL     1      -3.033  11.155  17.044  0.00  0.00    +0.000 C 
ATOM     27  C   UNL     1      -4.531  11.251  17.203  0.00  0.00    +0.000 C 
ATOM     28  C   UNL     1      -4.707  11.638  18.669  0.00  0.00    +0.000 C 
ATOM     29  C   UNL     1      -3.386  12.271  19.099  0.00  0.00    +0.000 C 
ATOM     30  N   UNL     1      -2.431  11.809  18.101  0.00  0.00    +0.000 N 
ENDBRANCH  24  30
ENDBRANCH   1  24
TORSDOF 6
ENDMDL
MODEL 6
REMARK VINA RESULT:      -8.3      0.562      1.031
REMARK  Name = 
REMARK  7 active torsions:
REMARK  status: ('A' for Active; 'I' for Inactive)
REMARK    1  A    between atoms: N_6  and  C_7
REMARK    2  A    between atoms: C_7  and  C_8
REMARK    3  A    between atoms: C_12  and  C_13
REMARK    4  A    between atoms: N_19  and  C_20
REMARK    5  A    between atoms: C_24  and  C_25
REMARK    6  A    between atoms: C_25  and  O_26
REMARK    7  A    between atoms: O_26  and  C_27
REMARK                            x       y       z     vdW  Elec       q    Type
REMARK                         _______ _______ _______ _____ _____    ______ ____
ROOT
ATOM      1  C   UNL     1      -0.124  11.154  19.154  0.00  0.00    +0.000 A 
ATOM      2  C   UNL     1       0.756  10.297  18.488  0.00  0.00    +0.000 A 
ATOM      3  C   UNL     1       1.237   9.201  19.177  0.00  0.00    +0.000 A 
ATOM      4  C   UNL     1       0.934   8.939  20.508  0.00  0.00    +0.000 A 
ATOM      5  C   UNL     1       0.147   9.827  21.234  0.00  0.00    +0.000 A 
ATOM      6  C   UNL     1      -0.381  10.936  20.533  0.00  0.00    +0.000 A 
ATOM      7  C   UNL     1       1.522   7.617  20.892  0.00  0.00    +0.000 C 
ATOM      8  N   UNL     1       2.199   7.184  19.678  0.00  0.00    +0.000 N 
ATOM      9  C   UNL     1       2.046   8.116  18.648  0.00  0.00    +0.000 C 
ATOM     10  O   UNL     1       2.444   8.116  17.494  0.00  0.00    +0.000 OA
ENDROOT
BRANCH   8  11
ATOM     11  C   UNL     1       2.978   6.000  19.627  0.00  0.00    +0.000 A 
ATOM     12  C   UNL     1       2.488   4.791  20.132  0.00  0.00    +0.000 A 
ATOM     13  C   UNL     1       3.214   3.607  19.998  0.00  0.00    +0.000 A 
ATOM     14  C   UNL     1       4.455   3.613  19.373  0.00  0.00    +0.000 A 
ATOM     15  C   UNL     1       4.996   4.811  18.894  0.00  0.00    +0.000 A 
ATOM     16  C   UNL     1       4.248   5.995  19.026  0.00  0.00    +0.000 A 
BRANCH  15  17
ATOM     17  C   UNL     1       6.338   4.824  18.211  0.00  0.00    +0.000 C 
BRANCH  17  18
ATOM     18  O   UNL     1       6.296   5.708  17.093  0.00  0.00    +0.000 OA
ATOM     19  C   UNL     1       6.839   5.098  15.930  0.00  0.00    +0.000 C 
ENDBRANCH  17  18
ENDBRANCH  15  17
ENDBRANCH   8  11
BRANCH   5  20
ATOM     20  C   UNL     1      -0.186   9.611  22.688  0.00  0.00    +0.000 C 
ATOM     21  F   UNL     1       0.908   9.414  23.478  0.00  0.00    +0.000 F 
ATOM     22  F   UNL     1      -0.850  10.666  23.235  0.00  0.00    +0.000 F 
ATOM     23  F   UNL     1      -0.981   8.523  22.883  0.00  0.00    +0.000 F 
ENDBRANCH   5  20
BRANCH   1  24
ATOM     24  C   UNL     1      -0.866  12.213  18.360  0.00  0.00    +0.000 C 
BRANCH  24  30
ATOM     25  C   UNL     1      -3.638  12.509  19.861  0.00  0.00    +0.000 C 
ATOM     26  C   UNL     1      -3.375  11.871  18.717  0.00  0.00    +0.000 C 
ATOM     27  C   UNL     1      -4.443  11.089  17.993  0.00  0.00    +0.000 C 
ATOM     28  C   UNL     1      -3.888  10.958  16.577  0.00  0.00    +0.000 C 
ATOM     29  C   UNL     1      -2.378  11.148  16.698  0.00  0.00    +0.000 C 
ATOM     30  N   UNL     1      -2.206  11.813  17.982  0.00  0.00    +0.000 N 
ENDBRANCH  24  30
ENDBRANCH   1  24
TORSDOF 6
ENDMDL
MODEL 7
REMARK VINA RESULT:      -8.3      3.045      8.577
REMARK  Name = 
REMARK  7 active torsions:
REMARK  status: ('A' for Active; 'I' for Inactive)
REMARK    1  A    between atoms: N_6  and  C_7
REMARK    2  A    between atoms: C_7  and  C_8
REMARK    3  A    between atoms: C_12  and  C_13
REMARK    4  A    between atoms: N_19  and  C_20
REMARK    5  A    between atoms: C_24  and  C_25
REMARK    6  A    between atoms: C_25  and  O_26
REMARK    7  A    between atoms: O_26  and  C_27
REMARK                            x       y       z     vdW  Elec       q    Type
REMARK                         _______ _______ _______ _____ _____    ______ ____
ROOT
ATOM      1  C   UNL     1       3.668   6.703  17.519  0.00  0.00    +0.000 A 
ATOM      2  C   UNL     1       3.013   7.924  17.694  0.00  0.00    +0.000 A 
ATOM      3  C   UNL     1       2.172   8.057  18.782  0.00  0.00    +0.000 A 
ATOM      4  C   UNL     1       1.906   7.025  19.675  0.00  0.00    +0.000 A 
ATOM      5  C   UNL     1       2.457   5.764  19.472  0.00  0.00    +0.000 A 
ATOM      6  C   UNL     1       3.347   5.621  18.381  0.00  0.00    +0.000 A 
ATOM      7  C   UNL     1       1.057   7.551  20.789  0.00  0.00    +0.000 C 
ATOM      8  N   UNL     1       0.850   8.946  20.427  0.00  0.00    +0.000 N 
ATOM      9  C   UNL     1       1.501   9.264  19.232  0.00  0.00    +0.000 C 
ATOM     10  O   UNL     1       1.581  10.312  18.611  0.00  0.00    +0.000 OA
ENDROOT
BRANCH   8  11
ATOM     11  C   UNL     1       0.010   9.807  21.178  0.00  0.00    +0.000 A 
ATOM     12  C   UNL     1      -0.173   9.619  22.552  0.00  0.00    +0.000 A 
ATOM     13  C   UNL     1      -0.923  10.519  23.309  0.00  0.00    +0.000 A 
ATOM     14  C   UNL     1      -1.522  11.616  22.701  0.00  0.00    +0.000 A 
ATOM     15  C   UNL     1      -1.395  11.813  21.323  0.00  0.00    +0.000 A 
ATOM     16  C   UNL     1      -0.628  10.903  20.573  0.00  0.00    +0.000 A 
BRANCH  15  17
ATOM     17  C   UNL     1      -2.038  13.003  20.659  0.00  0.00    +0.000 C 
BRANCH  17  18
ATOM     18  O   UNL     1      -2.993  12.555  19.700  0.00  0.00    +0.000 OA
ATOM     19  C   UNL     1      -4.322  12.712  20.180  0.00  0.00    +0.000 C 
ENDBRANCH  17  18
ENDBRANCH  15  17
ENDBRANCH   8  11
BRANCH   5  20
ATOM     20  C   UNL     1       2.176   4.601  20.388  0.00  0.00    +0.000 C 
ATOM     21  F   UNL     1       2.832   3.458  20.039  0.00  0.00    +0.000 F 
ATOM     22  F   UNL     1       2.535   4.852  21.677  0.00  0.00    +0.000 F 
ATOM     23  F   UNL     1       0.856   4.272  20.421  0.00  0.00    +0.000 F 
ENDBRANCH   5  20
BRANCH   1  24
ATOM     24  C   UNL     1       4.783   6.603  16.494  0.00  0.00    +0.000 C 
BRANCH  24  30
ATOM     25  C   UNL     1       6.386   4.017  15.619  0.00  0.00    +0.000 C 
ATOM     26  C   UNL     1       6.601   4.814  16.669  0.00  0.00    +0.000 C 
ATOM     27  C   UNL     1       7.673   4.499  17.683  0.00  0.00    +0.000 C 
ATOM     28  C   UNL     1       7.903   5.837  18.382  0.00  0.00    +0.000 C 
ATOM     29  C   UNL     1       6.634   6.654  18.154  0.00  0.00    +0.000 C 
ATOM     30  N   UNL     1       5.993   6.004  17.019  0.00  0.00    +0.000 N 
ENDBRANCH  24  30
ENDBRANCH   1  24
TORSDOF 6
ENDMDL
MODEL 8
REMARK VINA RESULT:      -8.2      1.150      1.868
REMARK  Name = 
REMARK  7 active torsions:
REMARK  status: ('A' for Active; 'I' for Inactive)
REMARK    1  A    between atoms: N_6  and  C_7
REMARK    2  A    between atoms: C_7  and  C_8
REMARK    3  A    between atoms: C_12  and  C_13
REMARK    4  A    between atoms: N_19  and  C_20
REMARK    5  A    between atoms: C_24  and  C_25
REMARK    6  A    between atoms: C_25  and  O_26
REMARK    7  A    between atoms: O_26  and  C_27
REMARK                            x       y       z     vdW  Elec       q    Type
REMARK                         _______ _______ _______ _____ _____    ______ ____
ROOT
ATOM      1  C   UNL     1      -0.730  11.582  19.532  0.00  0.00    +0.000 A 
ATOM      2  C   UNL     1       0.177  10.965  18.667  0.00  0.00    +0.000 A 
ATOM      3  C   UNL     1       0.851   9.849  19.124  0.00  0.00    +0.000 A 
ATOM      4  C   UNL     1       0.713   9.345  20.412  0.00  0.00    +0.000 A 
ATOM      5  C   UNL     1      -0.100   9.996  21.335  0.00  0.00    +0.000 A 
ATOM      6  C   UNL     1      -0.824  11.119  20.871  0.00  0.00    +0.000 A 
ATOM      7  C   UNL     1       1.491   8.071  20.523  0.00  0.00    +0.000 C 
ATOM      8  N   UNL     1       2.093   7.927  19.206  0.00  0.00    +0.000 N 
ATOM      9  C   UNL     1       1.729   8.979  18.361  0.00  0.00    +0.000 C 
ATOM     10  O   UNL     1       2.009   9.211  17.195  0.00  0.00    +0.000 OA
ENDROOT
BRANCH   8  11
ATOM     11  C   UNL     1       3.000   6.881  18.898  0.00  0.00    +0.000 A 
ATOM     12  C   UNL     1       3.160   5.788  19.757  0.00  0.00    +0.000 A 
ATOM     13  C   UNL     1       3.981   4.715  19.412  0.00  0.00    +0.000 A 
ATOM     14  C   UNL     1       4.674   4.722  18.207  0.00  0.00    +0.000 A 
ATOM     15  C   UNL     1       4.572   5.817  17.343  0.00  0.00    +0.000 A 
ATOM     16  C   UNL     1       3.733   6.888  17.699  0.00  0.00    +0.000 A 
BRANCH  15  17
ATOM     17  C   UNL     1       5.317   5.830  16.035  0.00  0.00    +0.000 C 
BRANCH  17  18
ATOM     18  O   UNL     1       6.359   4.858  16.070  0.00  0.00    +0.000 OA
ATOM     19  C   UNL     1       6.396   4.094  14.872  0.00  0.00    +0.000 C 
ENDBRANCH  17  18
ENDBRANCH  15  17
ENDBRANCH   8  11
BRANCH   5  20
ATOM     20  C   UNL     1      -0.261   9.513  22.753  0.00  0.00    +0.000 C 
ATOM     21  F   UNL     1       0.920   9.363  23.418  0.00  0.00    +0.000 F 
ATOM     22  F   UNL     1      -1.006  10.363  23.513  0.00  0.00    +0.000 F 
ATOM     23  F   UNL     1      -0.880   8.303  22.824  0.00  0.00    +0.000 F 
ENDBRANCH   5  20
BRANCH   1  24
ATOM     24  C   UNL     1      -1.668  12.642  18.985  0.00  0.00    +0.000 C 
BRANCH  24  30
ATOM     25  C   UNL     1      -2.655  10.942  16.502  0.00  0.00    +0.000 C 
ATOM     26  C   UNL     1      -3.382  11.475  17.488  0.00  0.00    +0.000 C 
ATOM     27  C   UNL     1      -4.888  11.386  17.485  0.00  0.00    +0.000 C 
ATOM     28  C   UNL     1      -5.261  11.656  18.941  0.00  0.00    +0.000 C 
ATOM     29  C   UNL     1      -4.079  12.409  19.546  0.00  0.00    +0.000 C 
ATOM     30  N   UNL     1      -2.977  12.126  18.637  0.00  0.00    +0.000 N 
ENDBRANCH  24  30
ENDBRANCH   1  24
TORSDOF 6
ENDMDL
MODEL 9
REMARK VINA RESULT:      -8.2      3.042      8.435
REMARK  Name = 
REMARK  7 active torsions:
REMARK  status: ('A' for Active; 'I' for Inactive)
REMARK    1  A    between atoms: N_6  and  C_7
REMARK    2  A    between atoms: C_7  and  C_8
REMARK    3  A    between atoms: C_12  and  C_13
REMARK    4  A    between atoms: N_19  and  C_20
REMARK    5  A    between atoms: C_24  and  C_25
REMARK    6  A    between atoms: C_25  and  O_26
REMARK    7  A    between atoms: O_26  and  C_27
REMARK                            x       y       z     vdW  Elec       q    Type
REMARK                         _______ _______ _______ _____ _____    ______ ____
ROOT
ATOM      1  C   UNL     1       3.786   6.344  17.712  0.00  0.00    +0.000 A 
ATOM      2  C   UNL     1       3.157   7.586  17.822  0.00  0.00    +0.000 A 
ATOM      3  C   UNL     1       2.282   7.777  18.874  0.00  0.00    +0.000 A 
ATOM      4  C   UNL     1       1.957   6.784  19.790  0.00  0.00    +0.000 A 
ATOM      5  C   UNL     1       2.481   5.503  19.649  0.00  0.00    +0.000 A 
ATOM      6  C   UNL     1       3.405   5.301  18.597  0.00  0.00    +0.000 A 
ATOM      7  C   UNL     1       1.082   7.369  20.854  0.00  0.00    +0.000 C 
ATOM      8  N   UNL     1       0.926   8.755  20.439  0.00  0.00    +0.000 N 
ATOM      9  C   UNL     1       1.627   9.016  19.259  0.00  0.00    +0.000 C 
ATOM     10  O   UNL     1       1.757  10.040  18.606  0.00  0.00    +0.000 OA
ENDROOT
BRANCH   8  11
ATOM     11  C   UNL     1       0.083   9.662  21.129  0.00  0.00    +0.000 A 
ATOM     12  C   UNL     1      -0.129   9.545  22.507  0.00  0.00    +0.000 A 
ATOM     13  C   UNL     1      -0.882  10.490  23.204  0.00  0.00    +0.000 A 
ATOM     14  C   UNL     1      -1.455  11.563  22.531  0.00  0.00    +0.000 A 
ATOM     15  C   UNL     1      -1.301  11.689  21.147  0.00  0.00    +0.000 A 
ATOM     16  C   UNL     1      -0.530  10.734  20.459  0.00  0.00    +0.000 A 
BRANCH  15  17
ATOM     17  C   UNL     1      -1.916  12.851  20.412  0.00  0.00    +0.000 C 
BRANCH  17  18
ATOM     18  O   UNL     1      -3.065  12.408  19.696  0.00  0.00    +0.000 OA
ATOM     19  C   UNL     1      -4.265  12.769  20.366  0.00  0.00    +0.000 C 
ENDBRANCH  17  18
ENDBRANCH  15  17
ENDBRANCH   8  11
BRANCH   5  20
ATOM     20  C   UNL     1       2.137   4.379  20.592  0.00  0.00    +0.000 C 
ATOM     21  F   UNL     1       2.496   4.619  21.885  0.00  0.00    +0.000 F 
ATOM     22  F   UNL     1       0.802   4.112  20.624  0.00  0.00    +0.000 F 
ATOM     23  F   UNL     1       2.746   3.210  20.252  0.00  0.00    +0.000 F 
ENDBRANCH   5  20
BRANCH   1  24
ATOM     24  C   UNL     1       4.933   6.182  16.733  0.00  0.00    +0.000 C 
BRANCH  24  30
ATOM     25  C   UNL     1       7.357   4.589  18.003  0.00  0.00    +0.000 C 
ATOM     26  C   UNL     1       7.193   5.911  17.900  0.00  0.00    +0.000 C 
ATOM     27  C   UNL     1       8.190   6.873  18.496  0.00  0.00    +0.000 C 
ATOM     28  C   UNL     1       7.907   8.179  17.759  0.00  0.00    +0.000 C 
ATOM     29  C   UNL     1       6.479   8.064  17.233  0.00  0.00    +0.000 C 
ATOM     30  N   UNL     1       6.205   6.634  17.259  0.00  0.00    +0.000 N 
ENDBRANCH  24  30
ENDBRANCH   1  24
TORSDOF 6
ENDMDL
