MODEL 1
REMARK VINA RESULT:      -9.1      0.000      0.000
REMARK  Name = 
REMARK  4 active torsions:
REMARK  status: ('A' for Active; 'I' for Inactive)
REMARK    1  A    between atoms: C_2  and  C_3
REMARK    2  A    between atoms: C_3  and  C_4
REMARK    3  A    between atoms: N_15  and  C_16
REMARK    4  A    between atoms: C_20  and  N_21
REMARK                            x       y       z     vdW  Elec       q    Type
REMARK                         _______ _______ _______ _____ _____    ______ ____
ROOT
ATOM      1  O   UNL     1       8.540   7.288  19.013  0.00  0.00    +0.000 OA
ATOM      2  C   UNL     1       8.045   7.834  18.032  0.00  0.00    +0.000 C 
ATOM      3  N   UNL     1       8.062   9.189  17.743  0.00  0.00    +0.000 N 
ATOM      4  H   UNL     1       7.655   9.471  16.854  0.00  0.00    +0.000 HD
ENDROOT
BRANCH   3   5
ATOM      5  C   UNL     1       8.679  10.211  18.503  0.00  0.00    +0.000 A 
ATOM      6  C   UNL     1       9.051  10.060  19.836  0.00  0.00    +0.000 A 
ATOM      7  C   UNL     1       9.655  11.112  20.517  0.00  0.00    +0.000 A 
ATOM      8  C   UNL     1       9.915  12.313  19.858  0.00  0.00    +0.000 A 
ATOM      9  C   UNL     1       9.596  12.506  18.504  0.00  0.00    +0.000 A 
ATOM     10  C   UNL     1       8.950  11.433  17.859  0.00  0.00    +0.000 A 
BRANCH   9  11
ATOM     11  N   UNL     1       9.944  13.681  17.833  0.00  0.00    +0.000 N 
ATOM     12  C   UNL     1      10.986  13.678  16.807  0.00  0.00    +0.000 C 
ATOM     13  C   UNL     1      12.302  14.210  17.373  0.00  0.00    +0.000 C 
ATOM     14  C   UNL     1      12.333  15.723  17.589  0.00  0.00    +0.000 C 
ATOM     15  C   UNL     1      11.202  16.282  18.452  0.00  0.00    +0.000 C 
ATOM     16  C   UNL     1       9.840  16.194  17.765  0.00  0.00    +0.000 C 
ATOM     17  C   UNL     1       9.110  14.874  18.002  0.00  0.00    +0.000 C 
ENDBRANCH   9  11
ENDBRANCH   3   5
BRANCH   2  18
ATOM     18  C   UNL     1       7.356   6.992  16.970  0.00  0.00    +0.000 C 
BRANCH  18  19
ATOM     19  C   UNL     1       6.366   6.077  17.632  0.00  0.00    +0.000 A 
ATOM     20  C   UNL     1       5.118   6.449  17.970  0.00  0.00    +0.000 A 
ATOM     21  C   UNL     1       4.196   5.497  18.591  0.00  0.00    +0.000 A 
ATOM     22  C   UNL     1       2.895   5.866  18.944  0.00  0.00    +0.000 A 
ATOM     23  C   UNL     1       2.037   4.927  19.526  0.00  0.00    +0.000 A 
ATOM     24  C   UNL     1       2.478   3.623  19.758  0.00  0.00    +0.000 A 
ATOM     25  C   UNL     1       3.778   3.249  19.408  0.00  0.00    +0.000 A 
ATOM     26  C   UNL     1       4.628   4.186  18.824  0.00  0.00    +0.000 A 
ATOM     27  N   UNL     1       5.932   3.821  18.462  0.00  0.00    +0.000 N 
ATOM     28  C   UNL     1       6.831   4.683  17.896  0.00  0.00    +0.000 A 
ATOM     29  O   UNL     1       7.977   4.338  17.612  0.00  0.00    +0.000 OA
ATOM     30  H   UNL     1       6.259   2.879  18.630  0.00  0.00    +0.000 HD
ENDBRANCH  18  19
ENDBRANCH   2  18
TORSDOF 4
ENDMDL
MODEL 2
REMARK VINA RESULT:      -9.0      6.549      9.918
REMARK  Name = 
REMARK  4 active torsions:
REMARK  status: ('A' for Active; 'I' for Inactive)
REMARK    1  A    between atoms: C_2  and  C_3
REMARK    2  A    between atoms: C_3  and  C_4
REMARK    3  A    between atoms: N_15  and  C_16
REMARK    4  A    between atoms: C_20  and  N_21
REMARK                            x       y       z     vdW  Elec       q    Type
REMARK                         _______ _______ _______ _____ _____    ______ ____
ROOT
ATOM      1  O   UNL     1      -0.065   8.160  21.461  0.00  0.00    +0.000 OA
ATOM      2  C   UNL     1       0.787   8.732  20.788  0.00  0.00    +0.000 C 
ATOM      3  N   UNL     1       1.839   8.139  20.109  0.00  0.00    +0.000 N 
ATOM      4  H   UNL     1       2.424   8.755  19.547  0.00  0.00    +0.000 HD
ENDROOT
BRANCH   3   5
ATOM      5  C   UNL     1       2.126   6.756  20.029  0.00  0.00    +0.000 A 
ATOM      6  C   UNL     1       1.380   5.777  20.680  0.00  0.00    +0.000 A 
ATOM      7  C   UNL     1       1.724   4.435  20.551  0.00  0.00    +0.000 A 
ATOM      8  C   UNL     1       2.801   4.063  19.748  0.00  0.00    +0.000 A 
ATOM      9  C   UNL     1       3.564   5.006  19.038  0.00  0.00    +0.000 A 
ATOM     10  C   UNL     1       3.210   6.357  19.224  0.00  0.00    +0.000 A 
BRANCH   9  11
ATOM     11  N   UNL     1       4.581   4.613  18.166  0.00  0.00    +0.000 N 
ATOM     12  C   UNL     1       5.983   4.653  18.582  0.00  0.00    +0.000 C 
ATOM     13  C   UNL     1       6.675   5.895  18.023  0.00  0.00    +0.000 C 
ATOM     14  C   UNL     1       6.983   5.830  16.527  0.00  0.00    +0.000 C 
ATOM     15  C   UNL     1       5.785   5.527  15.627  0.00  0.00    +0.000 C 
ATOM     16  C   UNL     1       5.266   4.100  15.799  0.00  0.00    +0.000 C 
ATOM     17  C   UNL     1       4.228   3.948  16.909  0.00  0.00    +0.000 C 
ENDBRANCH   9  11
ENDBRANCH   3   5
BRANCH   2  18
ATOM     18  C   UNL     1       0.720  10.240  20.614  0.00  0.00    +0.000 C 
BRANCH  18  19
ATOM     19  C   UNL     1      -0.458  10.585  19.749  0.00  0.00    +0.000 A 
ATOM     20  C   UNL     1      -0.690  10.028  18.547  0.00  0.00    +0.000 A 
ATOM     21  C   UNL     1      -1.872  10.394  17.768  0.00  0.00    +0.000 A 
ATOM     22  C   UNL     1      -2.130   9.821  16.519  0.00  0.00    +0.000 A 
ATOM     23  C   UNL     1      -3.276  10.186  15.806  0.00  0.00    +0.000 A 
ATOM     24  C   UNL     1      -4.162  11.126  16.337  0.00  0.00    +0.000 A 
ATOM     25  C   UNL     1      -3.910  11.703  17.583  0.00  0.00    +0.000 A 
ATOM     26  C   UNL     1      -2.769  11.332  18.293  0.00  0.00    +0.000 A 
ATOM     27  N   UNL     1      -2.508  11.899  19.548  0.00  0.00    +0.000 N 
ATOM     28  C   UNL     1      -1.407  11.598  20.302  0.00  0.00    +0.000 A 
ATOM     29  O   UNL     1      -1.193  12.132  21.389  0.00  0.00    +0.000 OA
ATOM     30  H   UNL     1      -3.144  12.582  19.937  0.00  0.00    +0.000 HD
ENDBRANCH  18  19
ENDBRANCH   2  18
TORSDOF 4
ENDMDL
MODEL 3
REMARK VINA RESULT:      -9.0      2.105      3.141
REMARK  Name = 
REMARK  4 active torsions:
REMARK  status: ('A' for Active; 'I' for Inactive)
REMARK    1  A    between atoms: C_2  and  C_3
REMARK    2  A    between atoms: C_3  and  C_4
REMARK    3  A    between atoms: N_15  and  C_16
REMARK    4  A    between atoms: C_20  and  N_21
REMARK                            x       y       z     vdW  Elec       q    Type
REMARK                         _______ _______ _______ _____ _____    ______ ____
ROOT
ATOM      1  O   UNL     1       7.585   7.922  17.313  0.00  0.00    +0.000 OA
ATOM      2  C   UNL     1       8.162   7.639  18.359  0.00  0.00    +0.000 C 
ATOM      3  N   UNL     1       8.841   8.514  19.191  0.00  0.00    +0.000 N 
ATOM      4  H   UNL     1       9.215   8.124  20.055  0.00  0.00    +0.000 HD
ENDROOT
BRANCH   3   5
ATOM      5  C   UNL     1       8.981   9.912  19.021  0.00  0.00    +0.000 A 
ATOM      6  C   UNL     1       8.869  10.552  17.790  0.00  0.00    +0.000 A 
ATOM      7  C   UNL     1       9.017  11.932  17.703  0.00  0.00    +0.000 A 
ATOM      8  C   UNL     1       9.252  12.683  18.854  0.00  0.00    +0.000 A 
ATOM      9  C   UNL     1       9.335  12.094  20.127  0.00  0.00    +0.000 A 
ATOM     10  C   UNL     1       9.219  10.691  20.169  0.00  0.00    +0.000 A 
BRANCH   9  11
ATOM     11  N   UNL     1       9.479  12.868  21.280  0.00  0.00    +0.000 N 
ATOM     12  C   UNL     1       9.003  12.381  22.575  0.00  0.00    +0.000 C 
ATOM     13  C   UNL     1       7.658  13.015  22.927  0.00  0.00    +0.000 C 
ATOM     14  C   UNL     1       7.741  14.479  23.360  0.00  0.00    +0.000 C 
ATOM     15  C   UNL     1       8.444  15.411  22.373  0.00  0.00    +0.000 C 
ATOM     16  C   UNL     1       9.943  15.136  22.268  0.00  0.00    +0.000 C 
ATOM     17  C   UNL     1      10.308  14.076  21.232  0.00  0.00    +0.000 C 
ENDBRANCH   9  11
ENDBRANCH   3   5
BRANCH   2  18
ATOM     18  C   UNL     1       8.140   6.207  18.866  0.00  0.00    +0.000 C 
BRANCH  18  19
ATOM     19  C   UNL     1       6.850   5.558  18.455  0.00  0.00    +0.000 A 
ATOM     20  C   UNL     1       5.669   5.806  19.048  0.00  0.00    +0.000 A 
ATOM     21  C   UNL     1       4.445   5.155  18.580  0.00  0.00    +0.000 A 
ATOM     22  C   UNL     1       3.209   5.405  19.183  0.00  0.00    +0.000 A 
ATOM     23  C   UNL     1       2.057   4.773  18.703  0.00  0.00    +0.000 A 
ATOM     24  C   UNL     1       2.140   3.889  17.624  0.00  0.00    +0.000 A 
ATOM     25  C   UNL     1       3.372   3.635  17.019  0.00  0.00    +0.000 A 
ATOM     26  C   UNL     1       4.517   4.270  17.497  0.00  0.00    +0.000 A 
ATOM     27  N   UNL     1       5.759   4.028  16.894  0.00  0.00    +0.000 N 
ATOM     28  C   UNL     1       6.929   4.602  17.310  0.00  0.00    +0.000 A 
ATOM     29  O   UNL     1       8.007   4.349  16.775  0.00  0.00    +0.000 OA
ATOM     30  H   UNL     1       5.826   3.387  16.114  0.00  0.00    +0.000 HD
ENDBRANCH  18  19
ENDBRANCH   2  18
TORSDOF 4
ENDMDL
MODEL 4
REMARK VINA RESULT:      -8.9      0.911      1.212
REMARK  Name = 
REMARK  4 active torsions:
REMARK  status: ('A' for Active; 'I' for Inactive)
REMARK    1  A    between atoms: C_2  and  C_3
REMARK    2  A    between atoms: C_3  and  C_4
REMARK    3  A    between atoms: N_15  and  C_16
REMARK    4  A    between atoms: C_20  and  N_21
REMARK                            x       y       z     vdW  Elec       q    Type
REMARK                         _______ _______ _______ _____ _____    ______ ____
ROOT
ATOM      1  O   UNL     1       8.352   7.281  18.906  0.00  0.00    +0.000 OA
ATOM      2  C   UNL     1       8.108   7.939  17.899  0.00  0.00    +0.000 C 
ATOM      3  N   UNL     1       8.357   9.288  17.712  0.00  0.00    +0.000 N 
ATOM      4  H   UNL     1       8.147   9.668  16.790  0.00  0.00    +0.000 HD
ENDROOT
BRANCH   3   5
ATOM      5  C   UNL     1       8.969  10.174  18.630  0.00  0.00    +0.000 A 
ATOM      6  C   UNL     1       8.902  10.016  20.012  0.00  0.00    +0.000 A 
ATOM      7  C   UNL     1       9.533  10.928  20.851  0.00  0.00    +0.000 A 
ATOM      8  C   UNL     1      10.258  11.990  20.311  0.00  0.00    +0.000 A 
ATOM      9  C   UNL     1      10.391  12.174  18.925  0.00  0.00    +0.000 A 
ATOM     10  C   UNL     1       9.706  11.254  18.108  0.00  0.00    +0.000 A 
BRANCH   9  11
ATOM     11  N   UNL     1      11.195  13.188  18.398  0.00  0.00    +0.000 N 
ATOM     12  C   UNL     1      12.332  13.712  19.153  0.00  0.00    +0.000 C 
ATOM     13  C   UNL     1      11.971  15.039  19.819  0.00  0.00    +0.000 C 
ATOM     14  C   UNL     1      11.889  16.228  18.862  0.00  0.00    +0.000 C 
ATOM     15  C   UNL     1      10.950  16.041  17.670  0.00  0.00    +0.000 C 
ATOM     16  C   UNL     1      11.463  15.002  16.674  0.00  0.00    +0.000 C 
ATOM     17  C   UNL     1      11.032  13.572  16.993  0.00  0.00    +0.000 C 
ENDBRANCH   9  11
ENDBRANCH   3   5
BRANCH   2  18
ATOM     18  C   UNL     1       7.501   7.256  16.684  0.00  0.00    +0.000 C 
BRANCH  18  19
ATOM     19  C   UNL     1       6.449   6.285  17.138  0.00  0.00    +0.000 A 
ATOM     20  C   UNL     1       5.187   6.639  17.441  0.00  0.00    +0.000 A 
ATOM     21  C   UNL     1       4.207   5.636  17.854  0.00  0.00    +0.000 A 
ATOM     22  C   UNL     1       2.891   5.987  18.167  0.00  0.00    +0.000 A 
ATOM     23  C   UNL     1       1.976   5.000  18.549  0.00  0.00    +0.000 A 
ATOM     24  C   UNL     1       2.376   3.663  18.621  0.00  0.00    +0.000 A 
ATOM     25  C   UNL     1       3.690   3.306  18.310  0.00  0.00    +0.000 A 
ATOM     26  C   UNL     1       4.597   4.293  17.925  0.00  0.00    +0.000 A 
ATOM     27  N   UNL     1       5.917   3.947  17.605  0.00  0.00    +0.000 N 
ATOM     28  C   UNL     1       6.869   4.855  17.230  0.00  0.00    +0.000 A 
ATOM     29  O   UNL     1       8.026   4.522  16.979  0.00  0.00    +0.000 OA
ATOM     30  H   UNL     1       6.214   2.981  17.657  0.00  0.00    +0.000 HD
ENDBRANCH  18  19
ENDBRANCH   2  18
TORSDOF 4
ENDMDL
MODEL 5
REMARK VINA RESULT:      -8.6      6.475      9.770
REMARK  Name = 
REMARK  4 active torsions:
REMARK  status: ('A' for Active; 'I' for Inactive)
REMARK    1  A    between atoms: C_2  and  C_3
REMARK    2  A    between atoms: C_3  and  C_4
REMARK    3  A    between atoms: N_15  and  C_16
REMARK    4  A    between atoms: C_20  and  N_21
REMARK                            x       y       z     vdW  Elec       q    Type
REMARK                         _______ _______ _______ _____ _____    ______ ____
ROOT
ATOM      1  O   UNL     1       0.172   8.546  21.505  0.00  0.00    +0.000 OA
ATOM      2  C   UNL     1       0.890   9.029  20.634  0.00  0.00    +0.000 C 
ATOM      3  N   UNL     1       1.851   8.364  19.891  0.00  0.00    +0.000 N 
ATOM      4  H   UNL     1       2.319   8.901  19.164  0.00  0.00    +0.000 HD
ENDROOT
BRANCH   3   5
ATOM      5  C   UNL     1       2.179   6.989  19.965  0.00  0.00    +0.000 A 
ATOM      6  C   UNL     1       1.507   6.080  20.777  0.00  0.00    +0.000 A 
ATOM      7  C   UNL     1       1.887   4.742  20.793  0.00  0.00    +0.000 A 
ATOM      8  C   UNL     1       2.926   4.301  19.975  0.00  0.00    +0.000 A 
ATOM      9  C   UNL     1       3.613   5.167  19.108  0.00  0.00    +0.000 A 
ATOM     10  C   UNL     1       3.226   6.521  19.148  0.00  0.00    +0.000 A 
BRANCH   9  11
ATOM     11  N   UNL     1       4.590   4.694  18.229  0.00  0.00    +0.000 N 
ATOM     12  C   UNL     1       6.003   4.699  18.604  0.00  0.00    +0.000 C 
ATOM     13  C   UNL     1       6.725   5.886  17.968  0.00  0.00    +0.000 C 
ATOM     14  C   UNL     1       6.988   5.739  16.469  0.00  0.00    +0.000 C 
ATOM     15  C   UNL     1       5.753   5.442  15.617  0.00  0.00    +0.000 C 
ATOM     16  C   UNL     1       5.186   4.046  15.871  0.00  0.00    +0.000 C 
ATOM     17  C   UNL     1       4.175   3.986  17.014  0.00  0.00    +0.000 C 
ENDBRANCH   9  11
ENDBRANCH   3   5
BRANCH   2  18
ATOM     18  C   UNL     1       0.736  10.494  20.261  0.00  0.00    +0.000 C 
BRANCH  18  19
ATOM     19  C   UNL     1      -0.453  10.651  19.358  0.00  0.00    +0.000 A 
ATOM     20  C   UNL     1      -1.604  11.235  19.735  0.00  0.00    +0.000 A 
ATOM     21  C   UNL     1      -2.716  11.376  18.794  0.00  0.00    +0.000 A 
ATOM     22  C   UNL     1      -3.917  11.985  19.169  0.00  0.00    +0.000 A 
ATOM     23  C   UNL     1      -4.955  12.112  18.240  0.00  0.00    +0.000 A 
ATOM     24  C   UNL     1      -4.796  11.629  16.940  0.00  0.00    +0.000 A 
ATOM     25  C   UNL     1      -3.598  11.019  16.559  0.00  0.00    +0.000 A 
ATOM     26  C   UNL     1      -2.564  10.899  17.487  0.00  0.00    +0.000 A 
ATOM     27  N   UNL     1      -1.355  10.294  17.115  0.00  0.00    +0.000 N 
ATOM     28  C   UNL     1      -0.298  10.127  17.968  0.00  0.00    +0.000 A 
ATOM     29  O   UNL     1       0.741   9.570  17.618  0.00  0.00    +0.000 OA
ATOM     30  H   UNL     1      -1.234   9.940  16.176  0.00  0.00    +0.000 HD
ENDBRANCH  18  19
ENDBRANCH   2  18
TORSDOF 4
ENDMDL
MODEL 6
REMARK VINA RESULT:      -8.6      6.464      9.166
REMARK  Name = 
REMARK  4 active torsions:
REMARK  status: ('A' for Active; 'I' for Inactive)
REMARK    1  A    between atoms: C_2  and  C_3
REMARK    2  A    between atoms: C_3  and  C_4
REMARK    3  A    between atoms: N_15  and  C_16
REMARK    4  A    between atoms: C_20  and  N_21
REMARK                            x       y       z     vdW  Elec       q    Type
REMARK                         _______ _______ _______ _____ _____    ______ ____
ROOT
ATOM      1  O   UNL     1       1.568   8.601  19.640  0.00  0.00    +0.000 OA
ATOM      2  C   UNL     1       1.754   8.877  18.458  0.00  0.00    +0.000 C 
ATOM      3  N   UNL     1       0.897   9.583  17.630  0.00  0.00    +0.000 N 
ATOM      4  H   UNL     1       1.230   9.778  16.688  0.00  0.00    +0.000 HD
ENDROOT
BRANCH   3   5
ATOM      5  C   UNL     1      -0.349  10.153  17.985  0.00  0.00    +0.000 A 
ATOM      6  C   UNL     1      -1.548   9.840  17.349  0.00  0.00    +0.000 A 
ATOM      7  C   UNL     1      -2.734  10.441  17.758  0.00  0.00    +0.000 A 
ATOM      8  C   UNL     1      -2.731  11.340  18.824  0.00  0.00    +0.000 A 
ATOM      9  C   UNL     1      -1.557  11.662  19.526  0.00  0.00    +0.000 A 
ATOM     10  C   UNL     1      -0.370  11.064  19.058  0.00  0.00    +0.000 A 
BRANCH   9  11
ATOM     11  N   UNL     1      -1.584  12.493  20.648  0.00  0.00    +0.000 N 
ATOM     12  C   UNL     1      -0.836  12.147  21.856  0.00  0.00    +0.000 C 
ATOM     13  C   UNL     1      -1.763  11.542  22.909  0.00  0.00    +0.000 C 
ATOM     14  C   UNL     1      -2.677  12.551  23.604  0.00  0.00    +0.000 C 
ATOM     15  C   UNL     1      -3.536  13.404  22.671  0.00  0.00    +0.000 C 
ATOM     16  C   UNL     1      -2.710  14.394  21.852  0.00  0.00    +0.000 C 
ATOM     17  C   UNL     1      -2.184  13.825  20.536  0.00  0.00    +0.000 C 
ENDBRANCH   9  11
ENDBRANCH   3   5
BRANCH   2  18
ATOM     18  C   UNL     1       3.050   8.461  17.783  0.00  0.00    +0.000 C 
BRANCH  18  19
ATOM     19  C   UNL     1       3.170   6.965  17.825  0.00  0.00    +0.000 A 
ATOM     20  C   UNL     1       2.152   6.143  18.137  0.00  0.00    +0.000 A 
ATOM     21  C   UNL     1       2.334   4.692  18.136  0.00  0.00    +0.000 A 
ATOM     22  C   UNL     1       1.285   3.825  18.453  0.00  0.00    +0.000 A 
ATOM     23  C   UNL     1       1.492   2.441  18.431  0.00  0.00    +0.000 A 
ATOM     24  C   UNL     1       2.746   1.925  18.096  0.00  0.00    +0.000 A 
ATOM     25  C   UNL     1       3.798   2.786  17.778  0.00  0.00    +0.000 A 
ATOM     26  C   UNL     1       3.586   4.165  17.797  0.00  0.00    +0.000 A 
ATOM     27  N   UNL     1       4.633   5.039  17.475  0.00  0.00    +0.000 N 
ATOM     28  C   UNL     1       4.510   6.402  17.480  0.00  0.00    +0.000 A 
ATOM     29  O   UNL     1       5.455   7.143  17.216  0.00  0.00    +0.000 OA
ATOM     30  H   UNL     1       5.543   4.672  17.234  0.00  0.00    +0.000 HD
ENDBRANCH  18  19
ENDBRANCH   2  18
TORSDOF 4
ENDMDL
MODEL 7
REMARK VINA RESULT:      -8.6      7.626      9.995
REMARK  Name = 
REMARK  4 active torsions:
REMARK  status: ('A' for Active; 'I' for Inactive)
REMARK    1  A    between atoms: C_2  and  C_3
REMARK    2  A    between atoms: C_3  and  C_4
REMARK    3  A    between atoms: N_15  and  C_16
REMARK    4  A    between atoms: C_20  and  N_21
REMARK                            x       y       z     vdW  Elec       q    Type
REMARK                         _______ _______ _______ _____ _____    ______ ____
ROOT
ATOM      1  O   UNL     1      -0.527   8.346  21.483  0.00  0.00    +0.000 OA
ATOM      2  C   UNL     1       0.410   8.722  20.784  0.00  0.00    +0.000 C 
ATOM      3  N   UNL     1       0.364   9.680  19.784  0.00  0.00    +0.000 N 
ATOM      4  H   UNL     1       1.248   9.917  19.339  0.00  0.00    +0.000 HD
ENDROOT
BRANCH   3   5
ATOM      5  C   UNL     1      -0.763  10.439  19.388  0.00  0.00    +0.000 A 
ATOM      6  C   UNL     1      -1.413  10.272  18.168  0.00  0.00    +0.000 A 
ATOM      7  C   UNL     1      -2.517  11.057  17.851  0.00  0.00    +0.000 A 
ATOM      8  C   UNL     1      -2.993  11.995  18.765  0.00  0.00    +0.000 A 
ATOM      9  C   UNL     1      -2.400  12.178  20.026  0.00  0.00    +0.000 A 
ATOM     10  C   UNL     1      -1.261  11.394  20.295  0.00  0.00    +0.000 A 
BRANCH   9  11
ATOM     11  N   UNL     1      -2.943  13.056  20.966  0.00  0.00    +0.000 N 
ATOM     12  C   UNL     1      -2.153  14.162  21.504  0.00  0.00    +0.000 C 
ATOM     13  C   UNL     1      -1.611  13.814  22.890  0.00  0.00    +0.000 C 
ATOM     14  C   UNL     1      -2.655  13.845  24.005  0.00  0.00    +0.000 C 
ATOM     15  C   UNL     1      -3.892  12.979  23.764  0.00  0.00    +0.000 C 
ATOM     16  C   UNL     1      -4.772  13.512  22.634  0.00  0.00    +0.000 C 
ATOM     17  C   UNL     1      -4.380  13.001  21.249  0.00  0.00    +0.000 C 
ENDBRANCH   9  11
ENDBRANCH   3   5
BRANCH   2  18
ATOM     18  C   UNL     1       1.796   8.140  21.009  0.00  0.00    +0.000 C 
BRANCH  18  19
ATOM     19  C   UNL     1       1.947   6.893  20.187  0.00  0.00    +0.000 A 
ATOM     20  C   UNL     1       1.670   5.659  20.646  0.00  0.00    +0.000 A 
ATOM     21  C   UNL     1       1.817   4.488  19.781  0.00  0.00    +0.000 A 
ATOM     22  C   UNL     1       1.529   3.201  20.242  0.00  0.00    +0.000 A 
ATOM     23  C   UNL     1       1.671   2.105  19.384  0.00  0.00    +0.000 A 
ATOM     24  C   UNL     1       2.104   2.294  18.070  0.00  0.00    +0.000 A 
ATOM     25  C   UNL     1       2.394   3.578  17.605  0.00  0.00    +0.000 A 
ATOM     26  C   UNL     1       2.247   4.669  18.461  0.00  0.00    +0.000 A 
ATOM     27  N   UNL     1       2.529   5.963  18.004  0.00  0.00    +0.000 N 
ATOM     28  C   UNL     1       2.421   7.082  18.783  0.00  0.00    +0.000 A 
ATOM     29  O   UNL     1       2.700   8.202  18.359  0.00  0.00    +0.000 OA
ATOM     30  H   UNL     1       2.845   6.107  17.054  0.00  0.00    +0.000 HD
ENDBRANCH  18  19
ENDBRANCH   2  18
TORSDOF 4
ENDMDL
MODEL 8
REMARK VINA RESULT:      -8.5      6.299      9.889
REMARK  Name = 
REMARK  4 active torsions:
REMARK  status: ('A' for Active; 'I' for Inactive)
REMARK    1  A    between atoms: C_2  and  C_3
REMARK    2  A    between atoms: C_3  and  C_4
REMARK    3  A    between atoms: N_15  and  C_16
REMARK    4  A    between atoms: C_20  and  N_21
REMARK                            x       y       z     vdW  Elec       q    Type
REMARK                         _______ _______ _______ _____ _____    ______ ____
ROOT
ATOM      1  O   UNL     1      -0.573   8.576  21.587  0.00  0.00    +0.000 OA
ATOM      2  C   UNL     1       0.183   9.279  20.923  0.00  0.00    +0.000 C 
ATOM      3  N   UNL     1       1.316   8.864  20.243  0.00  0.00    +0.000 N 
ATOM      4  H   UNL     1       1.799   9.568  19.688  0.00  0.00    +0.000 HD
ENDROOT
BRANCH   3   5
ATOM      5  C   UNL     1       1.814   7.542  20.152  0.00  0.00    +0.000 A 
ATOM      6  C   UNL     1       1.358   6.492  20.944  0.00  0.00    +0.000 A 
ATOM      7  C   UNL     1       1.896   5.218  20.794  0.00  0.00    +0.000 A 
ATOM      8  C   UNL     1       2.877   4.983  19.831  0.00  0.00    +0.000 A 
ATOM      9  C   UNL     1       3.346   5.997  18.979  0.00  0.00    +0.000 A 
ATOM     10  C   UNL     1       2.806   7.281  19.187  0.00  0.00    +0.000 A 
BRANCH   9  11
ATOM     11  N   UNL     1       4.262   5.727  17.960  0.00  0.00    +0.000 N 
ATOM     12  C   UNL     1       4.814   4.385  17.784  0.00  0.00    +0.000 C 
ATOM     13  C   UNL     1       6.220   4.299  18.379  0.00  0.00    +0.000 C 
ATOM     14  C   UNL     1       7.301   4.996  17.553  0.00  0.00    +0.000 C 
ATOM     15  C   UNL     1       7.028   6.465  17.229  0.00  0.00    +0.000 C 
ATOM     16  C   UNL     1       5.867   6.646  16.253  0.00  0.00    +0.000 C 
ATOM     17  C   UNL     1       4.499   6.739  16.927  0.00  0.00    +0.000 C 
ENDBRANCH   9  11
ENDBRANCH   3   5
BRANCH   2  18
ATOM     18  C   UNL     1      -0.117  10.761  20.761  0.00  0.00    +0.000 C 
BRANCH  18  19
ATOM     19  C   UNL     1      -1.123  10.944  19.662  0.00  0.00    +0.000 A 
ATOM     20  C   UNL     1      -1.111  10.242  18.515  0.00  0.00    +0.000 A 
ATOM     21  C   UNL     1      -2.138  10.456  17.496  0.00  0.00    +0.000 A 
ATOM     22  C   UNL     1      -2.143   9.731  16.301  0.00  0.00    +0.000 A 
ATOM     23  C   UNL     1      -3.146   9.953  15.352  0.00  0.00    +0.000 A 
ATOM     24  C   UNL     1      -4.143  10.901  15.595  0.00  0.00    +0.000 A 
ATOM     25  C   UNL     1      -4.143  11.629  16.787  0.00  0.00    +0.000 A 
ATOM     26  C   UNL     1      -3.144  11.401  17.732  0.00  0.00    +0.000 A 
ATOM     27  N   UNL     1      -3.137  12.121  18.935  0.00  0.00    +0.000 N 
ATOM     28  C   UNL     1      -2.187  11.964  19.906  0.00  0.00    +0.000 A 
ATOM     29  O   UNL     1      -2.195  12.629  20.940  0.00  0.00    +0.000 OA
ATOM     30  H   UNL     1      -3.854  12.810  19.116  0.00  0.00    +0.000 HD
ENDBRANCH  18  19
ENDBRANCH   2  18
TORSDOF 4
ENDMDL
MODEL 9
REMARK VINA RESULT:      -8.5      6.801      9.313
REMARK  Name = 
REMARK  4 active torsions:
REMARK  status: ('A' for Active; 'I' for Inactive)
REMARK    1  A    between atoms: C_2  and  C_3
REMARK    2  A    between atoms: C_3  and  C_4
REMARK    3  A    between atoms: N_15  and  C_16
REMARK    4  A    between atoms: C_20  and  N_21
REMARK                            x       y       z     vdW  Elec       q    Type
REMARK                         _______ _______ _______ _____ _____    ______ ____
ROOT
ATOM      1  O   UNL     1       2.287   7.654  19.434  0.00  0.00    +0.000 OA
ATOM      2  C   UNL     1       1.826   6.968  20.341  0.00  0.00    +0.000 C 
ATOM      3  N   UNL     1       0.925   7.377  21.312  0.00  0.00    +0.000 N 
ATOM      4  H   UNL     1       0.596   6.663  21.958  0.00  0.00    +0.000 HD
ENDROOT
BRANCH   3   5
ATOM      5  C   UNL     1       0.334   8.656  21.435  0.00  0.00    +0.000 A 
ATOM      6  C   UNL     1       0.397   9.425  22.594  0.00  0.00    +0.000 A 
ATOM      7  C   UNL     1      -0.209  10.676  22.638  0.00  0.00    +0.000 A 
ATOM      8  C   UNL     1      -0.860  11.177  21.511  0.00  0.00    +0.000 A 
ATOM      9  C   UNL     1      -0.921  10.461  20.304  0.00  0.00    +0.000 A 
ATOM     10  C   UNL     1      -0.331   9.182  20.310  0.00  0.00    +0.000 A 
BRANCH   9  11
ATOM     11  N   UNL     1      -1.497  11.013  19.158  0.00  0.00    +0.000 N 
ATOM     12  C   UNL     1      -2.197  12.296  19.212  0.00  0.00    +0.000 C 
ATOM     13  C   UNL     1      -3.709  12.083  19.256  0.00  0.00    +0.000 C 
ATOM     14  C   UNL     1      -4.328  11.652  17.926  0.00  0.00    +0.000 C 
ATOM     15  C   UNL     1      -3.706  10.408  17.290  0.00  0.00    +0.000 C 
ATOM     16  C   UNL     1      -2.282  10.651  16.794  0.00  0.00    +0.000 C 
ATOM     17  C   UNL     1      -1.207  10.413  17.852  0.00  0.00    +0.000 C 
ENDBRANCH   9  11
ENDBRANCH   3   5
BRANCH   2  18
ATOM     18  C   UNL     1       2.215   5.503  20.448  0.00  0.00    +0.000 C 
BRANCH  18  19
ATOM     19  C   UNL     1       3.172   5.164  19.342  0.00  0.00    +0.000 A 
ATOM     20  C   UNL     1       4.500   5.362  19.418  0.00  0.00    +0.000 A 
ATOM     21  C   UNL     1       5.377   4.986  18.309  0.00  0.00    +0.000 A 
ATOM     22  C   UNL     1       6.760   5.180  18.374  0.00  0.00    +0.000 A 
ATOM     23  C   UNL     1       7.570   4.799  17.299  0.00  0.00    +0.000 A 
ATOM     24  C   UNL     1       7.000   4.228  16.159  0.00  0.00    +0.000 A 
ATOM     25  C   UNL     1       5.619   4.031  16.088  0.00  0.00    +0.000 A 
ATOM     26  C   UNL     1       4.815   4.408  17.164  0.00  0.00    +0.000 A 
ATOM     27  N   UNL     1       3.429   4.211  17.107  0.00  0.00    +0.000 N 
ATOM     28  C   UNL     1       2.571   4.563  18.113  0.00  0.00    +0.000 A 
ATOM     29  O   UNL     1       1.356   4.400  18.022  0.00  0.00    +0.000 OA
ATOM     30  H   UNL     1       3.010   3.800  16.284  0.00  0.00    +0.000 HD
ENDBRANCH  18  19
ENDBRANCH   2  18
TORSDOF 4
ENDMDL
