MODEL 1
REMARK VINA RESULT:      -8.5      0.000      0.000
REMARK  Name = 
REMARK  3 active torsions:
REMARK  status: ('A' for Active; 'I' for Inactive)
REMARK    1  A    between atoms: C_1  and  C_2
REMARK    2  A    between atoms: C_4  and  C_5
REMARK    3  A    between atoms: C_13  and  N_14
REMARK                            x       y       z     vdW  Elec       q    Type
REMARK                         _______ _______ _______ _____ _____    ______ ____
ROOT
ATOM      1  C   UNL     1       2.470   8.167  18.005  0.00  0.00    +0.000 C 
ATOM      2  O   UNL     1       2.286   8.932  17.057  0.00  0.00    +0.000 OA
ATOM      3  N   UNL     1       1.770   8.393  19.230  0.00  0.00    +0.000 N 
ATOM      4  C   UNL     1       1.999   7.656  20.472  0.00  0.00    +0.000 C 
ATOM      5  C   UNL     1       1.120   7.938  21.684  0.00  0.00    +0.000 C 
ATOM      6  C   UNL     1       0.332   9.190  21.650  0.00  0.00    +0.000 A 
ATOM      7  N   UNL     1      -0.371   9.464  22.772  0.00  0.00    +0.000 NA
ATOM      8  N   UNL     1      -1.100  10.609  22.861  0.00  0.00    +0.000 NA
ATOM      9  C   UNL     1      -1.130  11.463  21.827  0.00  0.00    +0.000 A 
ATOM     10  C   UNL     1      -0.438  11.192  20.655  0.00  0.00    +0.000 A 
ATOM     11  C   UNL     1       0.310  10.013  20.544  0.00  0.00    +0.000 A 
ATOM     12  C   UNL     1       1.077   9.693  19.295  0.00  0.00    +0.000 C 
ENDROOT
BRANCH   1  16
ATOM     13  C   UNL     1       7.165   6.580  17.225  0.00  0.00    +0.000 C 
ATOM     14  C   UNL     1       5.718   6.279  17.472  0.00  0.00    +0.000 A 
ATOM     15  C   UNL     1       4.819   7.296  17.737  0.00  0.00    +0.000 A 
ATOM     16  C   UNL     1       3.451   7.030  17.791  0.00  0.00    +0.000 A 
ATOM     17  C   UNL     1       3.035   5.653  17.761  0.00  0.00    +0.000 A 
ATOM     18  C   UNL     1       1.704   5.161  17.895  0.00  0.00    +0.000 A 
ATOM     19  C   UNL     1       1.424   3.792  17.922  0.00  0.00    +0.000 A 
ATOM     20  C   UNL     1       2.454   2.883  17.806  0.00  0.00    +0.000 A 
ATOM     21  F   UNL     1       2.198   1.566  17.847  0.00  0.00    +0.000 F 
ATOM     22  C   UNL     1       3.759   3.325  17.639  0.00  0.00    +0.000 A 
ATOM     23  C   UNL     1       4.056   4.681  17.603  0.00  0.00    +0.000 A 
ATOM     24  N   UNL     1       5.343   4.989  17.416  0.00  0.00    +0.000 NA
ENDBRANCH   1  16
BRANCH   9  25
ATOM     25  N   UNL     1      -1.834  12.659  21.988  0.00  0.00    +0.000 N 
ATOM     26  H   UNL     1      -2.625  12.634  21.346  0.00  0.00    +0.000 HD
ATOM     27  H   UNL     1      -1.248  13.466  21.830  0.00  0.00    +0.000 HD
ENDBRANCH   9  25
TORSDOF 2
ENDMDL
MODEL 2
REMARK VINA RESULT:      -8.5      1.379      1.520
REMARK  Name = 
REMARK  3 active torsions:
REMARK  status: ('A' for Active; 'I' for Inactive)
REMARK    1  A    between atoms: C_1  and  C_2
REMARK    2  A    between atoms: C_4  and  C_5
REMARK    3  A    between atoms: C_13  and  N_14
REMARK                            x       y       z     vdW  Elec       q    Type
REMARK                         _______ _______ _______ _____ _____    ______ ____
ROOT
ATOM      1  C   UNL     1       3.026   7.516  17.805  0.00  0.00    +0.000 C 
ATOM      2  O   UNL     1       3.167   7.972  16.669  0.00  0.00    +0.000 OA
ATOM      3  N   UNL     1       2.121   8.157  18.707  0.00  0.00    +0.000 N 
ATOM      4  C   UNL     1       1.965   7.813  20.120  0.00  0.00    +0.000 C 
ATOM      5  C   UNL     1       0.898   8.516  20.949  0.00  0.00    +0.000 C 
ATOM      6  C   UNL     1       0.332   9.759  20.378  0.00  0.00    +0.000 A 
ATOM      7  N   UNL     1      -0.546  10.414  21.170  0.00  0.00    +0.000 NA
ATOM      8  N   UNL     1      -1.098  11.587  20.757  0.00  0.00    +0.000 NA
ATOM      9  C   UNL     1      -0.777  12.089  19.555  0.00  0.00    +0.000 A 
ATOM     10  C   UNL     1       0.102  11.422  18.713  0.00  0.00    +0.000 A 
ATOM     11  C   UNL     1       0.672  10.209  19.120  0.00  0.00    +0.000 A 
ATOM     12  C   UNL     1       1.632   9.466  18.238  0.00  0.00    +0.000 C 
ENDROOT
BRANCH   1  16
ATOM     13  C   UNL     1       7.473   5.425  18.814  0.00  0.00    +0.000 C 
ATOM     14  C   UNL     1       5.983   5.314  18.699  0.00  0.00    +0.000 A 
ATOM     15  C   UNL     1       5.208   6.430  18.442  0.00  0.00    +0.000 A 
ATOM     16  C   UNL     1       3.849   6.293  18.163  0.00  0.00    +0.000 A 
ATOM     17  C   UNL     1       3.255   4.996  18.346  0.00  0.00    +0.000 A 
ATOM     18  C   UNL     1       1.876   4.661  18.207  0.00  0.00    +0.000 A 
ATOM     19  C   UNL     1       1.398   3.377  18.480  0.00  0.00    +0.000 A 
ATOM     20  C   UNL     1       2.276   2.395  18.888  0.00  0.00    +0.000 A 
ATOM     21  F   UNL     1       1.825   1.163  19.169  0.00  0.00    +0.000 F 
ATOM     22  C   UNL     1       3.631   2.674  19.002  0.00  0.00    +0.000 A 
ATOM     23  C   UNL     1       4.126   3.943  18.728  0.00  0.00    +0.000 A 
ATOM     24  N   UNL     1       5.448   4.090  18.850  0.00  0.00    +0.000 NA
ENDBRANCH   1  16
BRANCH   9  25
ATOM     25  N   UNL     1      -1.312  13.330  19.202  0.00  0.00    +0.000 N 
ATOM     26  H   UNL     1      -1.898  13.639  19.977  0.00  0.00    +0.000 HD
ATOM     27  H   UNL     1      -1.830  13.285  18.336  0.00  0.00    +0.000 HD
ENDBRANCH   9  25
TORSDOF 2
ENDMDL
MODEL 3
REMARK VINA RESULT:      -8.3      1.722      2.986
REMARK  Name = 
REMARK  3 active torsions:
REMARK  status: ('A' for Active; 'I' for Inactive)
REMARK    1  A    between atoms: C_1  and  C_2
REMARK    2  A    between atoms: C_4  and  C_5
REMARK    3  A    between atoms: C_13  and  N_14
REMARK                            x       y       z     vdW  Elec       q    Type
REMARK                         _______ _______ _______ _____ _____    ______ ____
ROOT
ATOM      1  C   UNL     1       2.186   7.863  18.186  0.00  0.00    +0.000 C 
ATOM      2  O   UNL     1       2.327   8.549  17.173  0.00  0.00    +0.000 OA
ATOM      3  N   UNL     1       1.610   8.453  19.354  0.00  0.00    +0.000 N 
ATOM      4  C   UNL     1       1.518   7.803  20.661  0.00  0.00    +0.000 C 
ATOM      5  C   UNL     1       0.798   8.511  21.801  0.00  0.00    +0.000 C 
ATOM      6  C   UNL     1       0.557   9.961  21.629  0.00  0.00    +0.000 A 
ATOM      7  N   UNL     1      -0.000  10.587  22.690  0.00  0.00    +0.000 NA
ATOM      8  N   UNL     1      -0.230  11.926  22.652  0.00  0.00    +0.000 NA
ATOM      9  C   UNL     1       0.088  12.627  21.553  0.00  0.00    +0.000 A 
ATOM     10  C   UNL     1       0.638  12.004  20.442  0.00  0.00    +0.000 A 
ATOM     11  C   UNL     1       0.873  10.623  20.462  0.00  0.00    +0.000 A 
ATOM     12  C   UNL     1       1.473   9.919  19.281  0.00  0.00    +0.000 C 
ENDROOT
BRANCH   1  16
ATOM     13  C   UNL     1       1.209   2.961  18.618  0.00  0.00    +0.000 C 
ATOM     14  C   UNL     1       2.155   4.070  18.270  0.00  0.00    +0.000 A 
ATOM     15  C   UNL     1       1.731   5.386  18.264  0.00  0.00    +0.000 A 
ATOM     16  C   UNL     1       2.653   6.421  18.112  0.00  0.00    +0.000 A 
ATOM     17  C   UNL     1       4.004   6.070  17.768  0.00  0.00    +0.000 A 
ATOM     18  C   UNL     1       5.073   6.968  17.479  0.00  0.00    +0.000 A 
ATOM     19  C   UNL     1       6.334   6.511  17.085  0.00  0.00    +0.000 A 
ATOM     20  C   UNL     1       6.565   5.156  16.978  0.00  0.00    +0.000 A 
ATOM     21  F   UNL     1       7.767   4.707  16.584  0.00  0.00    +0.000 F 
ATOM     22  C   UNL     1       5.559   4.250  17.283  0.00  0.00    +0.000 A 
ATOM     23  C   UNL     1       4.302   4.685  17.684  0.00  0.00    +0.000 A 
ATOM     24  N   UNL     1       3.420   3.724  17.974  0.00  0.00    +0.000 NA
ENDBRANCH   1  16
BRANCH   9  25
ATOM     25  N   UNL     1      -0.101  14.011  21.584  0.00  0.00    +0.000 N 
ATOM     26  H   UNL     1       0.199  14.378  20.682  0.00  0.00    +0.000 HD
ATOM     27  H   UNL     1       0.400  14.443  22.348  0.00  0.00    +0.000 HD
ENDBRANCH   9  25
TORSDOF 2
ENDMDL
MODEL 4
REMARK VINA RESULT:      -8.2      3.186      7.624
REMARK  Name = 
REMARK  3 active torsions:
REMARK  status: ('A' for Active; 'I' for Inactive)
REMARK    1  A    between atoms: C_1  and  C_2
REMARK    2  A    between atoms: C_4  and  C_5
REMARK    3  A    between atoms: C_13  and  N_14
REMARK                            x       y       z     vdW  Elec       q    Type
REMARK                         _______ _______ _______ _____ _____    ______ ____
ROOT
ATOM      1  C   UNL     1       1.479   9.726  18.372  0.00  0.00    +0.000 C 
ATOM      2  O   UNL     1       2.006  10.195  17.362  0.00  0.00    +0.000 OA
ATOM      3  N   UNL     1       1.947   8.479  18.889  0.00  0.00    +0.000 N 
ATOM      4  C   UNL     1       1.322   7.741  19.987  0.00  0.00    +0.000 C 
ATOM      5  C   UNL     1       1.976   6.465  20.500  0.00  0.00    +0.000 C 
ATOM      6  C   UNL     1       2.998   5.849  19.624  0.00  0.00    +0.000 A 
ATOM      7  N   UNL     1       3.499   4.670  20.057  0.00  0.00    +0.000 NA
ATOM      8  N   UNL     1       4.417   4.001  19.310  0.00  0.00    +0.000 NA
ATOM      9  C   UNL     1       4.833   4.518  18.144  0.00  0.00    +0.000 A 
ATOM     10  C   UNL     1       4.353   5.738  17.690  0.00  0.00    +0.000 A 
ATOM     11  C   UNL     1       3.414   6.445  18.452  0.00  0.00    +0.000 A 
ATOM     12  C   UNL     1       2.868   7.763  17.988  0.00  0.00    +0.000 C 
ENDROOT
BRANCH   1  16
ATOM     13  C   UNL     1      -0.210  12.776  21.980  0.00  0.00    +0.000 C 
ATOM     14  C   UNL     1      -0.435  12.033  20.699  0.00  0.00    +0.000 A 
ATOM     15  C   UNL     1       0.601  11.356  20.082  0.00  0.00    +0.000 A 
ATOM     16  C   UNL     1       0.346  10.525  18.991  0.00  0.00    +0.000 A 
ATOM     17  C   UNL     1      -0.972  10.555  18.418  0.00  0.00    +0.000 A 
ATOM     18  C   UNL     1      -1.414   9.860  17.254  0.00  0.00    +0.000 A 
ATOM     19  C   UNL     1      -2.706  10.021  16.746  0.00  0.00    +0.000 A 
ATOM     20  C   UNL     1      -3.590  10.865  17.385  0.00  0.00    +0.000 A 
ATOM     21  F   UNL     1      -4.828  11.039  16.896  0.00  0.00    +0.000 F 
ATOM     22  C   UNL     1      -3.207  11.532  18.540  0.00  0.00    +0.000 A 
ATOM     23  C   UNL     1      -1.929  11.380  19.064  0.00  0.00    +0.000 A 
ATOM     24  N   UNL     1      -1.680  12.053  20.191  0.00  0.00    +0.000 NA
ENDBRANCH   1  16
BRANCH   9  25
ATOM     25  N   UNL     1       5.723   3.763  17.376  0.00  0.00    +0.000 N 
ATOM     26  H   UNL     1       6.023   4.347  16.596  0.00  0.00    +0.000 HD
ATOM     27  H   UNL     1       5.308   2.899  17.058  0.00  0.00    +0.000 HD
ENDBRANCH   9  25
TORSDOF 2
ENDMDL
MODEL 5
REMARK VINA RESULT:      -7.8      3.250      7.694
REMARK  Name = 
REMARK  3 active torsions:
REMARK  status: ('A' for Active; 'I' for Inactive)
REMARK    1  A    between atoms: C_1  and  C_2
REMARK    2  A    between atoms: C_4  and  C_5
REMARK    3  A    between atoms: C_13  and  N_14
REMARK                            x       y       z     vdW  Elec       q    Type
REMARK                         _______ _______ _______ _____ _____    ______ ____
ROOT
ATOM      1  C   UNL     1       0.931   8.850  20.368  0.00  0.00    +0.000 C 
ATOM      2  O   UNL     1       0.578   8.362  21.443  0.00  0.00    +0.000 OA
ATOM      3  N   UNL     1       1.769   8.087  19.497  0.00  0.00    +0.000 N 
ATOM      4  C   UNL     1       2.376   8.591  18.267  0.00  0.00    +0.000 C 
ATOM      5  C   UNL     1       3.177   7.644  17.382  0.00  0.00    +0.000 C 
ATOM      6  C   UNL     1       3.601   6.368  17.998  0.00  0.00    +0.000 A 
ATOM      7  N   UNL     1       4.387   5.583  17.226  0.00  0.00    +0.000 NA
ATOM      8  N   UNL     1       4.863   4.405  17.709  0.00  0.00    +0.000 NA
ATOM      9  C   UNL     1       4.544   4.015  18.953  0.00  0.00    +0.000 A 
ATOM     10  C   UNL     1       3.719   4.790  19.755  0.00  0.00    +0.000 A 
ATOM     11  C   UNL     1       3.213   6.002  19.270  0.00  0.00    +0.000 A 
ATOM     12  C   UNL     1       2.325   6.869  20.114  0.00  0.00    +0.000 C 
ENDROOT
BRANCH   1  16
ATOM     13  C   UNL     1       1.112  13.792  21.212  0.00  0.00    +0.000 C 
ATOM     14  C   UNL     1       0.581  12.627  20.433  0.00  0.00    +0.000 A 
ATOM     15  C   UNL     1       1.062  11.349  20.654  0.00  0.00    +0.000 A 
ATOM     16  C   UNL     1       0.444  10.252  20.055  0.00  0.00    +0.000 A 
ATOM     17  C   UNL     1      -0.563  10.510  19.062  0.00  0.00    +0.000 A 
ATOM     18  C   UNL     1      -1.249   9.543  18.269  0.00  0.00    +0.000 A 
ATOM     19  C   UNL     1      -2.162   9.915  17.279  0.00  0.00    +0.000 A 
ATOM     20  C   UNL     1      -2.424  11.251  17.060  0.00  0.00    +0.000 A 
ATOM     21  F   UNL     1      -3.287  11.620  16.100  0.00  0.00    +0.000 F 
ATOM     22  C   UNL     1      -1.802  12.220  17.834  0.00  0.00    +0.000 A 
ATOM     23  C   UNL     1      -0.896  11.870  18.828  0.00  0.00    +0.000 A 
ATOM     24  N   UNL     1      -0.376  12.885  19.525  0.00  0.00    +0.000 NA
ENDBRANCH   1  16
BRANCH   9  25
ATOM     25  N   UNL     1       5.113   2.833  19.432  0.00  0.00    +0.000 N 
ATOM     26  H   UNL     1       4.620   2.058  18.990  0.00  0.00    +0.000 HD
ATOM     27  H   UNL     1       5.071   2.776  20.440  0.00  0.00    +0.000 HD
ENDBRANCH   9  25
TORSDOF 2
ENDMDL
MODEL 6
REMARK VINA RESULT:      -7.8      1.970      3.020
REMARK  Name = 
REMARK  3 active torsions:
REMARK  status: ('A' for Active; 'I' for Inactive)
REMARK    1  A    between atoms: C_1  and  C_2
REMARK    2  A    between atoms: C_4  and  C_5
REMARK    3  A    between atoms: C_13  and  N_14
REMARK                            x       y       z     vdW  Elec       q    Type
REMARK                         _______ _______ _______ _____ _____    ______ ____
ROOT
ATOM      1  C   UNL     1       1.921   7.755  18.914  0.00  0.00    +0.000 C 
ATOM      2  O   UNL     1       1.877   8.141  17.745  0.00  0.00    +0.000 OA
ATOM      3  N   UNL     1       1.347   8.568  19.940  0.00  0.00    +0.000 N 
ATOM      4  C   UNL     1       1.454   8.305  21.374  0.00  0.00    +0.000 C 
ATOM      5  C   UNL     1       0.716   9.204  22.358  0.00  0.00    +0.000 C 
ATOM      6  C   UNL     1       0.237  10.502  21.834  0.00  0.00    +0.000 A 
ATOM      7  N   UNL     1      -0.333  11.321  22.746  0.00  0.00    +0.000 NA
ATOM      8  N   UNL     1      -0.775  12.553  22.378  0.00  0.00    +0.000 NA
ATOM      9  C   UNL     1      -0.652  12.953  21.103  0.00  0.00    +0.000 A 
ATOM     10  C   UNL     1      -0.094  12.121  20.143  0.00  0.00    +0.000 A 
ATOM     11  C   UNL     1       0.358  10.845  20.504  0.00  0.00    +0.000 A 
ATOM     12  C   UNL     1       0.974   9.923  19.494  0.00  0.00    +0.000 C 
ENDROOT
BRANCH   1  16
ATOM     13  C   UNL     1       2.044   3.336  21.285  0.00  0.00    +0.000 C 
ATOM     14  C   UNL     1       2.620   4.285  20.279  0.00  0.00    +0.000 A 
ATOM     15  C   UNL     1       1.977   5.471  19.976  0.00  0.00    +0.000 A 
ATOM     16  C   UNL     1       2.604   6.425  19.175  0.00  0.00    +0.000 A 
ATOM     17  C   UNL     1       3.832   6.053  18.525  0.00  0.00    +0.000 A 
ATOM     18  C   UNL     1       4.580   6.838  17.600  0.00  0.00    +0.000 A 
ATOM     19  C   UNL     1       5.728   6.345  16.974  0.00  0.00    +0.000 A 
ATOM     20  C   UNL     1       6.164   5.068  17.258  0.00  0.00    +0.000 A 
ATOM     21  F   UNL     1       7.255   4.578  16.650  0.00  0.00    +0.000 F 
ATOM     22  C   UNL     1       5.481   4.286  18.179  0.00  0.00    +0.000 A 
ATOM     23  C   UNL     1       4.342   4.762  18.817  0.00  0.00    +0.000 A 
ATOM     24  N   UNL     1       3.780   3.931  19.700  0.00  0.00    +0.000 NA
ENDBRANCH   1  16
BRANCH   9  25
ATOM     25  N   UNL     1      -1.054  14.252  20.785  0.00  0.00    +0.000 N 
ATOM     26  H   UNL     1      -0.333  14.656  20.188  0.00  0.00    +0.000 HD
ATOM     27  H   UNL     1      -1.213  14.812  21.611  0.00  0.00    +0.000 HD
ENDBRANCH   9  25
TORSDOF 2
ENDMDL
MODEL 7
REMARK VINA RESULT:      -7.8      3.683      8.325
REMARK  Name = 
REMARK  3 active torsions:
REMARK  status: ('A' for Active; 'I' for Inactive)
REMARK    1  A    between atoms: C_1  and  C_2
REMARK    2  A    between atoms: C_4  and  C_5
REMARK    3  A    between atoms: C_13  and  N_14
REMARK                            x       y       z     vdW  Elec       q    Type
REMARK                         _______ _______ _______ _____ _____    ______ ____
ROOT
ATOM      1  C   UNL     1       3.005   4.044  17.288  0.00  0.00    +0.000 C 
ATOM      2  O   UNL     1       2.253   3.314  16.641  0.00  0.00    +0.000 OA
ATOM      3  N   UNL     1       4.203   4.529  16.677  0.00  0.00    +0.000 N 
ATOM      4  C   UNL     1       5.250   5.279  17.369  0.00  0.00    +0.000 C 
ATOM      5  C   UNL     1       6.436   5.816  16.578  0.00  0.00    +0.000 C 
ATOM      6  C   UNL     1       6.646   5.236  15.232  0.00  0.00    +0.000 A 
ATOM      7  N   UNL     1       7.755   5.660  14.585  0.00  0.00    +0.000 NA
ATOM      8  N   UNL     1       8.063   5.164  13.357  0.00  0.00    +0.000 NA
ATOM      9  C   UNL     1       7.258   4.257  12.783  0.00  0.00    +0.000 A 
ATOM     10  C   UNL     1       6.101   3.825  13.415  0.00  0.00    +0.000 A 
ATOM     11  C   UNL     1       5.764   4.334  14.676  0.00  0.00    +0.000 A 
ATOM     12  C   UNL     1       4.526   3.883  15.392  0.00  0.00    +0.000 C 
ENDROOT
BRANCH   1  16
ATOM     13  C   UNL     1       2.108   2.542  21.990  0.00  0.00    +0.000 C 
ATOM     14  C   UNL     1       2.219   3.641  20.978  0.00  0.00    +0.000 A 
ATOM     15  C   UNL     1       2.659   3.379  19.693  0.00  0.00    +0.000 A 
ATOM     16  C   UNL     1       2.593   4.368  18.712  0.00  0.00    +0.000 A 
ATOM     17  C   UNL     1       2.247   5.701  19.126  0.00  0.00    +0.000 A 
ATOM     18  C   UNL     1       2.213   6.868  18.307  0.00  0.00    +0.000 A 
ATOM     19  C   UNL     1       1.930   8.130  18.834  0.00  0.00    +0.000 A 
ATOM     20  C   UNL     1       1.665   8.263  20.181  0.00  0.00    +0.000 A 
ATOM     21  F   UNL     1       1.408   9.473  20.701  0.00  0.00    +0.000 F 
ATOM     22  C   UNL     1       1.656   7.145  21.004  0.00  0.00    +0.000 A 
ATOM     23  C   UNL     1       1.928   5.881  20.497  0.00  0.00    +0.000 A 
ATOM     24  N   UNL     1       1.869   4.877  21.377  0.00  0.00    +0.000 NA
ENDBRANCH   1  16
BRANCH   9  25
ATOM     25  N   UNL     1       7.650   3.722  11.553  0.00  0.00    +0.000 N 
ATOM     26  H   UNL     1       8.435   3.097  11.731  0.00  0.00    +0.000 HD
ATOM     27  H   UNL     1       7.888   4.443  10.886  0.00  0.00    +0.000 HD
ENDBRANCH   9  25
TORSDOF 2
ENDMDL
MODEL 8
REMARK VINA RESULT:      -7.3      2.239      3.653
REMARK  Name = 
REMARK  3 active torsions:
REMARK  status: ('A' for Active; 'I' for Inactive)
REMARK    1  A    between atoms: C_1  and  C_2
REMARK    2  A    between atoms: C_4  and  C_5
REMARK    3  A    between atoms: C_13  and  N_14
REMARK                            x       y       z     vdW  Elec       q    Type
REMARK                         _______ _______ _______ _____ _____    ______ ____
ROOT
ATOM      1  C   UNL     1       2.191   6.476  19.999  0.00  0.00    +0.000 C 
ATOM      2  O   UNL     1       2.169   6.217  21.204  0.00  0.00    +0.000 OA
ATOM      3  N   UNL     1       1.892   7.804  19.565  0.00  0.00    +0.000 N 
ATOM      4  C   UNL     1       1.740   8.213  18.169  0.00  0.00    +0.000 C 
ATOM      5  C   UNL     1       1.509   9.682  17.839  0.00  0.00    +0.000 C 
ATOM      6  C   UNL     1       1.087  10.551  18.960  0.00  0.00    +0.000 A 
ATOM      7  N   UNL     1       0.800  11.830  18.628  0.00  0.00    +0.000 NA
ATOM      8  N   UNL     1       0.367  12.703  19.575  0.00  0.00    +0.000 NA
ATOM      9  C   UNL     1       0.234  12.296  20.847  0.00  0.00    +0.000 A 
ATOM     10  C   UNL     1       0.546  10.997  21.218  0.00  0.00    +0.000 A 
ATOM     11  C   UNL     1       1.002  10.087  20.256  0.00  0.00    +0.000 A 
ATOM     12  C   UNL     1       1.340   8.671  20.621  0.00  0.00    +0.000 C 
ENDROOT
BRANCH   1  16
ATOM     13  C   UNL     1       1.312   1.832  18.314  0.00  0.00    +0.000 C 
ATOM     14  C   UNL     1       2.063   3.126  18.222  0.00  0.00    +0.000 A 
ATOM     15  C   UNL     1       1.723   4.201  19.023  0.00  0.00    +0.000 A 
ATOM     16  C   UNL     1       2.532   5.336  19.057  0.00  0.00    +0.000 A 
ATOM     17  C   UNL     1       3.599   5.428  18.098  0.00  0.00    +0.000 A 
ATOM     18  C   UNL     1       4.479   6.532  17.902  0.00  0.00    +0.000 A 
ATOM     19  C   UNL     1       5.439   6.539  16.886  0.00  0.00    +0.000 A 
ATOM     20  C   UNL     1       5.556   5.448  16.051  0.00  0.00    +0.000 A 
ATOM     21  F   UNL     1       6.463   5.451  15.063  0.00  0.00    +0.000 F 
ATOM     22  C   UNL     1       4.740   4.340  16.233  0.00  0.00    +0.000 A 
ATOM     23  C   UNL     1       3.784   4.312  17.241  0.00  0.00    +0.000 A 
ATOM     24  N   UNL     1       3.072   3.185  17.336  0.00  0.00    +0.000 NA
ENDBRANCH   1  16
BRANCH   9  25
ATOM     25  N   UNL     1      -0.281  13.207  21.773  0.00  0.00    +0.000 N 
ATOM     26  H   UNL     1      -1.288  13.057  21.818  0.00  0.00    +0.000 HD
ATOM     27  H   UNL     1      -0.055  14.161  21.530  0.00  0.00    +0.000 HD
ENDBRANCH   9  25
TORSDOF 2
ENDMDL
MODEL 9
REMARK VINA RESULT:      -7.2      1.761      2.500
REMARK  Name = 
REMARK  3 active torsions:
REMARK  status: ('A' for Active; 'I' for Inactive)
REMARK    1  A    between atoms: C_1  and  C_2
REMARK    2  A    between atoms: C_4  and  C_5
REMARK    3  A    between atoms: C_13  and  N_14
REMARK                            x       y       z     vdW  Elec       q    Type
REMARK                         _______ _______ _______ _____ _____    ______ ____
ROOT
ATOM      1  C   UNL     1       1.862   7.767  20.171  0.00  0.00    +0.000 C 
ATOM      2  O   UNL     1       1.994   7.543  21.376  0.00  0.00    +0.000 OA
ATOM      3  N   UNL     1       1.146   8.930  19.752  0.00  0.00    +0.000 N 
ATOM      4  C   UNL     1       0.791   9.240  18.367  0.00  0.00    +0.000 C 
ATOM      5  C   UNL     1       0.103  10.561  18.047  0.00  0.00    +0.000 C 
ATOM      6  C   UNL     1      -0.494  11.287  19.190  0.00  0.00    +0.000 A 
ATOM      7  N   UNL     1      -1.177  12.410  18.871  0.00  0.00    +0.000 NA
ATOM      8  N   UNL     1      -1.797  13.133  19.841  0.00  0.00    +0.000 NA
ATOM      9  C   UNL     1      -1.721  12.736  21.121  0.00  0.00    +0.000 A 
ATOM     10  C   UNL     1      -1.006  11.602  21.476  0.00  0.00    +0.000 A 
ATOM     11  C   UNL     1      -0.354  10.851  20.490  0.00  0.00    +0.000 A 
ATOM     12  C   UNL     1       0.422   9.614  20.838  0.00  0.00    +0.000 C 
ENDROOT
BRANCH   1  16
ATOM     13  C   UNL     1       4.937   6.748  16.341  0.00  0.00    +0.000 C 
ATOM     14  C   UNL     1       3.997   6.281  17.410  0.00  0.00    +0.000 A 
ATOM     15  C   UNL     1       3.480   7.168  18.336  0.00  0.00    +0.000 A 
ATOM     16  C   UNL     1       2.475   6.763  19.214  0.00  0.00    +0.000 A 
ATOM     17  C   UNL     1       2.146   5.363  19.255  0.00  0.00    +0.000 A 
ATOM     18  C   UNL     1       1.223   4.729  20.137  0.00  0.00    +0.000 A 
ATOM     19  C   UNL     1       1.033   3.345  20.135  0.00  0.00    +0.000 A 
ATOM     20  C   UNL     1       1.747   2.560  19.253  0.00  0.00    +0.000 A 
ATOM     21  F   UNL     1       1.585   1.228  19.254  0.00  0.00    +0.000 F 
ATOM     22  C   UNL     1       2.630   3.145  18.356  0.00  0.00    +0.000 A 
ATOM     23  C   UNL     1       2.826   4.521  18.338  0.00  0.00    +0.000 A 
ATOM     24  N   UNL     1       3.682   4.974  17.418  0.00  0.00    +0.000 NA
ENDBRANCH   1  16
BRANCH   9  25
ATOM     25  N   UNL     1      -2.432  13.469  22.074  0.00  0.00    +0.000 N 
ATOM     26  H   UNL     1      -3.150  13.996  21.579  0.00  0.00    +0.000 HD
ATOM     27  H   UNL     1      -1.827  14.074  22.613  0.00  0.00    +0.000 HD
ENDBRANCH   9  25
TORSDOF 2
ENDMDL
