MODEL 1
REMARK VINA RESULT:      -7.9      0.000      0.000
REMARK  Name = 
REMARK  6 active torsions:
REMARK  status: ('A' for Active; 'I' for Inactive)
REMARK    1  A    between atoms: C_2  and  C_11
REMARK    2  A    between atoms: N_3  and  C_4
REMARK    3  A    between atoms: C_11  and  S_12
REMARK    4  A    between atoms: C_11  and  C_24
REMARK    5  A    between atoms: S_12  and  C_13
REMARK    6  A    between atoms: N_17  and  C_18
REMARK                            x       y       z     vdW  Elec       q    Type
REMARK                         _______ _______ _______ _____ _____    ______ ____
ROOT
ATOM      1  C   UNL     1       2.755   7.093  17.910  0.00  0.00    +0.000 C 
ENDROOT
BRANCH   1   2
ATOM      2  C   UNL     1       2.146   5.939  18.699  0.00  0.00    +0.000 A 
ATOM      3  C   UNL     1       2.308   5.887  20.097  0.00  0.00    +0.000 A 
ATOM      4  C   UNL     1       1.793   4.821  20.840  0.00  0.00    +0.000 A 
ATOM      5  C   UNL     1       1.106   3.794  20.201  0.00  0.00    +0.000 A 
ATOM      6  C   UNL     1       0.922   3.837  18.822  0.00  0.00    +0.000 A 
ATOM      7  C   UNL     1       1.431   4.904  18.076  0.00  0.00    +0.000 A 
ENDBRANCH   1   2
BRANCH   1   9
ATOM      8  O   UNL     1       2.151   9.335  17.255  0.00  0.00    +0.000 OA
ATOM      9  C   UNL     1       2.064   8.457  18.119  0.00  0.00    +0.000 C 
ATOM     10  N   UNL     1       1.442   8.636  19.340  0.00  0.00    +0.000 N 
ATOM     11  H   UNL     1       1.493   7.855  19.986  0.00  0.00    +0.000 HD
BRANCH  10  12
ATOM     12  C   UNL     1       0.656   9.721  19.765  0.00  0.00    +0.000 A 
ATOM     13  C   UNL     1       0.877  10.417  20.955  0.00  0.00    +0.000 A 
ATOM     14  C   UNL     1       0.031  11.464  21.327  0.00  0.00    +0.000 A 
ATOM     15  C   UNL     1      -1.030  11.814  20.505  0.00  0.00    +0.000 A 
ATOM     16  F   UNL     1      -1.856  12.801  20.877  0.00  0.00    +0.000 F 
ATOM     17  C   UNL     1      -1.246  11.158  19.300  0.00  0.00    +0.000 A 
ATOM     18  C   UNL     1      -0.394  10.119  18.923  0.00  0.00    +0.000 A 
ENDBRANCH  10  12
ENDBRANCH   1   9
BRANCH   1  19
ATOM     19  S   UNL     1       4.584   7.132  18.029  0.00  0.00    +0.000 S 
BRANCH  19  20
ATOM     20  C   UNL     1       5.076   6.148  16.692  0.00  0.00    +0.000 A 
ATOM     21  N   UNL     1       5.462   6.627  15.531  0.00  0.00    +0.000 NA
ATOM     22  N   UNL     1       5.928   5.560  14.818  0.00  0.00    +0.000 NA
ATOM     23  N   UNL     1       5.838   4.442  15.520  0.00  0.00    +0.000 NA
ATOM     24  N   UNL     1       5.209   4.772  16.680  0.00  0.00    +0.000 N 
BRANCH  24  25
ATOM     25  C   UNL     1       4.783   3.768  17.584  0.00  0.00    +0.000 A 
ATOM     26  C   UNL     1       3.992   2.717  17.106  0.00  0.00    +0.000 A 
ATOM     27  C   UNL     1       3.570   1.711  17.978  0.00  0.00    +0.000 A 
ATOM     28  C   UNL     1       3.916   1.767  19.325  0.00  0.00    +0.000 A 
ATOM     29  C   UNL     1       4.677   2.825  19.813  0.00  0.00    +0.000 A 
ATOM     30  C   UNL     1       5.107   3.830  18.945  0.00  0.00    +0.000 A 
ENDBRANCH  24  25
ENDBRANCH  19  20
ENDBRANCH   1  19
TORSDOF 6
ENDMDL
MODEL 2
REMARK VINA RESULT:      -7.8      0.210      1.283
REMARK  Name = 
REMARK  6 active torsions:
REMARK  status: ('A' for Active; 'I' for Inactive)
REMARK    1  A    between atoms: C_2  and  C_11
REMARK    2  A    between atoms: N_3  and  C_4
REMARK    3  A    between atoms: C_11  and  S_12
REMARK    4  A    between atoms: C_11  and  C_24
REMARK    5  A    between atoms: S_12  and  C_13
REMARK    6  A    between atoms: N_17  and  C_18
REMARK                            x       y       z     vdW  Elec       q    Type
REMARK                         _______ _______ _______ _____ _____    ______ ____
ROOT
ATOM      1  C   UNL     1       2.754   7.118  17.851  0.00  0.00    +0.000 C 
ENDROOT
BRANCH   1   2
ATOM      2  C   UNL     1       2.160   5.915  18.575  0.00  0.00    +0.000 A 
ATOM      3  C   UNL     1       1.507   4.908  17.838  0.00  0.00    +0.000 A 
ATOM      4  C   UNL     1       0.921   3.814  18.480  0.00  0.00    +0.000 A 
ATOM      5  C   UNL     1       0.979   3.706  19.866  0.00  0.00    +0.000 A 
ATOM      6  C   UNL     1       1.634   4.684  20.610  0.00  0.00    +0.000 A 
ATOM      7  C   UNL     1       2.227   5.776  19.971  0.00  0.00    +0.000 A 
ENDBRANCH   1   2
BRANCH   1   9
ATOM      8  O   UNL     1       2.090   9.375  17.312  0.00  0.00    +0.000 OA
ATOM      9  C   UNL     1       2.053   8.462  18.144  0.00  0.00    +0.000 C 
ATOM     10  N   UNL     1       1.484   8.583  19.398  0.00  0.00    +0.000 N 
ATOM     11  H   UNL     1       1.574   7.779  20.009  0.00  0.00    +0.000 HD
BRANCH  10  12
ATOM     12  C   UNL     1       0.702   9.638  19.899  0.00  0.00    +0.000 A 
ATOM     13  C   UNL     1       0.818  10.136  21.199  0.00  0.00    +0.000 A 
ATOM     14  C   UNL     1      -0.018  11.165  21.636  0.00  0.00    +0.000 A 
ATOM     15  C   UNL     1      -0.965  11.696  20.771  0.00  0.00    +0.000 A 
ATOM     16  F   UNL     1      -1.784  12.664  21.201  0.00  0.00    +0.000 F 
ATOM     17  C   UNL     1      -1.072  11.239  19.464  0.00  0.00    +0.000 A 
ATOM     18  C   UNL     1      -0.228  10.218  19.023  0.00  0.00    +0.000 A 
ENDBRANCH  10  12
ENDBRANCH   1   9
BRANCH   1  19
ATOM     19  S   UNL     1       4.583   7.165  17.959  0.00  0.00    +0.000 S 
BRANCH  19  20
ATOM     20  C   UNL     1       5.071   6.162  16.635  0.00  0.00    +0.000 A 
ATOM     21  N   UNL     1       5.450   6.623  15.465  0.00  0.00    +0.000 NA
ATOM     22  N   UNL     1       5.916   5.546  14.767  0.00  0.00    +0.000 NA
ATOM     23  N   UNL     1       5.831   4.439  15.487  0.00  0.00    +0.000 NA
ATOM     24  N   UNL     1       5.207   4.785  16.645  0.00  0.00    +0.000 N 
BRANCH  24  25
ATOM     25  C   UNL     1       4.789   3.795  17.567  0.00  0.00    +0.000 A 
ATOM     26  C   UNL     1       5.179   3.909  18.907  0.00  0.00    +0.000 A 
ATOM     27  C   UNL     1       4.769   2.950  19.835  0.00  0.00    +0.000 A 
ATOM     28  C   UNL     1       3.993   1.870  19.424  0.00  0.00    +0.000 A 
ATOM     29  C   UNL     1       3.627   1.734  18.089  0.00  0.00    +0.000 A 
ATOM     30  C   UNL     1       4.029   2.694  17.157  0.00  0.00    +0.000 A 
ENDBRANCH  24  25
ENDBRANCH  19  20
ENDBRANCH   1  19
TORSDOF 6
ENDMDL
MODEL 3
REMARK VINA RESULT:      -7.8      0.886      1.463
REMARK  Name = 
REMARK  6 active torsions:
REMARK  status: ('A' for Active; 'I' for Inactive)
REMARK    1  A    between atoms: C_2  and  C_11
REMARK    2  A    between atoms: N_3  and  C_4
REMARK    3  A    between atoms: C_11  and  S_12
REMARK    4  A    between atoms: C_11  and  C_24
REMARK    5  A    between atoms: S_12  and  C_13
REMARK    6  A    between atoms: N_17  and  C_18
REMARK                            x       y       z     vdW  Elec       q    Type
REMARK                         _______ _______ _______ _____ _____    ______ ____
ROOT
ATOM      1  C   UNL     1       2.516   6.949  18.245  0.00  0.00    +0.000 C 
ENDROOT
BRANCH   1   2
ATOM      2  C   UNL     1       1.977   5.652  18.841  0.00  0.00    +0.000 A 
ATOM      3  C   UNL     1       1.368   4.699  18.002  0.00  0.00    +0.000 A 
ATOM      4  C   UNL     1       0.832   3.520  18.527  0.00  0.00    +0.000 A 
ATOM      5  C   UNL     1       0.899   3.272  19.895  0.00  0.00    +0.000 A 
ATOM      6  C   UNL     1       1.512   4.196  20.737  0.00  0.00    +0.000 A 
ATOM      7  C   UNL     1       2.054   5.374  20.215  0.00  0.00    +0.000 A 
ENDBRANCH   1   2
BRANCH   1   9
ATOM      8  O   UNL     1       1.436   9.073  17.866  0.00  0.00    +0.000 OA
ATOM      9  C   UNL     1       1.776   8.226  18.698  0.00  0.00    +0.000 C 
ATOM     10  N   UNL     1       1.614   8.376  20.063  0.00  0.00    +0.000 N 
ATOM     11  H   UNL     1       1.992   7.634  20.642  0.00  0.00    +0.000 HD
BRANCH  10  12
ATOM     12  C   UNL     1       0.900   9.374  20.748  0.00  0.00    +0.000 A 
ATOM     13  C   UNL     1       0.848  10.708  20.338  0.00  0.00    +0.000 A 
ATOM     14  C   UNL     1       0.145  11.649  21.092  0.00  0.00    +0.000 A 
ATOM     15  C   UNL     1      -0.507  11.254  22.251  0.00  0.00    +0.000 A 
ATOM     16  F   UNL     1      -1.158  12.164  22.987  0.00  0.00    +0.000 F 
ATOM     17  C   UNL     1      -0.498   9.926  22.656  0.00  0.00    +0.000 A 
ATOM     18  C   UNL     1       0.196   8.982  21.897  0.00  0.00    +0.000 A 
ENDBRANCH  10  12
ENDBRANCH   1   9
BRANCH   1  19
ATOM     19  S   UNL     1       4.344   7.049  18.328  0.00  0.00    +0.000 S 
BRANCH  19  20
ATOM     20  C   UNL     1       4.840   6.174  16.919  0.00  0.00    +0.000 A 
ATOM     21  N   UNL     1       5.158   6.741  15.777  0.00  0.00    +0.000 NA
ATOM     22  N   UNL     1       5.655   5.744  14.987  0.00  0.00    +0.000 NA
ATOM     23  N   UNL     1       5.649   4.584  15.623  0.00  0.00    +0.000 NA
ATOM     24  N   UNL     1       5.045   4.810  16.820  0.00  0.00    +0.000 N 
BRANCH  24  25
ATOM     25  C   UNL     1       4.706   3.733  17.675  0.00  0.00    +0.000 A 
ATOM     26  C   UNL     1       4.005   2.642  17.146  0.00  0.00    +0.000 A 
ATOM     27  C   UNL     1       3.669   1.566  17.969  0.00  0.00    +0.000 A 
ATOM     28  C   UNL     1       4.010   1.587  19.318  0.00  0.00    +0.000 A 
ATOM     29  C   UNL     1       4.679   2.681  19.857  0.00  0.00    +0.000 A 
ATOM     30  C   UNL     1       5.023   3.758  19.038  0.00  0.00    +0.000 A 
ENDBRANCH  24  25
ENDBRANCH  19  20
ENDBRANCH   1  19
TORSDOF 6
ENDMDL
MODEL 4
REMARK VINA RESULT:      -7.6      0.586      1.404
REMARK  Name = 
REMARK  6 active torsions:
REMARK  status: ('A' for Active; 'I' for Inactive)
REMARK    1  A    between atoms: C_2  and  C_11
REMARK    2  A    between atoms: N_3  and  C_4
REMARK    3  A    between atoms: C_11  and  S_12
REMARK    4  A    between atoms: C_11  and  C_24
REMARK    5  A    between atoms: S_12  and  C_13
REMARK    6  A    between atoms: N_17  and  C_18
REMARK                            x       y       z     vdW  Elec       q    Type
REMARK                         _______ _______ _______ _____ _____    ______ ____
ROOT
ATOM      1  C   UNL     1       2.937   7.230  17.702  0.00  0.00    +0.000 C 
ENDROOT
BRANCH   1   2
ATOM      2  C   UNL     1       2.309   6.139  18.563  0.00  0.00    +0.000 A 
ATOM      3  C   UNL     1       1.599   5.088  17.950  0.00  0.00    +0.000 A 
ATOM      4  C   UNL     1       0.981   4.097  18.717  0.00  0.00    +0.000 A 
ATOM      5  C   UNL     1       1.066   4.135  20.105  0.00  0.00    +0.000 A 
ATOM      6  C   UNL     1       1.777   5.157  20.728  0.00  0.00    +0.000 A 
ATOM      7  C   UNL     1       2.401   6.148  19.964  0.00  0.00    +0.000 A 
ENDBRANCH   1   2
BRANCH   1   9
ATOM      8  O   UNL     1       2.860   9.621  17.387  0.00  0.00    +0.000 OA
ATOM      9  C   UNL     1       2.301   8.628  17.863  0.00  0.00    +0.000 C 
ATOM     10  N   UNL     1       1.151   8.682  18.629  0.00  0.00    +0.000 N 
ATOM     11  H   UNL     1       0.828   7.800  19.012  0.00  0.00    +0.000 HD
BRANCH  10  12
ATOM     12  C   UNL     1       0.312   9.786  18.859  0.00  0.00    +0.000 A 
ATOM     13  C   UNL     1      -0.824  10.066  18.097  0.00  0.00    +0.000 A 
ATOM     14  C   UNL     1      -1.590  11.202  18.365  0.00  0.00    +0.000 A 
ATOM     15  C   UNL     1      -1.220  12.052  19.397  0.00  0.00    +0.000 A 
ATOM     16  F   UNL     1      -1.940  13.155  19.635  0.00  0.00    +0.000 F 
ATOM     17  C   UNL     1      -0.115  11.772  20.189  0.00  0.00    +0.000 A 
ATOM     18  C   UNL     1       0.645  10.631  19.929  0.00  0.00    +0.000 A 
ENDBRANCH  10  12
ENDBRANCH   1   9
BRANCH   1  19
ATOM     19  S   UNL     1       4.768   7.205  17.769  0.00  0.00    +0.000 S 
BRANCH  19  20
ATOM     20  C   UNL     1       5.185   6.134  16.475  0.00  0.00    +0.000 A 
ATOM     21  N   UNL     1       5.561   6.535  15.282  0.00  0.00    +0.000 NA
ATOM     22  N   UNL     1       5.964   5.413  14.616  0.00  0.00    +0.000 NA
ATOM     23  N   UNL     1       5.843   4.338  15.378  0.00  0.00    +0.000 NA
ATOM     24  N   UNL     1       5.258   4.754  16.533  0.00  0.00    +0.000 N 
BRANCH  24  25
ATOM     25  C   UNL     1       4.813   3.817  17.498  0.00  0.00    +0.000 A 
ATOM     26  C   UNL     1       3.981   2.768  17.090  0.00  0.00    +0.000 A 
ATOM     27  C   UNL     1       3.539   1.828  18.023  0.00  0.00    +0.000 A 
ATOM     28  C   UNL     1       3.906   1.948  19.361  0.00  0.00    +0.000 A 
ATOM     29  C   UNL     1       4.708   3.006  19.778  0.00  0.00    +0.000 A 
ATOM     30  C   UNL     1       5.158   3.945  18.848  0.00  0.00    +0.000 A 
ENDBRANCH  24  25
ENDBRANCH  19  20
ENDBRANCH   1  19
TORSDOF 6
ENDMDL
MODEL 5
REMARK VINA RESULT:      -7.5      1.307      1.743
REMARK  Name = 
REMARK  6 active torsions:
REMARK  status: ('A' for Active; 'I' for Inactive)
REMARK    1  A    between atoms: C_2  and  C_11
REMARK    2  A    between atoms: N_3  and  C_4
REMARK    3  A    between atoms: C_11  and  S_12
REMARK    4  A    between atoms: C_11  and  C_24
REMARK    5  A    between atoms: S_12  and  C_13
REMARK    6  A    between atoms: N_17  and  C_18
REMARK                            x       y       z     vdW  Elec       q    Type
REMARK                         _______ _______ _______ _____ _____    ______ ____
ROOT
ATOM      1  C   UNL     1       2.574   6.955  18.413  0.00  0.00    +0.000 C 
ENDROOT
BRANCH   1   2
ATOM      2  C   UNL     1       2.005   5.639  18.932  0.00  0.00    +0.000 A 
ATOM      3  C   UNL     1       1.414   4.731  18.032  0.00  0.00    +0.000 A 
ATOM      4  C   UNL     1       0.851   3.535  18.487  0.00  0.00    +0.000 A 
ATOM      5  C   UNL     1       0.872   3.226  19.843  0.00  0.00    +0.000 A 
ATOM      6  C   UNL     1       1.466   4.105  20.745  0.00  0.00    +0.000 A 
ATOM      7  C   UNL     1       2.036   5.298  20.294  0.00  0.00    +0.000 A 
ENDBRANCH   1   2
BRANCH   1   9
ATOM      8  O   UNL     1       1.809   8.393  20.193  0.00  0.00    +0.000 OA
ATOM      9  C   UNL     1       1.892   8.222  18.973  0.00  0.00    +0.000 C 
ATOM     10  N   UNL     1       1.329   9.068  18.036  0.00  0.00    +0.000 N 
ATOM     11  H   UNL     1       1.417   8.782  17.066  0.00  0.00    +0.000 HD
BRANCH  10  12
ATOM     12  C   UNL     1       0.740  10.327  18.243  0.00  0.00    +0.000 A 
ATOM     13  C   UNL     1      -0.637  10.553  18.202  0.00  0.00    +0.000 A 
ATOM     14  C   UNL     1      -1.145  11.841  18.384  0.00  0.00    +0.000 A 
ATOM     15  C   UNL     1      -0.275  12.897  18.612  0.00  0.00    +0.000 A 
ATOM     16  F   UNL     1      -0.763  14.136  18.759  0.00  0.00    +0.000 F 
ATOM     17  C   UNL     1       1.095  12.687  18.693  0.00  0.00    +0.000 A 
ATOM     18  C   UNL     1       1.603  11.398  18.521  0.00  0.00    +0.000 A 
ENDBRANCH  10  12
ENDBRANCH   1   9
BRANCH   1  19
ATOM     19  S   UNL     1       4.406   6.987  18.450  0.00  0.00    +0.000 S 
BRANCH  19  20
ATOM     20  C   UNL     1       4.834   6.138  17.004  0.00  0.00    +0.000 A 
ATOM     21  N   UNL     1       5.126   6.726  15.866  0.00  0.00    +0.000 NA
ATOM     22  N   UNL     1       5.574   5.740  15.035  0.00  0.00    +0.000 NA
ATOM     23  N   UNL     1       5.563   4.564  15.642  0.00  0.00    +0.000 NA
ATOM     24  N   UNL     1       5.006   4.773  16.865  0.00  0.00    +0.000 N 
BRANCH  24  25
ATOM     25  C   UNL     1       4.672   3.682  17.705  0.00  0.00    +0.000 A 
ATOM     26  C   UNL     1       3.967   2.600  17.163  0.00  0.00    +0.000 A 
ATOM     27  C   UNL     1       3.637   1.511  17.971  0.00  0.00    +0.000 A 
ATOM     28  C   UNL     1       3.988   1.510  19.318  0.00  0.00    +0.000 A 
ATOM     29  C   UNL     1       4.662   2.595  19.870  0.00  0.00    +0.000 A 
ATOM     30  C   UNL     1       5.000   3.685  19.066  0.00  0.00    +0.000 A 
ENDBRANCH  24  25
ENDBRANCH  19  20
ENDBRANCH   1  19
TORSDOF 6
ENDMDL
MODEL 6
REMARK VINA RESULT:      -7.5      1.137      1.678
REMARK  Name = 
REMARK  6 active torsions:
REMARK  status: ('A' for Active; 'I' for Inactive)
REMARK    1  A    between atoms: C_2  and  C_11
REMARK    2  A    between atoms: N_3  and  C_4
REMARK    3  A    between atoms: C_11  and  S_12
REMARK    4  A    between atoms: C_11  and  C_24
REMARK    5  A    between atoms: S_12  and  C_13
REMARK    6  A    between atoms: N_17  and  C_18
REMARK                            x       y       z     vdW  Elec       q    Type
REMARK                         _______ _______ _______ _____ _____    ______ ____
ROOT
ATOM      1  C   UNL     1       2.537   6.722  18.833  0.00  0.00    +0.000 C 
ENDROOT
BRANCH   1   2
ATOM      2  C   UNL     1       2.078   5.491  19.608  0.00  0.00    +0.000 A 
ATOM      3  C   UNL     1       2.686   5.175  20.838  0.00  0.00    +0.000 A 
ATOM      4  C   UNL     1       2.312   4.033  21.551  0.00  0.00    +0.000 A 
ATOM      5  C   UNL     1       1.324   3.191  21.050  0.00  0.00    +0.000 A 
ATOM      6  C   UNL     1       0.701   3.497  19.843  0.00  0.00    +0.000 A 
ATOM      7  C   UNL     1       1.068   4.641  19.130  0.00  0.00    +0.000 A 
ENDBRANCH   1   2
BRANCH   1   9
ATOM      8  O   UNL     1       1.538   8.859  18.324  0.00  0.00    +0.000 OA
ATOM      9  C   UNL     1       1.803   8.030  19.200  0.00  0.00    +0.000 C 
ATOM     10  N   UNL     1       1.560   8.225  20.547  0.00  0.00    +0.000 N 
ATOM     11  H   UNL     1       1.882   7.492  21.170  0.00  0.00    +0.000 HD
BRANCH  10  12
ATOM     12  C   UNL     1       0.831   9.260  21.157  0.00  0.00    +0.000 A 
ATOM     13  C   UNL     1       0.846  10.584  20.712  0.00  0.00    +0.000 A 
ATOM     14  C   UNL     1       0.121  11.564  21.392  0.00  0.00    +0.000 A 
ATOM     15  C   UNL     1      -0.620  11.217  22.512  0.00  0.00    +0.000 A 
ATOM     16  F   UNL     1      -1.293  12.164  23.179  0.00  0.00    +0.000 F 
ATOM     17  C   UNL     1      -0.677   9.901  22.950  0.00  0.00    +0.000 A 
ATOM     18  C   UNL     1       0.039   8.918  22.264  0.00  0.00    +0.000 A 
ENDBRANCH  10  12
ENDBRANCH   1   9
BRANCH   1  19
ATOM     19  S   UNL     1       4.363   6.860  18.757  0.00  0.00    +0.000 S 
BRANCH  19  20
ATOM     20  C   UNL     1       4.732   6.209  17.196  0.00  0.00    +0.000 A 
ATOM     21  N   UNL     1       5.103   6.936  16.166  0.00  0.00    +0.000 NA
ATOM     22  N   UNL     1       5.466   6.052  15.191  0.00  0.00    +0.000 NA
ATOM     23  N   UNL     1       5.326   4.802  15.604  0.00  0.00    +0.000 NA
ATOM     24  N   UNL     1       4.769   4.872  16.843  0.00  0.00    +0.000 N 
BRANCH  24  25
ATOM     25  C   UNL     1       4.311   3.703  17.498  0.00  0.00    +0.000 A 
ATOM     26  C   UNL     1       4.935   3.305  18.687  0.00  0.00    +0.000 A 
ATOM     27  C   UNL     1       4.493   2.161  19.355  0.00  0.00    +0.000 A 
ATOM     28  C   UNL     1       3.450   1.405  18.828  0.00  0.00    +0.000 A 
ATOM     29  C   UNL     1       2.845   1.779  17.631  0.00  0.00    +0.000 A 
ATOM     30  C   UNL     1       3.279   2.925  16.962  0.00  0.00    +0.000 A 
ENDBRANCH  24  25
ENDBRANCH  19  20
ENDBRANCH   1  19
TORSDOF 6
ENDMDL
MODEL 7
REMARK VINA RESULT:      -7.5      1.400      1.696
REMARK  Name = 
REMARK  6 active torsions:
REMARK  status: ('A' for Active; 'I' for Inactive)
REMARK    1  A    between atoms: C_2  and  C_11
REMARK    2  A    between atoms: N_3  and  C_4
REMARK    3  A    between atoms: C_11  and  S_12
REMARK    4  A    between atoms: C_11  and  C_24
REMARK    5  A    between atoms: S_12  and  C_13
REMARK    6  A    between atoms: N_17  and  C_18
REMARK                            x       y       z     vdW  Elec       q    Type
REMARK                         _______ _______ _______ _____ _____    ______ ____
ROOT
ATOM      1  C   UNL     1       2.621   6.695  18.883  0.00  0.00    +0.000 C 
ENDROOT
BRANCH   1   2
ATOM      2  C   UNL     1       2.167   5.448  19.635  0.00  0.00    +0.000 A 
ATOM      3  C   UNL     1       1.123   4.660  19.114  0.00  0.00    +0.000 A 
ATOM      4  C   UNL     1       0.662   3.534  19.801  0.00  0.00    +0.000 A 
ATOM      5  C   UNL     1       1.239   3.174  21.015  0.00  0.00    +0.000 A 
ATOM      6  C   UNL     1       2.283   3.932  21.537  0.00  0.00    +0.000 A 
ATOM      7  C   UNL     1       2.751   5.056  20.850  0.00  0.00    +0.000 A 
ENDBRANCH   1   2
BRANCH   1   9
ATOM      8  O   UNL     1       1.638   8.197  20.496  0.00  0.00    +0.000 OA
ATOM      9  C   UNL     1       1.915   8.001  19.309  0.00  0.00    +0.000 C 
ATOM     10  N   UNL     1       1.554   8.853  18.281  0.00  0.00    +0.000 N 
ATOM     11  H   UNL     1       1.788   8.545  17.343  0.00  0.00    +0.000 HD
BRANCH  10  12
ATOM     12  C   UNL     1       0.998  10.140  18.375  0.00  0.00    +0.000 A 
ATOM     13  C   UNL     1       1.759  11.302  18.523  0.00  0.00    +0.000 A 
ATOM     14  C   UNL     1       1.132  12.543  18.644  0.00  0.00    +0.000 A 
ATOM     15  C   UNL     1      -0.253  12.620  18.611  0.00  0.00    +0.000 A 
ATOM     16  F   UNL     1      -0.853  13.809  18.755  0.00  0.00    +0.000 F 
ATOM     17  C   UNL     1      -1.026  11.481  18.429  0.00  0.00    +0.000 A 
ATOM     18  C   UNL     1      -0.399  10.241  18.298  0.00  0.00    +0.000 A 
ENDBRANCH  10  12
ENDBRANCH   1   9
BRANCH   1  19
ATOM     19  S   UNL     1       4.446   6.812  18.762  0.00  0.00    +0.000 S 
BRANCH  19  20
ATOM     20  C   UNL     1       4.767   6.168  17.187  0.00  0.00    +0.000 A 
ATOM     21  N   UNL     1       5.122   6.898  16.154  0.00  0.00    +0.000 NA
ATOM     22  N   UNL     1       5.449   6.016  15.164  0.00  0.00    +0.000 NA
ATOM     23  N   UNL     1       5.303   4.766  15.572  0.00  0.00    +0.000 NA
ATOM     24  N   UNL     1       4.777   4.834  16.824  0.00  0.00    +0.000 N 
BRANCH  24  25
ATOM     25  C   UNL     1       4.321   3.666  17.483  0.00  0.00    +0.000 A 
ATOM     26  C   UNL     1       3.227   2.972  16.952  0.00  0.00    +0.000 A 
ATOM     27  C   UNL     1       2.767   1.813  17.580  0.00  0.00    +0.000 A 
ATOM     28  C   UNL     1       3.381   1.361  18.745  0.00  0.00    +0.000 A 
ATOM     29  C   UNL     1       4.449   2.063  19.295  0.00  0.00    +0.000 A 
ATOM     30  C   UNL     1       4.917   3.219  18.668  0.00  0.00    +0.000 A 
ENDBRANCH  24  25
ENDBRANCH  19  20
ENDBRANCH   1  19
TORSDOF 6
ENDMDL
MODEL 8
REMARK VINA RESULT:      -7.4      1.243      1.253
REMARK  Name = 
REMARK  6 active torsions:
REMARK  status: ('A' for Active; 'I' for Inactive)
REMARK    1  A    between atoms: C_2  and  C_11
REMARK    2  A    between atoms: N_3  and  C_4
REMARK    3  A    between atoms: C_11  and  S_12
REMARK    4  A    between atoms: C_11  and  C_24
REMARK    5  A    between atoms: S_12  and  C_13
REMARK    6  A    between atoms: N_17  and  C_18
REMARK                            x       y       z     vdW  Elec       q    Type
REMARK                         _______ _______ _______ _____ _____    ______ ____
ROOT
ATOM      1  C   UNL     1       2.565   6.960  18.347  0.00  0.00    +0.000 C 
ENDROOT
BRANCH   1   2
ATOM      2  C   UNL     1       1.948   5.642  18.803  0.00  0.00    +0.000 A 
ATOM      3  C   UNL     1       1.927   5.318  20.173  0.00  0.00    +0.000 A 
ATOM      4  C   UNL     1       1.403   4.100  20.615  0.00  0.00    +0.000 A 
ATOM      5  C   UNL     1       0.887   3.190  19.698  0.00  0.00    +0.000 A 
ATOM      6  C   UNL     1       0.884   3.500  18.341  0.00  0.00    +0.000 A 
ATOM      7  C   UNL     1       1.403   4.719  17.895  0.00  0.00    +0.000 A 
ENDBRANCH   1   2
BRANCH   1   9
ATOM      8  O   UNL     1       1.855   8.377  20.166  0.00  0.00    +0.000 OA
ATOM      9  C   UNL     1       1.907   8.223  18.942  0.00  0.00    +0.000 C 
ATOM     10  N   UNL     1       1.328   9.086  18.031  0.00  0.00    +0.000 N 
ATOM     11  H   UNL     1       1.389   8.814  17.055  0.00  0.00    +0.000 HD
BRANCH  10  12
ATOM     12  C   UNL     1       0.755  10.347  18.271  0.00  0.00    +0.000 A 
ATOM     13  C   UNL     1       1.501  11.499  18.530  0.00  0.00    +0.000 A 
ATOM     14  C   UNL     1       0.858  12.710  18.794  0.00  0.00    +0.000 A 
ATOM     15  C   UNL     1      -0.528  12.767  18.793  0.00  0.00    +0.000 A 
ATOM     16  F   UNL     1      -1.143  13.923  19.073  0.00  0.00    +0.000 F 
ATOM     17  C   UNL     1      -1.288  11.641  18.501  0.00  0.00    +0.000 A 
ATOM     18  C   UNL     1      -0.645  10.433  18.227  0.00  0.00    +0.000 A 
ENDBRANCH  10  12
ENDBRANCH   1   9
BRANCH   1  19
ATOM     19  S   UNL     1       4.396   6.937  18.423  0.00  0.00    +0.000 S 
BRANCH  19  20
ATOM     20  C   UNL     1       4.829   6.077  16.985  0.00  0.00    +0.000 A 
ATOM     21  N   UNL     1       5.121   6.656  15.842  0.00  0.00    +0.000 NA
ATOM     22  N   UNL     1       5.573   5.664  15.021  0.00  0.00    +0.000 NA
ATOM     23  N   UNL     1       5.565   4.493  15.638  0.00  0.00    +0.000 NA
ATOM     24  N   UNL     1       5.005   4.711  16.858  0.00  0.00    +0.000 N 
BRANCH  24  25
ATOM     25  C   UNL     1       4.673   3.626  17.707  0.00  0.00    +0.000 A 
ATOM     26  C   UNL     1       3.997   2.525  17.167  0.00  0.00    +0.000 A 
ATOM     27  C   UNL     1       3.669   1.441  17.983  0.00  0.00    +0.000 A 
ATOM     28  C   UNL     1       3.994   1.465  19.337  0.00  0.00    +0.000 A 
ATOM     29  C   UNL     1       4.639   2.569  19.886  0.00  0.00    +0.000 A 
ATOM     30  C   UNL     1       4.974   3.654  19.073  0.00  0.00    +0.000 A 
ENDBRANCH  24  25
ENDBRANCH  19  20
ENDBRANCH   1  19
TORSDOF 6
ENDMDL
MODEL 9
REMARK VINA RESULT:      -7.4      1.422      2.058
REMARK  Name = 
REMARK  6 active torsions:
REMARK  status: ('A' for Active; 'I' for Inactive)
REMARK    1  A    between atoms: C_2  and  C_11
REMARK    2  A    between atoms: N_3  and  C_4
REMARK    3  A    between atoms: C_11  and  S_12
REMARK    4  A    between atoms: C_11  and  C_24
REMARK    5  A    between atoms: S_12  and  C_13
REMARK    6  A    between atoms: N_17  and  C_18
REMARK                            x       y       z     vdW  Elec       q    Type
REMARK                         _______ _______ _______ _____ _____    ______ ____
ROOT
ATOM      1  C   UNL     1       2.583   6.689  18.910  0.00  0.00    +0.000 C 
ENDROOT
BRANCH   1   2
ATOM      2  C   UNL     1       2.149   5.434  19.660  0.00  0.00    +0.000 A 
ATOM      3  C   UNL     1       1.121   4.628  19.134  0.00  0.00    +0.000 A 
ATOM      4  C   UNL     1       0.678   3.493  19.820  0.00  0.00    +0.000 A 
ATOM      5  C   UNL     1       1.256   3.143  21.036  0.00  0.00    +0.000 A 
ATOM      6  C   UNL     1       2.285   3.919  21.562  0.00  0.00    +0.000 A 
ATOM      7  C   UNL     1       2.735   5.051  20.877  0.00  0.00    +0.000 A 
ENDBRANCH   1   2
BRANCH   1   9
ATOM      8  O   UNL     1       1.519   8.149  20.511  0.00  0.00    +0.000 OA
ATOM      9  C   UNL     1       1.851   7.982  19.333  0.00  0.00    +0.000 C 
ATOM     10  N   UNL     1       1.534   8.856  18.311  0.00  0.00    +0.000 N 
ATOM     11  H   UNL     1       1.812   8.572  17.377  0.00  0.00    +0.000 HD
BRANCH  10  12
ATOM     12  C   UNL     1       0.968  10.139  18.408  0.00  0.00    +0.000 A 
ATOM     13  C   UNL     1      -0.408  10.375  18.449  0.00  0.00    +0.000 A 
ATOM     14  C   UNL     1      -0.896  11.682  18.512  0.00  0.00    +0.000 A 
ATOM     15  C   UNL     1      -0.007  12.747  18.538  0.00  0.00    +0.000 A 
ATOM     16  F   UNL     1      -0.478  14.000  18.570  0.00  0.00    +0.000 F 
ATOM     17  C   UNL     1       1.364  12.531  18.534  0.00  0.00    +0.000 A 
ATOM     18  C   UNL     1       1.853  11.225  18.482  0.00  0.00    +0.000 A 
ENDBRANCH  10  12
ENDBRANCH   1   9
BRANCH   1  19
ATOM     19  S   UNL     1       4.406   6.840  18.796  0.00  0.00    +0.000 S 
BRANCH  19  20
ATOM     20  C   UNL     1       4.744   6.216  17.218  0.00  0.00    +0.000 A 
ATOM     21  N   UNL     1       5.104   6.959  16.196  0.00  0.00    +0.000 NA
ATOM     22  N   UNL     1       5.444   6.090  15.198  0.00  0.00    +0.000 NA
ATOM     23  N   UNL     1       5.301   4.834  15.591  0.00  0.00    +0.000 NA
ATOM     24  N   UNL     1       4.764   4.885  16.839  0.00  0.00    +0.000 N 
BRANCH  24  25
ATOM     25  C   UNL     1       4.308   3.708  17.481  0.00  0.00    +0.000 A 
ATOM     26  C   UNL     1       4.945   3.285  18.654  0.00  0.00    +0.000 A 
ATOM     27  C   UNL     1       4.505   2.133  19.308  0.00  0.00    +0.000 A 
ATOM     28  C   UNL     1       3.449   1.393  18.782  0.00  0.00    +0.000 A 
ATOM     29  C   UNL     1       2.831   1.791  17.600  0.00  0.00    +0.000 A 
ATOM     30  C   UNL     1       3.263   2.946  16.945  0.00  0.00    +0.000 A 
ENDBRANCH  24  25
ENDBRANCH  19  20
ENDBRANCH   1  19
TORSDOF 6
ENDMDL
