MODEL 1
REMARK VINA RESULT:      -8.7      0.000      0.000
REMARK  Name = 
REMARK  3 active torsions:
REMARK  status: ('A' for Active; 'I' for Inactive)
REMARK    1  A    between atoms: C_4  and  C_5
REMARK    2  A    between atoms: C_8  and  C_9
REMARK    3  A    between atoms: N_11  and  C_12
REMARK                            x       y       z     vdW  Elec       q    Type
REMARK                         _______ _______ _______ _____ _____    ______ ____
ROOT
ATOM      1  C   UNL     1       7.447   5.922  18.256  0.00  0.00    +0.000 C 
ATOM      2  C   UNL     1       6.208   5.459  17.468  0.00  0.00    +0.000 C 
ATOM      3  N   UNL     1       5.623   5.043  18.694  0.00  0.00    +0.000 N 
ATOM      4  C   UNL     1       6.600   5.665  19.514  0.00  0.00    +0.000 C 
ENDROOT
BRANCH   3   5
ATOM      5  C   UNL     1       4.757   3.977  18.964  0.00  0.00    +0.000 A 
ATOM      6  N   UNL     1       5.245   2.872  19.566  0.00  0.00    +0.000 NA
ATOM      7  C   UNL     1       4.379   1.860  19.794  0.00  0.00    +0.000 A 
ATOM      8  N   UNL     1       3.083   1.820  19.464  0.00  0.00    +0.000 NA
ATOM      9  C   UNL     1       2.649   2.929  18.851  0.00  0.00    +0.000 A 
ATOM     10  C   UNL     1       3.432   4.029  18.592  0.00  0.00    +0.000 A 
ATOM     11  C   UNL     1       2.671   5.097  17.897  0.00  0.00    +0.000 C 
ATOM     12  C   UNL     1       1.295   4.470  17.655  0.00  0.00    +0.000 C 
ATOM     13  C   UNL     1       1.250   3.100  18.344  0.00  0.00    +0.000 C 
ENDBRANCH   3   5
BRANCH   1  17
ATOM     14  C   UNL     1       8.622   9.306  18.330  0.00  0.00    +0.000 A 
ATOM     15  N   UNL     1       7.823   9.434  17.257  0.00  0.00    +0.000 NA
ATOM     16  O   UNL     1       7.297   8.163  17.076  0.00  0.00    +0.000 OA
ATOM     17  C   UNL     1       7.811   7.377  18.068  0.00  0.00    +0.000 A 
ATOM     18  N   UNL     1       8.625   8.034  18.865  0.00  0.00    +0.000 NA
BRANCH  14  22
ATOM     19  C   UNL     1      10.936  12.506  19.960  0.00  0.00    +0.000 A 
ATOM     20  C   UNL     1      10.162  11.708  20.798  0.00  0.00    +0.000 A 
ATOM     21  C   UNL     1       9.404  10.663  20.264  0.00  0.00    +0.000 A 
ATOM     22  C   UNL     1       9.412  10.401  18.884  0.00  0.00    +0.000 A 
ATOM     23  C   UNL     1      10.194  11.215  18.051  0.00  0.00    +0.000 A 
ATOM     24  C   UNL     1      10.951  12.262  18.587  0.00  0.00    +0.000 A 
ENDBRANCH  14  22
ENDBRANCH   1  17
TORSDOF 3
ENDMDL
MODEL 2
REMARK VINA RESULT:      -8.6      1.057      1.084
REMARK  Name = 
REMARK  3 active torsions:
REMARK  status: ('A' for Active; 'I' for Inactive)
REMARK    1  A    between atoms: C_4  and  C_5
REMARK    2  A    between atoms: C_8  and  C_9
REMARK    3  A    between atoms: N_11  and  C_12
REMARK                            x       y       z     vdW  Elec       q    Type
REMARK                         _______ _______ _______ _____ _____    ______ ____
ROOT
ATOM      1  C   UNL     1       7.100   5.746  18.129  0.00  0.00    +0.000 C 
ATOM      2  C   UNL     1       5.920   5.312  17.238  0.00  0.00    +0.000 C 
ATOM      3  N   UNL     1       5.217   4.928  18.411  0.00  0.00    +0.000 N 
ATOM      4  C   UNL     1       6.138   5.529  19.309  0.00  0.00    +0.000 C 
ENDROOT
BRANCH   3   5
ATOM      5  C   UNL     1       4.297   3.892  18.613  0.00  0.00    +0.000 A 
ATOM      6  N   UNL     1       4.512   2.700  18.019  0.00  0.00    +0.000 NA
ATOM      7  C   UNL     1       3.593   1.732  18.226  0.00  0.00    +0.000 A 
ATOM      8  N   UNL     1       2.466   1.833  18.942  0.00  0.00    +0.000 NA
ATOM      9  C   UNL     1       2.285   3.039  19.494  0.00  0.00    +0.000 A 
ATOM     10  C   UNL     1       3.166   4.088  19.374  0.00  0.00    +0.000 A 
ATOM     11  C   UNL     1       2.689   5.296  20.091  0.00  0.00    +0.000 C 
ATOM     12  C   UNL     1       1.305   4.892  20.610  0.00  0.00    +0.000 C 
ATOM     13  C   UNL     1       1.076   3.407  20.298  0.00  0.00    +0.000 C 
ENDBRANCH   3   5
BRANCH   1  17
ATOM     14  C   UNL     1       8.431   9.071  18.240  0.00  0.00    +0.000 A 
ATOM     15  N   UNL     1       7.607   9.260  17.196  0.00  0.00    +0.000 NA
ATOM     16  O   UNL     1       7.018   8.018  17.004  0.00  0.00    +0.000 OA
ATOM     17  C   UNL     1       7.525   7.187  17.962  0.00  0.00    +0.000 A 
ATOM     18  N   UNL     1       8.391   7.788  18.748  0.00  0.00    +0.000 NA
BRANCH  14  22
ATOM     19  C   UNL     1      10.937  12.124  19.868  0.00  0.00    +0.000 A 
ATOM     20  C   UNL     1      10.062  11.426  20.695  0.00  0.00    +0.000 A 
ATOM     21  C   UNL     1       9.242  10.429  20.162  0.00  0.00    +0.000 A 
ATOM     22  C   UNL     1       9.287  10.116  18.793  0.00  0.00    +0.000 A 
ATOM     23  C   UNL     1      10.170  10.830  17.971  0.00  0.00    +0.000 A 
ATOM     24  C   UNL     1      10.991  11.829  18.506  0.00  0.00    +0.000 A 
ENDBRANCH  14  22
ENDBRANCH   1  17
TORSDOF 3
ENDMDL
MODEL 3
REMARK VINA RESULT:      -8.5      0.298      1.012
REMARK  Name = 
REMARK  3 active torsions:
REMARK  status: ('A' for Active; 'I' for Inactive)
REMARK    1  A    between atoms: C_4  and  C_5
REMARK    2  A    between atoms: C_8  and  C_9
REMARK    3  A    between atoms: N_11  and  C_12
REMARK                            x       y       z     vdW  Elec       q    Type
REMARK                         _______ _______ _______ _____ _____    ______ ____
ROOT
ATOM      1  C   UNL     1       7.359   6.112  18.005  0.00  0.00    +0.000 C 
ATOM      2  C   UNL     1       5.943   5.833  17.467  0.00  0.00    +0.000 C 
ATOM      3  N   UNL     1       5.624   5.228  18.712  0.00  0.00    +0.000 N 
ATOM      4  C   UNL     1       6.804   5.666  19.368  0.00  0.00    +0.000 C 
ENDROOT
BRANCH   3   5
ATOM      5  C   UNL     1       4.767   4.160  19.002  0.00  0.00    +0.000 A 
ATOM      6  N   UNL     1       5.263   3.075  19.634  0.00  0.00    +0.000 NA
ATOM      7  C   UNL     1       4.407   2.060  19.882  0.00  0.00    +0.000 A 
ATOM      8  N   UNL     1       3.113   1.997  19.543  0.00  0.00    +0.000 NA
ATOM      9  C   UNL     1       2.672   3.086  18.899  0.00  0.00    +0.000 A 
ATOM     10  C   UNL     1       3.445   4.188  18.619  0.00  0.00    +0.000 A 
ATOM     11  C   UNL     1       2.678   5.230  17.892  0.00  0.00    +0.000 C 
ATOM     12  C   UNL     1       1.311   4.581  17.655  0.00  0.00    +0.000 C 
ATOM     13  C   UNL     1       1.275   3.228  18.378  0.00  0.00    +0.000 C 
ENDBRANCH   3   5
BRANCH   1  17
ATOM     14  C   UNL     1       8.668   9.419  18.432  0.00  0.00    +0.000 A 
ATOM     15  N   UNL     1       7.843   9.701  17.410  0.00  0.00    +0.000 NA
ATOM     16  O   UNL     1       7.262   8.480  17.101  0.00  0.00    +0.000 OA
ATOM     17  C   UNL     1       7.775   7.565  17.975  0.00  0.00    +0.000 A 
ATOM     18  N   UNL     1       8.638   8.094  18.815  0.00  0.00    +0.000 NA
BRANCH  14  22
ATOM     19  C   UNL     1      11.157  12.330  20.326  0.00  0.00    +0.000 A 
ATOM     20  C   UNL     1      11.405  11.952  19.009  0.00  0.00    +0.000 A 
ATOM     21  C   UNL     1      10.591  10.999  18.391  0.00  0.00    +0.000 A 
ATOM     22  C   UNL     1       9.518  10.413  19.082  0.00  0.00    +0.000 A 
ATOM     23  C   UNL     1       9.283  10.800  20.410  0.00  0.00    +0.000 A 
ATOM     24  C   UNL     1      10.099  11.754  21.027  0.00  0.00    +0.000 A 
ENDBRANCH  14  22
ENDBRANCH   1  17
TORSDOF 3
ENDMDL
MODEL 4
REMARK VINA RESULT:      -8.5      1.072      1.451
REMARK  Name = 
REMARK  3 active torsions:
REMARK  status: ('A' for Active; 'I' for Inactive)
REMARK    1  A    between atoms: C_4  and  C_5
REMARK    2  A    between atoms: C_8  and  C_9
REMARK    3  A    between atoms: N_11  and  C_12
REMARK                            x       y       z     vdW  Elec       q    Type
REMARK                         _______ _______ _______ _____ _____    ______ ____
ROOT
ATOM      1  C   UNL     1       7.100   5.879  17.931  0.00  0.00    +0.000 C 
ATOM      2  C   UNL     1       5.763   5.585  17.225  0.00  0.00    +0.000 C 
ATOM      3  N   UNL     1       5.269   5.060  18.450  0.00  0.00    +0.000 N 
ATOM      4  C   UNL     1       6.360   5.523  19.231  0.00  0.00    +0.000 C 
ENDROOT
BRANCH   3   5
ATOM      5  C   UNL     1       4.361   4.021  18.684  0.00  0.00    +0.000 A 
ATOM      6  N   UNL     1       4.596   2.809  18.138  0.00  0.00    +0.000 NA
ATOM      7  C   UNL     1       3.688   1.838  18.376  0.00  0.00    +0.000 A 
ATOM      8  N   UNL     1       2.555   1.951  19.079  0.00  0.00    +0.000 NA
ATOM      9  C   UNL     1       2.354   3.175  19.584  0.00  0.00    +0.000 A 
ATOM     10  C   UNL     1       3.222   4.230  19.429  0.00  0.00    +0.000 A 
ATOM     11  C   UNL     1       2.724   5.458  20.096  0.00  0.00    +0.000 C 
ATOM     12  C   UNL     1       1.342   5.056  20.621  0.00  0.00    +0.000 C 
ATOM     13  C   UNL     1       1.134   3.558  20.365  0.00  0.00    +0.000 C 
ENDBRANCH   3   5
BRANCH   1  17
ATOM     14  C   UNL     1       8.476   9.168  18.290  0.00  0.00    +0.000 A 
ATOM     15  N   UNL     1       7.650   9.447  17.267  0.00  0.00    +0.000 NA
ATOM     16  O   UNL     1       7.043   8.232  16.984  0.00  0.00    +0.000 OA
ATOM     17  C   UNL     1       7.543   7.324  17.872  0.00  0.00    +0.000 A 
ATOM     18  N   UNL     1       8.422   7.851  18.697  0.00  0.00    +0.000 NA
BRANCH  14  22
ATOM     19  C   UNL     1      11.033  12.064  20.114  0.00  0.00    +0.000 A 
ATOM     20  C   UNL     1      11.229  11.700  18.785  0.00  0.00    +0.000 A 
ATOM     21  C   UNL     1      10.393  10.752  18.190  0.00  0.00    +0.000 A 
ATOM     22  C   UNL     1       9.349  10.156  18.916  0.00  0.00    +0.000 A 
ATOM     23  C   UNL     1       9.166  10.529  20.256  0.00  0.00    +0.000 A 
ATOM     24  C   UNL     1      10.004  11.478  20.851  0.00  0.00    +0.000 A 
ENDBRANCH  14  22
ENDBRANCH   1  17
TORSDOF 3
ENDMDL
MODEL 5
REMARK VINA RESULT:      -8.2      1.642      2.098
REMARK  Name = 
REMARK  3 active torsions:
REMARK  status: ('A' for Active; 'I' for Inactive)
REMARK    1  A    between atoms: C_4  and  C_5
REMARK    2  A    between atoms: C_8  and  C_9
REMARK    3  A    between atoms: N_11  and  C_12
REMARK                            x       y       z     vdW  Elec       q    Type
REMARK                         _______ _______ _______ _____ _____    ______ ____
ROOT
ATOM      1  C   UNL     1       6.454   6.437  17.115  0.00  0.00    +0.000 C 
ATOM      2  C   UNL     1       4.955   6.667  17.384  0.00  0.00    +0.000 C 
ATOM      3  N   UNL     1       4.896   5.375  17.973  0.00  0.00    +0.000 N 
ATOM      4  C   UNL     1       6.302   5.185  17.994  0.00  0.00    +0.000 C 
ENDROOT
BRANCH   3   5
ATOM      5  C   UNL     1       3.853   4.441  17.995  0.00  0.00    +0.000 A 
ATOM      6  N   UNL     1       3.778   3.519  17.013  0.00  0.00    +0.000 NA
ATOM      7  C   UNL     1       2.748   2.646  17.063  0.00  0.00    +0.000 A 
ATOM      8  N   UNL     1       1.768   2.610  17.974  0.00  0.00    +0.000 NA
ATOM      9  C   UNL     1       1.873   3.555  18.916  0.00  0.00    +0.000 A 
ATOM     10  C   UNL     1       2.892   4.477  18.980  0.00  0.00    +0.000 A 
ATOM     11  C   UNL     1       2.732   5.398  20.133  0.00  0.00    +0.000 C 
ATOM     12  C   UNL     1       1.388   4.990  20.745  0.00  0.00    +0.000 C 
ATOM     13  C   UNL     1       0.871   3.745  20.013  0.00  0.00    +0.000 C 
ENDBRANCH   3   5
BRANCH   1  17
ATOM     14  C   UNL     1       8.435   9.263  18.077  0.00  0.00    +0.000 A 
ATOM     15  N   UNL     1       8.930   8.402  18.981  0.00  0.00    +0.000 NA
ATOM     16  O   UNL     1       8.225   7.229  18.750  0.00  0.00    +0.000 OA
ATOM     17  C   UNL     1       7.373   7.479  17.712  0.00  0.00    +0.000 A 
ATOM     18  N   UNL     1       7.469   8.711  17.262  0.00  0.00    +0.000 NA
BRANCH  14  22
ATOM     19  C   UNL     1       9.722  13.322  17.731  0.00  0.00    +0.000 A 
ATOM     20  C   UNL     1      10.641  12.324  18.043  0.00  0.00    +0.000 A 
ATOM     21  C   UNL     1      10.218  10.997  18.158  0.00  0.00    +0.000 A 
ATOM     22  C   UNL     1       8.872  10.652  17.959  0.00  0.00    +0.000 A 
ATOM     23  C   UNL     1       7.957  11.668  17.649  0.00  0.00    +0.000 A 
ATOM     24  C   UNL     1       8.381  12.996  17.536  0.00  0.00    +0.000 A 
ENDBRANCH  14  22
ENDBRANCH   1  17
TORSDOF 3
ENDMDL
MODEL 6
REMARK VINA RESULT:      -7.9      5.569      8.411
REMARK  Name = 
REMARK  3 active torsions:
REMARK  status: ('A' for Active; 'I' for Inactive)
REMARK    1  A    between atoms: C_4  and  C_5
REMARK    2  A    between atoms: C_8  and  C_9
REMARK    3  A    between atoms: N_11  and  C_12
REMARK                            x       y       z     vdW  Elec       q    Type
REMARK                         _______ _______ _______ _____ _____    ______ ____
ROOT
ATOM      1  C   UNL     1       2.178   8.954  18.780  0.00  0.00    +0.000 C 
ATOM      2  C   UNL     1       2.317   8.164  17.465  0.00  0.00    +0.000 C 
ATOM      3  N   UNL     1       2.553   6.991  18.232  0.00  0.00    +0.000 N 
ATOM      4  C   UNL     1       2.193   7.581  19.472  0.00  0.00    +0.000 C 
ENDROOT
BRANCH   3   5
ATOM      5  C   UNL     1       3.358   5.880  17.955  0.00  0.00    +0.000 A 
ATOM      6  N   UNL     1       4.618   6.076  17.513  0.00  0.00    +0.000 NA
ATOM      7  C   UNL     1       5.356   4.977  17.243  0.00  0.00    +0.000 A 
ATOM      8  N   UNL     1       4.964   3.701  17.341  0.00  0.00    +0.000 NA
ATOM      9  C   UNL     1       3.701   3.556  17.763  0.00  0.00    +0.000 A 
ATOM     10  C   UNL     1       2.869   4.600  18.092  0.00  0.00    +0.000 A 
ATOM     11  C   UNL     1       1.529   4.125  18.519  0.00  0.00    +0.000 C 
ATOM     12  C   UNL     1       1.595   2.608  18.313  0.00  0.00    +0.000 C 
ATOM     13  C   UNL     1       3.024   2.228  17.904  0.00  0.00    +0.000 C 
ENDBRANCH   3   5
BRANCH   1  17
ATOM     14  C   UNL     1      -1.026  10.545  18.581  0.00  0.00    +0.000 A 
ATOM     15  N   UNL     1      -0.713  10.963  19.819  0.00  0.00    +0.000 NA
ATOM     16  O   UNL     1       0.528  10.393  20.063  0.00  0.00    +0.000 OA
ATOM     17  C   UNL     1       0.867   9.690  18.942  0.00  0.00    +0.000 A 
ATOM     18  N   UNL     1      -0.052   9.758  18.003  0.00  0.00    +0.000 NA
BRANCH  14  22
ATOM     19  C   UNL     1      -4.679  11.554  16.608  0.00  0.00    +0.000 A 
ATOM     20  C   UNL     1      -4.511  11.849  17.958  0.00  0.00    +0.000 A 
ATOM     21  C   UNL     1      -3.317  11.517  18.603  0.00  0.00    +0.000 A 
ATOM     22  C   UNL     1      -2.274  10.887  17.905  0.00  0.00    +0.000 A 
ATOM     23  C   UNL     1      -2.458  10.592  16.546  0.00  0.00    +0.000 A 
ATOM     24  C   UNL     1      -3.654  10.924  15.902  0.00  0.00    +0.000 A 
ENDBRANCH  14  22
ENDBRANCH   1  17
TORSDOF 3
ENDMDL
MODEL 7
REMARK VINA RESULT:      -7.8      1.668      2.047
REMARK  Name = 
REMARK  3 active torsions:
REMARK  status: ('A' for Active; 'I' for Inactive)
REMARK    1  A    between atoms: C_4  and  C_5
REMARK    2  A    between atoms: C_8  and  C_9
REMARK    3  A    between atoms: N_11  and  C_12
REMARK                            x       y       z     vdW  Elec       q    Type
REMARK                         _______ _______ _______ _____ _____    ______ ____
ROOT
ATOM      1  C   UNL     1       6.852   6.648  17.182  0.00  0.00    +0.000 C 
ATOM      2  C   UNL     1       5.329   6.877  17.225  0.00  0.00    +0.000 C 
ATOM      3  N   UNL     1       5.194   5.636  17.903  0.00  0.00    +0.000 N 
ATOM      4  C   UNL     1       6.585   5.468  18.131  0.00  0.00    +0.000 C 
ENDROOT
BRANCH   3   5
ATOM      5  C   UNL     1       4.162   4.691  17.859  0.00  0.00    +0.000 A 
ATOM      6  N   UNL     1       4.116   3.818  16.831  0.00  0.00    +0.000 NA
ATOM      7  C   UNL     1       3.095   2.933  16.818  0.00  0.00    +0.000 A 
ATOM      8  N   UNL     1       2.098   2.842  17.706  0.00  0.00    +0.000 NA
ATOM      9  C   UNL     1       2.174   3.741  18.696  0.00  0.00    +0.000 A 
ATOM     10  C   UNL     1       3.181   4.669  18.825  0.00  0.00    +0.000 A 
ATOM     11  C   UNL     1       2.989   5.530  20.018  0.00  0.00    +0.000 C 
ATOM     12  C   UNL     1       1.638   5.079  20.583  0.00  0.00    +0.000 C 
ATOM     13  C   UNL     1       1.149   3.866  19.780  0.00  0.00    +0.000 C 
ENDBRANCH   3   5
BRANCH   1  17
ATOM     14  C   UNL     1       8.638   9.586  18.191  0.00  0.00    +0.000 A 
ATOM     15  N   UNL     1       9.080   8.781  19.172  0.00  0.00    +0.000 NA
ATOM     16  O   UNL     1       8.440   7.574  18.930  0.00  0.00    +0.000 OA
ATOM     17  C   UNL     1       7.676   7.748  17.812  0.00  0.00    +0.000 A 
ATOM     18  N   UNL     1       7.768   8.964  17.319  0.00  0.00    +0.000 NA
BRANCH  14  22
ATOM     19  C   UNL     1       9.790  13.680  17.792  0.00  0.00    +0.000 A 
ATOM     20  C   UNL     1       8.457  13.350  18.019  0.00  0.00    +0.000 A 
ATOM     21  C   UNL     1       8.081  12.010  18.148  0.00  0.00    +0.000 A 
ATOM     22  C   UNL     1       9.034  10.984  18.053  0.00  0.00    +0.000 A 
ATOM     23  C   UNL     1      10.373  11.331  17.819  0.00  0.00    +0.000 A 
ATOM     24  C   UNL     1      10.748  12.672  17.690  0.00  0.00    +0.000 A 
ENDBRANCH  14  22
ENDBRANCH   1  17
TORSDOF 3
ENDMDL
MODEL 8
REMARK VINA RESULT:      -7.7      5.585      8.439
REMARK  Name = 
REMARK  3 active torsions:
REMARK  status: ('A' for Active; 'I' for Inactive)
REMARK    1  A    between atoms: C_4  and  C_5
REMARK    2  A    between atoms: C_8  and  C_9
REMARK    3  A    between atoms: N_11  and  C_12
REMARK                            x       y       z     vdW  Elec       q    Type
REMARK                         _______ _______ _______ _____ _____    ______ ____
ROOT
ATOM      1  C   UNL     1       2.087   8.939  18.983  0.00  0.00    +0.000 C 
ATOM      2  C   UNL     1       2.103   7.701  18.066  0.00  0.00    +0.000 C 
ATOM      3  N   UNL     1       2.383   6.901  19.205  0.00  0.00    +0.000 N 
ATOM      4  C   UNL     1       2.138   7.935  20.146  0.00  0.00    +0.000 C 
ENDROOT
BRANCH   3   5
ATOM      5  C   UNL     1       3.143   5.730  19.320  0.00  0.00    +0.000 A 
ATOM      6  N   UNL     1       4.395   5.709  18.816  0.00  0.00    +0.000 NA
ATOM      7  C   UNL     1       5.089   4.556  18.934  0.00  0.00    +0.000 A 
ATOM      8  N   UNL     1       4.659   3.411  19.479  0.00  0.00    +0.000 NA
ATOM      9  C   UNL     1       3.406   3.473  19.946  0.00  0.00    +0.000 A 
ATOM     10  C   UNL     1       2.618   4.600  19.905  0.00  0.00    +0.000 A 
ATOM     11  C   UNL     1       1.278   4.358  20.495  0.00  0.00    +0.000 C 
ATOM     12  C   UNL     1       1.288   2.864  20.830  0.00  0.00    +0.000 C 
ATOM     13  C   UNL     1       2.691   2.307  20.555  0.00  0.00    +0.000 C 
ENDBRANCH   3   5
BRANCH   1  17
ATOM     14  C   UNL     1      -1.039  10.570  18.349  0.00  0.00    +0.000 A 
ATOM     15  N   UNL     1      -0.732  11.237  19.474  0.00  0.00    +0.000 NA
ATOM     16  O   UNL     1       0.478  10.687  19.872  0.00  0.00    +0.000 OA
ATOM     17  C   UNL     1       0.807   9.743  18.942  0.00  0.00    +0.000 A 
ATOM     18  N   UNL     1      -0.090   9.638  17.985  0.00  0.00    +0.000 NA
BRANCH  14  22
ATOM     19  C   UNL     1      -4.605  11.259  16.099  0.00  0.00    +0.000 A 
ATOM     20  C   UNL     1      -4.523  11.683  17.423  0.00  0.00    +0.000 A 
ATOM     21  C   UNL     1      -3.357  11.456  18.158  0.00  0.00    +0.000 A 
ATOM     22  C   UNL     1      -2.257  10.803  17.578  0.00  0.00    +0.000 A 
ATOM     23  C   UNL     1      -2.356  10.377  16.246  0.00  0.00    +0.000 A 
ATOM     24  C   UNL     1      -3.524  10.604  15.511  0.00  0.00    +0.000 A 
ENDBRANCH  14  22
ENDBRANCH   1  17
TORSDOF 3
ENDMDL
MODEL 9
REMARK VINA RESULT:      -7.7      4.537      7.161
REMARK  Name = 
REMARK  3 active torsions:
REMARK  status: ('A' for Active; 'I' for Inactive)
REMARK    1  A    between atoms: C_4  and  C_5
REMARK    2  A    between atoms: C_8  and  C_9
REMARK    3  A    between atoms: N_11  and  C_12
REMARK                            x       y       z     vdW  Elec       q    Type
REMARK                         _______ _______ _______ _____ _____    ______ ____
ROOT
ATOM      1  C   UNL     1       5.828   6.011  16.930  0.00  0.00    +0.000 C 
ATOM      2  C   UNL     1       5.336   4.917  17.896  0.00  0.00    +0.000 C 
ATOM      3  N   UNL     1       4.060   5.542  17.904  0.00  0.00    +0.000 N 
ATOM      4  C   UNL     1       4.351   6.428  16.834  0.00  0.00    +0.000 C 
ENDROOT
BRANCH   3   5
ATOM      5  C   UNL     1       3.108   5.635  18.925  0.00  0.00    +0.000 A 
ATOM      6  N   UNL     1       2.856   6.839  19.481  0.00  0.00    +0.000 NA
ATOM      7  C   UNL     1       1.941   6.882  20.474  0.00  0.00    +0.000 A 
ATOM      8  N   UNL     1       1.267   5.848  20.992  0.00  0.00    +0.000 NA
ATOM      9  C   UNL     1       1.565   4.672  20.425  0.00  0.00    +0.000 A 
ATOM     10  C   UNL     1       2.457   4.513  19.390  0.00  0.00    +0.000 A 
ATOM     11  C   UNL     1       2.580   3.093  18.979  0.00  0.00    +0.000 C 
ATOM     12  C   UNL     1       1.699   2.343  19.984  0.00  0.00    +0.000 C 
ATOM     13  C   UNL     1       0.976   3.368  20.867  0.00  0.00    +0.000 C 
ENDBRANCH   3   5
BRANCH   1  17
ATOM     14  C   UNL     1       6.680   4.422  13.834  0.00  0.00    +0.000 A 
ATOM     15  N   UNL     1       7.786   5.177  13.940  0.00  0.00    +0.000 NA
ATOM     16  O   UNL     1       7.593   5.894  15.112  0.00  0.00    +0.000 OA
ATOM     17  C   UNL     1       6.390   5.498  15.624  0.00  0.00    +0.000 A 
ATOM     18  N   UNL     1       5.795   4.593  14.879  0.00  0.00    +0.000 NA
BRANCH  14  22
ATOM     19  C   UNL     1       5.957   1.734  10.593  0.00  0.00    +0.000 A 
ATOM     20  C   UNL     1       7.262   2.009  10.993  0.00  0.00    +0.000 A 
ATOM     21  C   UNL     1       7.497   2.890  12.052  0.00  0.00    +0.000 A 
ATOM     22  C   UNL     1       6.430   3.505  12.726  0.00  0.00    +0.000 A 
ATOM     23  C   UNL     1       5.121   3.222  12.310  0.00  0.00    +0.000 A 
ATOM     24  C   UNL     1       4.887   2.341  11.249  0.00  0.00    +0.000 A 
ENDBRANCH  14  22
ENDBRANCH   1  17
TORSDOF 3
ENDMDL
