MODEL 1
REMARK VINA RESULT:      -8.7      0.000      0.000
REMARK  Name = 
REMARK  6 active torsions:
REMARK  status: ('A' for Active; 'I' for Inactive)
REMARK    1  A    between atoms: C_1  and  N_2
REMARK    2  A    between atoms: C_6  and  C_7
REMARK    3  A    between atoms: C_7  and  C_8
REMARK    4  A    between atoms: C_12  and  N_13
REMARK    5  A    between atoms: C_18  and  C_19
REMARK    6  A    between atoms: C_22  and  C_23
REMARK                            x       y       z     vdW  Elec       q    Type
REMARK                         _______ _______ _______ _____ _____    ______ ____
ROOT
ATOM      1  N   UNL     1       3.796   4.674  19.270  0.00  0.00    +0.000 N 
ATOM      2  C   UNL     1       5.161   5.228  19.464  0.00  0.00    +0.000 C 
ATOM      3  C   UNL     1       5.755   5.089  18.094  0.00  0.00    +0.000 A 
ATOM      4  C   UNL     1       5.121   4.006  17.478  0.00  0.00    +0.000 A 
ATOM      5  C   UNL     1       5.325   3.667  16.152  0.00  0.00    +0.000 A 
ATOM      6  C   UNL     1       6.191   4.471  15.400  0.00  0.00    +0.000 A 
ATOM      7  C   UNL     1       6.810   5.589  16.011  0.00  0.00    +0.000 A 
ATOM      8  C   UNL     1       6.599   5.922  17.367  0.00  0.00    +0.000 A 
ATOM      9  C   UNL     1       3.947   3.634  18.308  0.00  0.00    +0.000 C 
ATOM     10  O   UNL     1       3.176   2.731  18.030  0.00  0.00    +0.000 OA
ENDROOT
BRANCH   1  15
ATOM     11  C   UNL     1       1.807   7.659  19.942  0.00  0.00    +0.000 A 
ATOM     12  C   UNL     1       2.363   8.472  18.943  0.00  0.00    +0.000 A 
ATOM     13  C   UNL     1       2.995   7.906  17.839  0.00  0.00    +0.000 A 
ATOM     14  C   UNL     1       3.180   6.531  17.776  0.00  0.00    +0.000 A 
ATOM     15  C   UNL     1       2.880   5.748  18.899  0.00  0.00    +0.000 A 
ATOM     16  C   UNL     1       2.046   6.280  19.897  0.00  0.00    +0.000 A 
BRANCH  11  17
ATOM     17  C   UNL     1       0.942   8.297  21.000  0.00  0.00    +0.000 C 
BRANCH  17  23
ATOM     18  C   UNL     1      -0.932  10.004  19.130  0.00  0.00    +0.000 C 
ATOM     19  N   UNL     1      -0.022  10.500  20.124  0.00  0.00    +0.000 N 
ATOM     20  C   UNL     1       0.142  11.811  20.458  0.00  0.00    +0.000 A 
ATOM     21  N   UNL     1       1.045  11.913  21.404  0.00  0.00    +0.000 NA
ATOM     22  N   UNL     1       1.481  10.646  21.702  0.00  0.00    +0.000 NA
ATOM     23  C   UNL     1       0.828   9.793  20.933  0.00  0.00    +0.000 A 
ENDBRANCH  17  23
ENDBRANCH  11  17
ENDBRANCH   1  15
BRANCH   8  24
ATOM     24  C   UNL     1       7.181   7.203  17.903  0.00  0.00    +0.000 C 
ATOM     25  F   UNL     1       8.220   6.985  18.761  0.00  0.00    +0.000 F 
ATOM     26  F   UNL     1       7.675   8.040  16.948  0.00  0.00    +0.000 F 
ENDBRANCH   8  24
BRANCH   6  27
ATOM     27  C   UNL     1       6.388   4.193  13.932  0.00  0.00    +0.000 C 
ATOM     28  F   UNL     1       5.228   3.891  13.283  0.00  0.00    +0.000 F 
ENDBRANCH   6  27
TORSDOF 5
ENDMDL
MODEL 2
REMARK VINA RESULT:      -8.6      0.757      1.104
REMARK  Name = 
REMARK  6 active torsions:
REMARK  status: ('A' for Active; 'I' for Inactive)
REMARK    1  A    between atoms: C_1  and  N_2
REMARK    2  A    between atoms: C_6  and  C_7
REMARK    3  A    between atoms: C_7  and  C_8
REMARK    4  A    between atoms: C_12  and  N_13
REMARK    5  A    between atoms: C_18  and  C_19
REMARK    6  A    between atoms: C_22  and  C_23
REMARK                            x       y       z     vdW  Elec       q    Type
REMARK                         _______ _______ _______ _____ _____    ______ ____
ROOT
ATOM      1  N   UNL     1       3.830   4.430  19.179  0.00  0.00    +0.000 N 
ATOM      2  C   UNL     1       5.199   4.960  19.403  0.00  0.00    +0.000 C 
ATOM      3  C   UNL     1       5.794   4.888  18.028  0.00  0.00    +0.000 A 
ATOM      4  C   UNL     1       5.152   3.843  17.356  0.00  0.00    +0.000 A 
ATOM      5  C   UNL     1       5.354   3.571  16.014  0.00  0.00    +0.000 A 
ATOM      6  C   UNL     1       6.229   4.405  15.307  0.00  0.00    +0.000 A 
ATOM      7  C   UNL     1       6.857   5.484  15.975  0.00  0.00    +0.000 A 
ATOM      8  C   UNL     1       6.647   5.749  17.346  0.00  0.00    +0.000 A 
ATOM      9  C   UNL     1       3.972   3.439  18.165  0.00  0.00    +0.000 C 
ATOM     10  O   UNL     1       3.194   2.560  17.839  0.00  0.00    +0.000 OA
ENDROOT
BRANCH   1  15
ATOM     11  C   UNL     1       2.045   7.523  19.935  0.00  0.00    +0.000 A 
ATOM     12  C   UNL     1       2.526   8.274  18.853  0.00  0.00    +0.000 A 
ATOM     13  C   UNL     1       3.014   7.642  17.713  0.00  0.00    +0.000 A 
ATOM     14  C   UNL     1       3.135   6.259  17.685  0.00  0.00    +0.000 A 
ATOM     15  C   UNL     1       2.924   5.530  18.863  0.00  0.00    +0.000 A 
ATOM     16  C   UNL     1       2.222   6.133  19.921  0.00  0.00    +0.000 A 
BRANCH  11  17
ATOM     17  C   UNL     1       1.324   8.234  21.052  0.00  0.00    +0.000 C 
BRANCH  17  23
ATOM     18  C   UNL     1      -0.459  10.068  22.891  0.00  0.00    +0.000 C 
ATOM     19  N   UNL     1      -0.295  10.173  21.469  0.00  0.00    +0.000 N 
ATOM     20  C   UNL     1      -0.854  11.133  20.680  0.00  0.00    +0.000 A 
ATOM     21  N   UNL     1      -0.495  10.940  19.433  0.00  0.00    +0.000 NA
ATOM     22  N   UNL     1       0.319   9.836  19.401  0.00  0.00    +0.000 NA
ATOM     23  C   UNL     1       0.446   9.379  20.634  0.00  0.00    +0.000 A 
ENDBRANCH  17  23
ENDBRANCH  11  17
ENDBRANCH   1  15
BRANCH   8  24
ATOM     24  C   UNL     1       7.240   6.995  17.948  0.00  0.00    +0.000 C 
ATOM     25  F   UNL     1       8.153   6.719  18.924  0.00  0.00    +0.000 F 
ATOM     26  F   UNL     1       7.895   7.794  17.060  0.00  0.00    +0.000 F 
ENDBRANCH   8  24
BRANCH   6  27
ATOM     27  C   UNL     1       6.426   4.203  13.826  0.00  0.00    +0.000 C 
ATOM     28  F   UNL     1       5.275   3.874  13.172  0.00  0.00    +0.000 F 
ENDBRANCH   6  27
TORSDOF 5
ENDMDL
MODEL 3
REMARK VINA RESULT:      -8.2      0.843      1.315
REMARK  Name = 
REMARK  6 active torsions:
REMARK  status: ('A' for Active; 'I' for Inactive)
REMARK    1  A    between atoms: C_1  and  N_2
REMARK    2  A    between atoms: C_6  and  C_7
REMARK    3  A    between atoms: C_7  and  C_8
REMARK    4  A    between atoms: C_12  and  N_13
REMARK    5  A    between atoms: C_18  and  C_19
REMARK    6  A    between atoms: C_22  and  C_23
REMARK                            x       y       z     vdW  Elec       q    Type
REMARK                         _______ _______ _______ _____ _____    ______ ____
ROOT
ATOM      1  N   UNL     1       3.621   4.895  19.231  0.00  0.00    +0.000 N 
ATOM      2  C   UNL     1       5.001   5.392  19.465  0.00  0.00    +0.000 C 
ATOM      3  C   UNL     1       5.648   5.165  18.132  0.00  0.00    +0.000 A 
ATOM      4  C   UNL     1       4.990   4.086  17.533  0.00  0.00    +0.000 A 
ATOM      5  C   UNL     1       5.237   3.678  16.233  0.00  0.00    +0.000 A 
ATOM      6  C   UNL     1       6.175   4.406  15.491  0.00  0.00    +0.000 A 
ATOM      7  C   UNL     1       6.820   5.520  16.081  0.00  0.00    +0.000 A 
ATOM      8  C   UNL     1       6.565   5.923  17.410  0.00  0.00    +0.000 A 
ATOM      9  C   UNL     1       3.763   3.807  18.322  0.00  0.00    +0.000 C 
ATOM     10  O   UNL     1       2.961   2.931  18.046  0.00  0.00    +0.000 OA
ENDROOT
BRANCH   1  15
ATOM     11  C   UNL     1       1.924   8.104  19.617  0.00  0.00    +0.000 A 
ATOM     12  C   UNL     1       2.488   8.739  18.500  0.00  0.00    +0.000 A 
ATOM     13  C   UNL     1       3.008   7.991  17.447  0.00  0.00    +0.000 A 
ATOM     14  C   UNL     1       3.076   6.607  17.547  0.00  0.00    +0.000 A 
ATOM     15  C   UNL     1       2.777   5.994  18.771  0.00  0.00    +0.000 A 
ATOM     16  C   UNL     1       2.047   6.713  19.733  0.00  0.00    +0.000 A 
BRANCH  11  17
ATOM     17  C   UNL     1       1.177   8.938  20.626  0.00  0.00    +0.000 C 
BRANCH  17  23
ATOM     18  C   UNL     1       1.504  12.071  20.667  0.00  0.00    +0.000 C 
ATOM     19  N   UNL     1       0.433  11.323  20.069  0.00  0.00    +0.000 N 
ATOM     20  C   UNL     1      -0.604  11.857  19.366  0.00  0.00    +0.000 A 
ATOM     21  N   UNL     1      -1.397  10.896  18.955  0.00  0.00    +0.000 NA
ATOM     22  N   UNL     1      -0.869   9.707  19.391  0.00  0.00    +0.000 NA
ATOM     23  C   UNL     1       0.242   9.967  20.056  0.00  0.00    +0.000 A 
ENDBRANCH  17  23
ENDBRANCH  11  17
ENDBRANCH   1  15
BRANCH   8  24
ATOM     24  C   UNL     1       7.184   7.197  17.918  0.00  0.00    +0.000 C 
ATOM     25  F   UNL     1       8.241   6.968  18.752  0.00  0.00    +0.000 F 
ATOM     26  F   UNL     1       7.669   8.016  16.943  0.00  0.00    +0.000 F 
ENDBRANCH   8  24
BRANCH   6  27
ATOM     27  C   UNL     1       6.424   4.054  14.046  0.00  0.00    +0.000 C 
ATOM     28  F   UNL     1       7.249   4.937  13.414  0.00  0.00    +0.000 F 
ENDBRANCH   6  27
TORSDOF 5
ENDMDL
MODEL 4
REMARK VINA RESULT:      -8.0      5.794      9.001
REMARK  Name = 
REMARK  6 active torsions:
REMARK  status: ('A' for Active; 'I' for Inactive)
REMARK    1  A    between atoms: C_1  and  N_2
REMARK    2  A    between atoms: C_6  and  C_7
REMARK    3  A    between atoms: C_7  and  C_8
REMARK    4  A    between atoms: C_12  and  N_13
REMARK    5  A    between atoms: C_18  and  C_19
REMARK    6  A    between atoms: C_22  and  C_23
REMARK                            x       y       z     vdW  Elec       q    Type
REMARK                         _______ _______ _______ _____ _____    ______ ____
ROOT
ATOM      1  N   UNL     1      -1.571  12.545  18.572  0.00  0.00    +0.000 N 
ATOM      2  C   UNL     1      -0.188  12.071  18.315  0.00  0.00    +0.000 C 
ATOM      3  C   UNL     1       0.108  11.274  19.550  0.00  0.00    +0.000 A 
ATOM      4  C   UNL     1      -0.657  11.820  20.585  0.00  0.00    +0.000 A 
ATOM      5  C   UNL     1      -0.737  11.252  21.845  0.00  0.00    +0.000 A 
ATOM      6  C   UNL     1      -0.032  10.064  22.068  0.00  0.00    +0.000 A 
ATOM      7  C   UNL     1       0.718   9.489  21.013  0.00  0.00    +0.000 A 
ATOM      8  C   UNL     1       0.797  10.080  19.733  0.00  0.00    +0.000 A 
ATOM      9  C   UNL     1      -1.640  12.755  19.980  0.00  0.00    +0.000 C 
ATOM     10  O   UNL     1      -2.467  13.381  20.621  0.00  0.00    +0.000 OA
ENDROOT
BRANCH   1  15
ATOM     11  C   UNL     1      -4.872  11.507  17.408  0.00  0.00    +0.000 A 
ATOM     12  C   UNL     1      -4.482  11.076  16.132  0.00  0.00    +0.000 A 
ATOM     13  C   UNL     1      -3.162  10.716  15.877  0.00  0.00    +0.000 A 
ATOM     14  C   UNL     1      -2.195  10.891  16.858  0.00  0.00    +0.000 A 
ATOM     15  C   UNL     1      -2.527  11.583  18.031  0.00  0.00    +0.000 A 
ATOM     16  C   UNL     1      -3.881  11.732  18.373  0.00  0.00    +0.000 A 
BRANCH  11  17
ATOM     17  C   UNL     1      -6.341  11.673  17.703  0.00  0.00    +0.000 C 
BRANCH  17  23
ATOM     18  C   UNL     1      -7.636  13.130  20.178  0.00  0.00    +0.000 C 
ATOM     19  N   UNL     1      -7.407  11.720  20.030  0.00  0.00    +0.000 N 
ATOM     20  C   UNL     1      -7.766  10.764  20.932  0.00  0.00    +0.000 A 
ATOM     21  N   UNL     1      -7.415   9.583  20.483  0.00  0.00    +0.000 NA
ATOM     22  N   UNL     1      -6.817   9.763  19.260  0.00  0.00    +0.000 NA
ATOM     23  C   UNL     1      -6.822  11.055  18.985  0.00  0.00    +0.000 A 
ENDBRANCH  17  23
ENDBRANCH  11  17
ENDBRANCH   1  15
BRANCH   8  24
ATOM     24  C   UNL     1       1.498   9.336  18.628  0.00  0.00    +0.000 C 
ATOM     25  F   UNL     1       0.655   9.004  17.607  0.00  0.00    +0.000 F 
ATOM     26  F   UNL     1       2.516  10.026  18.042  0.00  0.00    +0.000 F 
ENDBRANCH   8  24
BRANCH   6  27
ATOM     27  C   UNL     1      -0.147   9.361  23.397  0.00  0.00    +0.000 C 
ATOM     28  F   UNL     1       1.027   9.327  24.090  0.00  0.00    +0.000 F 
ENDBRANCH   6  27
TORSDOF 5
ENDMDL
MODEL 5
REMARK VINA RESULT:      -7.7      1.193      1.957
REMARK  Name = 
REMARK  6 active torsions:
REMARK  status: ('A' for Active; 'I' for Inactive)
REMARK    1  A    between atoms: C_1  and  N_2
REMARK    2  A    between atoms: C_6  and  C_7
REMARK    3  A    between atoms: C_7  and  C_8
REMARK    4  A    between atoms: C_12  and  N_13
REMARK    5  A    between atoms: C_18  and  C_19
REMARK    6  A    between atoms: C_22  and  C_23
REMARK                            x       y       z     vdW  Elec       q    Type
REMARK                         _______ _______ _______ _____ _____    ______ ____
ROOT
ATOM      1  N   UNL     1       4.280   3.569  19.251  0.00  0.00    +0.000 N 
ATOM      2  C   UNL     1       5.520   4.378  19.382  0.00  0.00    +0.000 C 
ATOM      3  C   UNL     1       5.927   4.565  17.951  0.00  0.00    +0.000 A 
ATOM      4  C   UNL     1       5.442   3.464  17.238  0.00  0.00    +0.000 A 
ATOM      5  C   UNL     1       5.517   3.365  15.859  0.00  0.00    +0.000 A 
ATOM      6  C   UNL     1       6.089   4.436  15.161  0.00  0.00    +0.000 A 
ATOM      7  C   UNL     1       6.551   5.567  15.876  0.00  0.00    +0.000 A 
ATOM      8  C   UNL     1       6.474   5.655  17.283  0.00  0.00    +0.000 A 
ATOM      9  C   UNL     1       4.497   2.731  18.119  0.00  0.00    +0.000 C 
ATOM     10  O   UNL     1       3.890   1.729  17.782  0.00  0.00    +0.000 OA
ENDROOT
BRANCH   1  15
ATOM     11  C   UNL     1       2.608   6.696  18.385  0.00  0.00    +0.000 A 
ATOM     12  C   UNL     1       1.608   6.143  17.572  0.00  0.00    +0.000 A 
ATOM     13  C   UNL     1       1.244   4.806  17.705  0.00  0.00    +0.000 A 
ATOM     14  C   UNL     1       1.950   3.979  18.569  0.00  0.00    +0.000 A 
ATOM     15  C   UNL     1       3.124   4.457  19.167  0.00  0.00    +0.000 A 
ATOM     16  C   UNL     1       3.350   5.843  19.212  0.00  0.00    +0.000 A 
BRANCH  11  17
ATOM     17  C   UNL     1       2.818   8.189  18.366  0.00  0.00    +0.000 C 
BRANCH  17  23
ATOM     18  C   UNL     1       1.359   8.435  21.148  0.00  0.00    +0.000 C 
ATOM     19  N   UNL     1       1.022   9.123  19.934  0.00  0.00    +0.000 N 
ATOM     20  C   UNL     1       0.030  10.048  19.801  0.00  0.00    +0.000 A 
ATOM     21  N   UNL     1      -0.003  10.482  18.563  0.00  0.00    +0.000 NA
ATOM     22  N   UNL     1       0.988   9.834  17.869  0.00  0.00    +0.000 NA
ATOM     23  C   UNL     1       1.612   9.020  18.701  0.00  0.00    +0.000 A 
ENDBRANCH  17  23
ENDBRANCH  11  17
ENDBRANCH   1  15
BRANCH   8  24
ATOM     24  C   UNL     1       6.858   6.946  17.956  0.00  0.00    +0.000 C 
ATOM     25  F   UNL     1       8.044   6.852  18.627  0.00  0.00    +0.000 F 
ATOM     26  F   UNL     1       7.010   8.000  17.108  0.00  0.00    +0.000 F 
ENDBRANCH   8  24
BRANCH   6  27
ATOM     27  C   UNL     1       6.125   4.416  13.654  0.00  0.00    +0.000 C 
ATOM     28  F   UNL     1       5.800   3.201  13.126  0.00  0.00    +0.000 F 
ENDBRANCH   6  27
TORSDOF 5
ENDMDL
MODEL 6
REMARK VINA RESULT:      -7.6      6.991      9.664
REMARK  Name = 
REMARK  6 active torsions:
REMARK  status: ('A' for Active; 'I' for Inactive)
REMARK    1  A    between atoms: C_1  and  N_2
REMARK    2  A    between atoms: C_6  and  C_7
REMARK    3  A    between atoms: C_7  and  C_8
REMARK    4  A    between atoms: C_12  and  N_13
REMARK    5  A    between atoms: C_18  and  C_19
REMARK    6  A    between atoms: C_22  and  C_23
REMARK                            x       y       z     vdW  Elec       q    Type
REMARK                         _______ _______ _______ _____ _____    ______ ____
ROOT
ATOM      1  N   UNL     1      -0.211  11.536  18.573  0.00  0.00    +0.000 N 
ATOM      2  C   UNL     1       0.484  10.812  19.668  0.00  0.00    +0.000 C 
ATOM      3  C   UNL     1      -0.074  11.478  20.891  0.00  0.00    +0.000 A 
ATOM      4  C   UNL     1      -0.420  12.783  20.527  0.00  0.00    +0.000 A 
ATOM      5  C   UNL     1      -1.089  13.650  21.373  0.00  0.00    +0.000 A 
ATOM      6  C   UNL     1      -1.449  13.174  22.640  0.00  0.00    +0.000 A 
ATOM      7  C   UNL     1      -1.130  11.843  23.001  0.00  0.00    +0.000 A 
ATOM      8  C   UNL     1      -0.442  10.968  22.132  0.00  0.00    +0.000 A 
ATOM      9  C   UNL     1      -0.363  12.872  19.045  0.00  0.00    +0.000 C 
ATOM     10  O   UNL     1      -0.628  13.881  18.414  0.00  0.00    +0.000 OA
ENDROOT
BRANCH   1  15
ATOM     11  C   UNL     1      -3.719  11.394  17.574  0.00  0.00    +0.000 A 
ATOM     12  C   UNL     1      -3.548  10.583  16.443  0.00  0.00    +0.000 A 
ATOM     13  C   UNL     1      -2.428   9.765  16.319  0.00  0.00    +0.000 A 
ATOM     14  C   UNL     1      -1.413   9.833  17.264  0.00  0.00    +0.000 A 
ATOM     15  C   UNL     1      -1.450  10.841  18.236  0.00  0.00    +0.000 A 
ATOM     16  C   UNL     1      -2.666  11.497  18.493  0.00  0.00    +0.000 A 
BRANCH  11  17
ATOM     17  C   UNL     1      -5.040  12.092  17.776  0.00  0.00    +0.000 C 
BRANCH  17  23
ATOM     18  C   UNL     1      -5.148  13.173  20.733  0.00  0.00    +0.000 C 
ATOM     19  N   UNL     1      -5.919  12.096  20.181  0.00  0.00    +0.000 N 
ATOM     20  C   UNL     1      -6.876  11.389  20.845  0.00  0.00    +0.000 A 
ATOM     21  N   UNL     1      -7.387  10.483  20.046  0.00  0.00    +0.000 NA
ATOM     22  N   UNL     1      -6.759  10.598  18.831  0.00  0.00    +0.000 NA
ATOM     23  C   UNL     1      -5.879  11.579  18.912  0.00  0.00    +0.000 A 
ENDBRANCH  17  23
ENDBRANCH  11  17
ENDBRANCH   1  15
BRANCH   8  24
ATOM     24  C   UNL     1      -0.264   9.529  22.534  0.00  0.00    +0.000 C 
ATOM     25  F   UNL     1       0.937   9.019  22.132  0.00  0.00    +0.000 F 
ATOM     26  F   UNL     1      -0.314   9.309  23.878  0.00  0.00    +0.000 F 
ENDBRANCH   8  24
BRANCH   6  27
ATOM     27  C   UNL     1      -2.247  14.050  23.571  0.00  0.00    +0.000 C 
ATOM     28  F   UNL     1      -3.081  13.344  24.388  0.00  0.00    +0.000 F 
ENDBRANCH   6  27
TORSDOF 5
ENDMDL
MODEL 7
REMARK VINA RESULT:      -7.5      7.076      9.548
REMARK  Name = 
REMARK  6 active torsions:
REMARK  status: ('A' for Active; 'I' for Inactive)
REMARK    1  A    between atoms: C_1  and  N_2
REMARK    2  A    between atoms: C_6  and  C_7
REMARK    3  A    between atoms: C_7  and  C_8
REMARK    4  A    between atoms: C_12  and  N_13
REMARK    5  A    between atoms: C_18  and  C_19
REMARK    6  A    between atoms: C_22  and  C_23
REMARK                            x       y       z     vdW  Elec       q    Type
REMARK                         _______ _______ _______ _____ _____    ______ ____
ROOT
ATOM      1  N   UNL     1      -0.317  11.527  18.445  0.00  0.00    +0.000 N 
ATOM      2  C   UNL     1       0.450  10.737  19.442  0.00  0.00    +0.000 C 
ATOM      3  C   UNL     1      -0.023  11.323  20.739  0.00  0.00    +0.000 A 
ATOM      4  C   UNL     1      -0.391  12.647  20.483  0.00  0.00    +0.000 A 
ATOM      5  C   UNL     1      -1.000  13.457  21.425  0.00  0.00    +0.000 A 
ATOM      6  C   UNL     1      -1.273  12.901  22.682  0.00  0.00    +0.000 A 
ATOM      7  C   UNL     1      -0.932  11.551  22.935  0.00  0.00    +0.000 A 
ATOM      8  C   UNL     1      -0.305  10.735  21.967  0.00  0.00    +0.000 A 
ATOM      9  C   UNL     1      -0.435  12.830  19.009  0.00  0.00    +0.000 C 
ATOM     10  O   UNL     1      -0.741  13.876  18.463  0.00  0.00    +0.000 OA
ENDROOT
BRANCH   1  15
ATOM     11  C   UNL     1      -3.823  11.429  17.434  0.00  0.00    +0.000 A 
ATOM     12  C   UNL     1      -3.674  10.534  16.365  0.00  0.00    +0.000 A 
ATOM     13  C   UNL     1      -2.582   9.673  16.307  0.00  0.00    +0.000 A 
ATOM     14  C   UNL     1      -1.569   9.774  17.252  0.00  0.00    +0.000 A 
ATOM     15  C   UNL     1      -1.577  10.851  18.149  0.00  0.00    +0.000 A 
ATOM     16  C   UNL     1      -2.771  11.562  18.350  0.00  0.00    +0.000 A 
BRANCH  11  17
ATOM     17  C   UNL     1      -5.121  12.182  17.577  0.00  0.00    +0.000 C 
BRANCH  17  23
ATOM     18  C   UNL     1      -6.848  10.082  19.168  0.00  0.00    +0.000 C 
ATOM     19  N   UNL     1      -6.379  11.352  19.646  0.00  0.00    +0.000 N 
ATOM     20  C   UNL     1      -6.566  11.838  20.905  0.00  0.00    +0.000 A 
ATOM     21  N   UNL     1      -6.005  13.020  21.007  0.00  0.00    +0.000 NA
ATOM     22  N   UNL     1      -5.434  13.315  19.795  0.00  0.00    +0.000 NA
ATOM     23  C   UNL     1      -5.653  12.301  18.976  0.00  0.00    +0.000 A 
ENDBRANCH  17  23
ENDBRANCH  11  17
ENDBRANCH   1  15
BRANCH   8  24
ATOM     24  C   UNL     1      -0.102   9.273  22.265  0.00  0.00    +0.000 C 
ATOM     25  F   UNL     1      -0.388   8.961  23.563  0.00  0.00    +0.000 F 
ATOM     26  F   UNL     1      -0.871   8.434  21.518  0.00  0.00    +0.000 F 
ENDBRANCH   8  24
BRANCH   6  27
ATOM     27  C   UNL     1      -2.005  13.713  23.718  0.00  0.00    +0.000 C 
ATOM     28  F   UNL     1      -3.352  13.501  23.714  0.00  0.00    +0.000 F 
ENDBRANCH   6  27
TORSDOF 5
ENDMDL
MODEL 8
REMARK VINA RESULT:      -7.5      1.359      1.812
REMARK  Name = 
REMARK  6 active torsions:
REMARK  status: ('A' for Active; 'I' for Inactive)
REMARK    1  A    between atoms: C_1  and  N_2
REMARK    2  A    between atoms: C_6  and  C_7
REMARK    3  A    between atoms: C_7  and  C_8
REMARK    4  A    between atoms: C_12  and  N_13
REMARK    5  A    between atoms: C_18  and  C_19
REMARK    6  A    between atoms: C_22  and  C_23
REMARK                            x       y       z     vdW  Elec       q    Type
REMARK                         _______ _______ _______ _____ _____    ______ ____
ROOT
ATOM      1  N   UNL     1       4.381   3.733  19.218  0.00  0.00    +0.000 N 
ATOM      2  C   UNL     1       5.518   4.680  19.085  0.00  0.00    +0.000 C 
ATOM      3  C   UNL     1       5.740   4.699  17.602  0.00  0.00    +0.000 A 
ATOM      4  C   UNL     1       5.320   3.461  17.107  0.00  0.00    +0.000 A 
ATOM      5  C   UNL     1       5.257   3.170  15.755  0.00  0.00    +0.000 A 
ATOM      6  C   UNL     1       5.612   4.182  14.855  0.00  0.00    +0.000 A 
ATOM      7  C   UNL     1       6.006   5.449  15.350  0.00  0.00    +0.000 A 
ATOM      8  C   UNL     1       6.073   5.732  16.732  0.00  0.00    +0.000 A 
ATOM      9  C   UNL     1       4.575   2.767  18.189  0.00  0.00    +0.000 C 
ATOM     10  O   UNL     1       4.064   1.667  18.066  0.00  0.00    +0.000 OA
ENDROOT
BRANCH   1  15
ATOM     11  C   UNL     1       2.355   6.720  18.670  0.00  0.00    +0.000 A 
ATOM     12  C   UNL     1       1.498   6.177  17.702  0.00  0.00    +0.000 A 
ATOM     13  C   UNL     1       1.314   4.800  17.609  0.00  0.00    +0.000 A 
ATOM     14  C   UNL     1       2.068   3.946  18.402  0.00  0.00    +0.000 A 
ATOM     15  C   UNL     1       3.122   4.470  19.163  0.00  0.00    +0.000 A 
ATOM     16  C   UNL     1       3.151   5.850  19.427  0.00  0.00    +0.000 A 
BRANCH  11  17
ATOM     17  C   UNL     1       2.358   8.212  18.885  0.00  0.00    +0.000 C 
BRANCH  17  23
ATOM     18  C   UNL     1       0.162  10.449  18.573  0.00  0.00    +0.000 C 
ATOM     19  N   UNL     1       0.446   9.678  19.751  0.00  0.00    +0.000 N 
ATOM     20  C   UNL     1      -0.236   9.756  20.927  0.00  0.00    +0.000 A 
ATOM     21  N   UNL     1       0.278   8.911  21.790  0.00  0.00    +0.000 NA
ATOM     22  N   UNL     1       1.315   8.262  21.168  0.00  0.00    +0.000 NA
ATOM     23  C   UNL     1       1.408   8.720  19.932  0.00  0.00    +0.000 A 
ENDBRANCH  17  23
ENDBRANCH  11  17
ENDBRANCH   1  15
BRANCH   8  24
ATOM     24  C   UNL     1       6.365   7.141  17.175  0.00  0.00    +0.000 C 
ATOM     25  F   UNL     1       5.300   7.723  17.801  0.00  0.00    +0.000 F 
ATOM     26  F   UNL     1       7.400   7.252  18.053  0.00  0.00    +0.000 F 
ENDBRANCH   8  24
BRANCH   6  27
ATOM     27  C   UNL     1       5.486   3.946  13.372  0.00  0.00    +0.000 C 
ATOM     28  F   UNL     1       6.591   3.364  12.825  0.00  0.00    +0.000 F 
ENDBRANCH   6  27
TORSDOF 5
ENDMDL
MODEL 9
REMARK VINA RESULT:      -7.4      5.989      9.078
REMARK  Name = 
REMARK  6 active torsions:
REMARK  status: ('A' for Active; 'I' for Inactive)
REMARK    1  A    between atoms: C_1  and  N_2
REMARK    2  A    between atoms: C_6  and  C_7
REMARK    3  A    between atoms: C_7  and  C_8
REMARK    4  A    between atoms: C_12  and  N_13
REMARK    5  A    between atoms: C_18  and  C_19
REMARK    6  A    between atoms: C_22  and  C_23
REMARK                            x       y       z     vdW  Elec       q    Type
REMARK                         _______ _______ _______ _____ _____    ______ ____
ROOT
ATOM      1  N   UNL     1      -1.828  12.725  18.807  0.00  0.00    +0.000 N 
ATOM      2  C   UNL     1      -0.427  12.351  18.485  0.00  0.00    +0.000 C 
ATOM      3  C   UNL     1      -0.048  11.504  19.663  0.00  0.00    +0.000 A 
ATOM      4  C   UNL     1      -0.812  11.944  20.748  0.00  0.00    +0.000 A 
ATOM      5  C   UNL     1      -0.821  11.303  21.975  0.00  0.00    +0.000 A 
ATOM      6  C   UNL     1      -0.040  10.148  22.110  0.00  0.00    +0.000 A 
ATOM      7  C   UNL     1       0.710   9.679  21.004  0.00  0.00    +0.000 A 
ATOM      8  C   UNL     1       0.715  10.346  19.759  0.00  0.00    +0.000 A 
ATOM      9  C   UNL     1      -1.867  12.851  20.225  0.00  0.00    +0.000 C 
ATOM     10  O   UNL     1      -2.708  13.389  20.924  0.00  0.00    +0.000 OA
ENDROOT
BRANCH   1  15
ATOM     11  C   UNL     1      -5.062  11.604  17.536  0.00  0.00    +0.000 A 
ATOM     12  C   UNL     1      -4.619  11.181  16.275  0.00  0.00    +0.000 A 
ATOM     13  C   UNL     1      -3.283  10.852  16.066  0.00  0.00    +0.000 A 
ATOM     14  C   UNL     1      -2.353  11.052  17.078  0.00  0.00    +0.000 A 
ATOM     15  C   UNL     1      -2.742  11.739  18.236  0.00  0.00    +0.000 A 
ATOM     16  C   UNL     1      -4.110  11.856  18.533  0.00  0.00    +0.000 A 
BRANCH  11  17
ATOM     17  C   UNL     1      -6.543  11.736  17.781  0.00  0.00    +0.000 C 
BRANCH  17  23
ATOM     18  C   UNL     1      -7.281   9.705  20.074  0.00  0.00    +0.000 C 
ATOM     19  N   UNL     1      -7.231  11.136  20.173  0.00  0.00    +0.000 N 
ATOM     20  C   UNL     1      -7.449  11.856  21.309  0.00  0.00    +0.000 A 
ATOM     21  N   UNL     1      -7.319  13.135  21.051  0.00  0.00    +0.000 NA
ATOM     22  N   UNL     1      -7.006  13.261  19.720  0.00  0.00    +0.000 NA
ATOM     23  C   UNL     1      -6.944  12.051  19.194  0.00  0.00    +0.000 A 
ENDBRANCH  17  23
ENDBRANCH  11  17
ENDBRANCH   1  15
BRANCH   8  24
ATOM     24  C   UNL     1       1.425   9.709  18.593  0.00  0.00    +0.000 C 
ATOM     25  F   UNL     1       2.093   8.573  18.947  0.00  0.00    +0.000 F 
ATOM     26  F   UNL     1       0.606   9.339  17.570  0.00  0.00    +0.000 F 
ENDBRANCH   8  24
BRANCH   6  27
ATOM     27  C   UNL     1      -0.073   9.366  23.398  0.00  0.00    +0.000 C 
ATOM     28  F   UNL     1       1.138   9.308  24.023  0.00  0.00    +0.000 F 
ENDBRANCH   6  27
TORSDOF 5
ENDMDL
