MODEL 1
REMARK VINA RESULT:      -8.7      0.000      0.000
REMARK  Name = 
REMARK  4 active torsions:
REMARK  status: ('A' for Active; 'I' for Inactive)
REMARK    1  A    between atoms: C_1  and  N_2
REMARK    2  A    between atoms: C_7  and  N_8
REMARK    3  A    between atoms: C_9  and  C_11
REMARK    4  A    between atoms: C_15  and  N_16
REMARK                            x       y       z     vdW  Elec       q    Type
REMARK                         _______ _______ _______ _____ _____    ______ ____
ROOT
ATOM      1  N   UNL     1       7.587   8.553  17.525  0.00  0.00    +0.000 N 
ATOM      2  C   UNL     1       7.634   7.243  17.957  0.00  0.00    +0.000 C 
ATOM      3  O   UNL     1       8.331   6.794  18.874  0.00  0.00    +0.000 OA
ATOM      4  H   UNL     1       6.972   8.775  16.753  0.00  0.00    +0.000 HD
ENDROOT
BRANCH   1  11
ATOM      5  C   UNL     1       9.145  15.255  19.161  0.00  0.00    +0.000 C 
ATOM      6  N   UNL     1       9.812  14.126  18.521  0.00  0.00    +0.000 NA
ATOM      7  C   UNL     1      10.301  13.143  19.523  0.00  0.00    +0.000 C 
ATOM      8  C   UNL     1       9.686  11.834  19.150  0.00  0.00    +0.000 A 
ATOM      9  C   UNL     1       9.839  10.601  19.746  0.00  0.00    +0.000 A 
ATOM     10  C   UNL     1       9.153   9.507  19.203  0.00  0.00    +0.000 A 
ATOM     11  C   UNL     1       8.316   9.640  18.079  0.00  0.00    +0.000 A 
ATOM     12  C   UNL     1       8.175  10.906  17.493  0.00  0.00    +0.000 A 
ATOM     13  C   UNL     1       8.868  11.984  18.039  0.00  0.00    +0.000 A 
ATOM     14  C   UNL     1       8.897  13.410  17.594  0.00  0.00    +0.000 C 
ENDBRANCH   1  11
BRANCH   2  15
ATOM     15  C   UNL     1       6.799   6.260  17.224  0.00  0.00    +0.000 A 
ATOM     16  C   UNL     1       7.275   5.470  16.183  0.00  0.00    +0.000 A 
ATOM     17  C   UNL     1       6.417   4.529  15.601  0.00  0.00    +0.000 A 
ATOM     18  C   UNL     1       5.084   4.418  16.019  0.00  0.00    +0.000 A 
ATOM     19  C   UNL     1       4.576   5.262  17.011  0.00  0.00    +0.000 A 
ATOM     20  C   UNL     1       5.469   6.135  17.642  0.00  0.00    +0.000 A 
BRANCH  19  21
ATOM     21  N   UNL     1       3.215   5.187  17.385  0.00  0.00    +0.000 N 
ATOM     22  C   UNL     1       2.650   4.184  18.196  0.00  0.00    +0.000 A 
ATOM     23  C   UNL     1       3.388   3.535  19.194  0.00  0.00    +0.000 A 
ATOM     24  N   UNL     1       2.955   2.438  19.865  0.00  0.00    +0.000 NA
ATOM     25  C   UNL     1       1.714   2.033  19.535  0.00  0.00    +0.000 A 
ATOM     26  C   UNL     1       0.931   2.724  18.626  0.00  0.00    +0.000 A 
ATOM     27  N   UNL     1       1.376   3.813  17.943  0.00  0.00    +0.000 NA
ATOM     28  H   UNL     1       2.575   5.330  16.606  0.00  0.00    +0.000 HD
ENDBRANCH  19  21
ENDBRANCH   2  15
TORSDOF 3
ENDMDL
MODEL 2
REMARK VINA RESULT:      -8.6      1.444      1.715
REMARK  Name = 
REMARK  4 active torsions:
REMARK  status: ('A' for Active; 'I' for Inactive)
REMARK    1  A    between atoms: C_1  and  N_2
REMARK    2  A    between atoms: C_7  and  N_8
REMARK    3  A    between atoms: C_9  and  C_11
REMARK    4  A    between atoms: C_15  and  N_16
REMARK                            x       y       z     vdW  Elec       q    Type
REMARK                         _______ _______ _______ _____ _____    ______ ____
ROOT
ATOM      1  N   UNL     1       7.831   8.733  17.843  0.00  0.00    +0.000 N 
ATOM      2  C   UNL     1       7.774   7.403  18.209  0.00  0.00    +0.000 C 
ATOM      3  O   UNL     1       8.493   6.835  19.039  0.00  0.00    +0.000 OA
ATOM      4  H   UNL     1       7.181   9.059  17.140  0.00  0.00    +0.000 HD
ENDROOT
BRANCH   1  11
ATOM      5  C   UNL     1      11.419  14.813  18.270  0.00  0.00    +0.000 C 
ATOM      6  N   UNL     1      11.719  13.386  18.322  0.00  0.00    +0.000 NA
ATOM      7  C   UNL     1      11.379  12.806  19.647  0.00  0.00    +0.000 C 
ATOM      8  C   UNL     1      10.435  11.681  19.374  0.00  0.00    +0.000 A 
ATOM      9  C   UNL     1       9.843  10.809  20.261  0.00  0.00    +0.000 A 
ATOM     10  C   UNL     1       8.986   9.822  19.757  0.00  0.00    +0.000 A 
ATOM     11  C   UNL     1       8.717   9.707  18.380  0.00  0.00    +0.000 A 
ATOM     12  C   UNL     1       9.329  10.609  17.498  0.00  0.00    +0.000 A 
ATOM     13  C   UNL     1      10.184  11.581  18.012  0.00  0.00    +0.000 A 
ATOM     14  C   UNL     1      10.960  12.633  17.290  0.00  0.00    +0.000 C 
ENDBRANCH   1  11
BRANCH   2  15
ATOM     15  C   UNL     1       6.780   6.553  17.509  0.00  0.00    +0.000 A 
ATOM     16  C   UNL     1       6.283   6.835  16.240  0.00  0.00    +0.000 A 
ATOM     17  C   UNL     1       5.395   5.932  15.645  0.00  0.00    +0.000 A 
ATOM     18  C   UNL     1       4.965   4.789  16.334  0.00  0.00    +0.000 A 
ATOM     19  C   UNL     1       5.399   4.539  17.639  0.00  0.00    +0.000 A 
ATOM     20  C   UNL     1       6.354   5.404  18.184  0.00  0.00    +0.000 A 
BRANCH  19  21
ATOM     21  N   UNL     1       4.915   3.417  18.350  0.00  0.00    +0.000 N 
ATOM     22  C   UNL     1       3.807   3.424  19.221  0.00  0.00    +0.000 A 
ATOM     23  C   UNL     1       2.725   4.293  19.035  0.00  0.00    +0.000 A 
ATOM     24  N   UNL     1       1.734   4.475  19.945  0.00  0.00    +0.000 NA
ATOM     25  C   UNL     1       1.836   3.706  21.045  0.00  0.00    +0.000 A 
ATOM     26  C   UNL     1       2.843   2.768  21.198  0.00  0.00    +0.000 A 
ATOM     27  N   UNL     1       3.843   2.601  20.291  0.00  0.00    +0.000 NA
ATOM     28  H   UNL     1       5.650   2.887  18.816  0.00  0.00    +0.000 HD
ENDBRANCH  19  21
ENDBRANCH   2  15
TORSDOF 3
ENDMDL
MODEL 3
REMARK VINA RESULT:      -8.5      1.656      1.821
REMARK  Name = 
REMARK  4 active torsions:
REMARK  status: ('A' for Active; 'I' for Inactive)
REMARK    1  A    between atoms: C_1  and  N_2
REMARK    2  A    between atoms: C_7  and  N_8
REMARK    3  A    between atoms: C_9  and  C_11
REMARK    4  A    between atoms: C_15  and  N_16
REMARK                            x       y       z     vdW  Elec       q    Type
REMARK                         _______ _______ _______ _____ _____    ______ ____
ROOT
ATOM      1  N   UNL     1       8.772   8.830  18.938  0.00  0.00    +0.000 N 
ATOM      2  C   UNL     1       7.836   8.503  17.978  0.00  0.00    +0.000 C 
ATOM      3  O   UNL     1       7.330   9.268  17.149  0.00  0.00    +0.000 OA
ATOM      4  H   UNL     1       9.092   8.097  19.557  0.00  0.00    +0.000 HD
ENDROOT
BRANCH   1  11
ATOM      5  C   UNL     1      10.892  15.383  17.330  0.00  0.00    +0.000 C 
ATOM      6  N   UNL     1      11.480  14.177  17.904  0.00  0.00    +0.000 NA
ATOM      7  C   UNL     1      11.100  14.012  19.331  0.00  0.00    +0.000 C 
ATOM      8  C   UNL     1      10.462  12.665  19.434  0.00  0.00    +0.000 A 
ATOM      9  C   UNL     1       9.958  12.025  20.545  0.00  0.00    +0.000 A 
ATOM     10  C   UNL     1       9.406  10.748  20.388  0.00  0.00    +0.000 A 
ATOM     11  C   UNL     1       9.351  10.114  19.132  0.00  0.00    +0.000 A 
ATOM     12  C   UNL     1       9.868  10.787  18.016  0.00  0.00    +0.000 A 
ATOM     13  C   UNL     1      10.419  12.055  18.188  0.00  0.00    +0.000 A 
ATOM     14  C   UNL     1      11.042  12.959  17.175  0.00  0.00    +0.000 C 
ENDBRANCH   1  11
BRANCH   2  15
ATOM     15  C   UNL     1       7.351   7.100  17.959  0.00  0.00    +0.000 A 
ATOM     16  C   UNL     1       8.158   6.003  18.242  0.00  0.00    +0.000 A 
ATOM     17  C   UNL     1       7.583   4.727  18.257  0.00  0.00    +0.000 A 
ATOM     18  C   UNL     1       6.230   4.545  17.941  0.00  0.00    +0.000 A 
ATOM     19  C   UNL     1       5.430   5.634  17.579  0.00  0.00    +0.000 A 
ATOM     20  C   UNL     1       5.998   6.910  17.655  0.00  0.00    +0.000 A 
BRANCH  19  21
ATOM     21  N   UNL     1       4.083   5.437  17.202  0.00  0.00    +0.000 N 
ATOM     22  C   UNL     1       3.050   5.025  18.066  0.00  0.00    +0.000 A 
ATOM     23  C   UNL     1       3.054   5.343  19.429  0.00  0.00    +0.000 A 
ATOM     24  N   UNL     1       2.193   4.812  20.334  0.00  0.00    +0.000 NA
ATOM     25  C   UNL     1       1.277   3.974  19.812  0.00  0.00    +0.000 A 
ATOM     26  C   UNL     1       1.195   3.728  18.452  0.00  0.00    +0.000 A 
ATOM     27  N   UNL     1       2.070   4.250  17.551  0.00  0.00    +0.000 NA
ATOM     28  H   UNL     1       3.980   4.898  16.344  0.00  0.00    +0.000 HD
ENDBRANCH  19  21
ENDBRANCH   2  15
TORSDOF 3
ENDMDL
MODEL 4
REMARK VINA RESULT:      -8.5      5.615      7.495
REMARK  Name = 
REMARK  4 active torsions:
REMARK  status: ('A' for Active; 'I' for Inactive)
REMARK    1  A    between atoms: C_1  and  N_2
REMARK    2  A    between atoms: C_7  and  N_8
REMARK    3  A    between atoms: C_9  and  C_11
REMARK    4  A    between atoms: C_15  and  N_16
REMARK                            x       y       z     vdW  Elec       q    Type
REMARK                         _______ _______ _______ _____ _____    ______ ____
ROOT
ATOM      1  N   UNL     1       2.279   7.003  20.531  0.00  0.00    +0.000 N 
ATOM      2  C   UNL     1       1.786   5.715  20.467  0.00  0.00    +0.000 C 
ATOM      3  O   UNL     1       0.607   5.369  20.598  0.00  0.00    +0.000 OA
ATOM      4  H   UNL     1       3.274   7.136  20.412  0.00  0.00    +0.000 HD
ENDROOT
BRANCH   1  11
ATOM      5  C   UNL     1      -2.360  12.140  19.077  0.00  0.00    +0.000 C 
ATOM      6  N   UNL     1      -0.972  12.043  19.517  0.00  0.00    +0.000 NA
ATOM      7  C   UNL     1      -0.881  11.721  20.964  0.00  0.00    +0.000 C 
ATOM      8  C   UNL     1      -0.056  10.479  21.059  0.00  0.00    +0.000 A 
ATOM      9  C   UNL     1       0.342   9.783  22.180  0.00  0.00    +0.000 A 
ATOM     10  C   UNL     1       1.126   8.636  22.011  0.00  0.00    +0.000 A 
ATOM     11  C   UNL     1       1.507   8.180  20.734  0.00  0.00    +0.000 A 
ATOM     12  C   UNL     1       1.087   8.903  19.609  0.00  0.00    +0.000 A 
ATOM     13  C   UNL     1       0.313  10.047  19.793  0.00  0.00    +0.000 A 
ATOM     14  C   UNL     1      -0.238  10.987  18.771  0.00  0.00    +0.000 C 
ENDBRANCH   1  11
BRANCH   2  15
ATOM     15  C   UNL     1       2.772   4.625  20.261  0.00  0.00    +0.000 A 
ATOM     16  C   UNL     1       2.590   3.325  20.720  0.00  0.00    +0.000 A 
ATOM     17  C   UNL     1       3.556   2.359  20.417  0.00  0.00    +0.000 A 
ATOM     18  C   UNL     1       4.717   2.702  19.709  0.00  0.00    +0.000 A 
ATOM     19  C   UNL     1       4.945   4.022  19.312  0.00  0.00    +0.000 A 
ATOM     20  C   UNL     1       3.929   4.956  19.546  0.00  0.00    +0.000 A 
BRANCH  19  21
ATOM     21  N   UNL     1       6.145   4.373  18.654  0.00  0.00    +0.000 N 
ATOM     22  C   UNL     1       6.248   4.751  17.301  0.00  0.00    +0.000 A 
ATOM     23  C   UNL     1       5.205   5.403  16.632  0.00  0.00    +0.000 A 
ATOM     24  N   UNL     1       5.177   5.612  15.292  0.00  0.00    +0.000 NA
ATOM     25  C   UNL     1       6.272   5.184  14.635  0.00  0.00    +0.000 A 
ATOM     26  C   UNL     1       7.356   4.630  15.294  0.00  0.00    +0.000 A 
ATOM     27  N   UNL     1       7.372   4.407  16.636  0.00  0.00    +0.000 NA
ATOM     28  H   UNL     1       6.909   3.725  18.837  0.00  0.00    +0.000 HD
ENDBRANCH  19  21
ENDBRANCH   2  15
TORSDOF 3
ENDMDL
MODEL 5
REMARK VINA RESULT:      -8.4      5.716      6.920
REMARK  Name = 
REMARK  4 active torsions:
REMARK  status: ('A' for Active; 'I' for Inactive)
REMARK    1  A    between atoms: C_1  and  N_2
REMARK    2  A    between atoms: C_7  and  N_8
REMARK    3  A    between atoms: C_9  and  C_11
REMARK    4  A    between atoms: C_15  and  N_16
REMARK                            x       y       z     vdW  Elec       q    Type
REMARK                         _______ _______ _______ _____ _____    ______ ____
ROOT
ATOM      1  N   UNL     1       1.038   9.948  19.528  0.00  0.00    +0.000 N 
ATOM      2  C   UNL     1       1.711   9.127  18.645  0.00  0.00    +0.000 C 
ATOM      3  O   UNL     1       2.087   9.420  17.505  0.00  0.00    +0.000 OA
ATOM      4  H   UNL     1       0.784   9.567  20.429  0.00  0.00    +0.000 HD
ENDROOT
BRANCH   1  11
ATOM      5  C   UNL     1       1.919  16.883  18.460  0.00  0.00    +0.000 C 
ATOM      6  N   UNL     1       1.155  16.027  19.361  0.00  0.00    +0.000 NA
ATOM      7  C   UNL     1      -0.053  15.475  18.694  0.00  0.00    +0.000 C 
ATOM      8  C   UNL     1       0.050  13.989  18.820  0.00  0.00    +0.000 A 
ATOM      9  C   UNL     1      -0.827  13.018  18.389  0.00  0.00    +0.000 A 
ATOM     10  C   UNL     1      -0.509  11.676  18.631  0.00  0.00    +0.000 A 
ATOM     11  C   UNL     1       0.676  11.302  19.293  0.00  0.00    +0.000 A 
ATOM     12  C   UNL     1       1.554  12.310  19.719  0.00  0.00    +0.000 A 
ATOM     13  C   UNL     1       1.222  13.641  19.478  0.00  0.00    +0.000 A 
ATOM     14  C   UNL     1       1.970  14.881  19.842  0.00  0.00    +0.000 C 
ENDBRANCH   1  11
BRANCH   2  15
ATOM     15  C   UNL     1       1.976   7.735  19.088  0.00  0.00    +0.000 A 
ATOM     16  C   UNL     1       1.656   7.256  20.353  0.00  0.00    +0.000 A 
ATOM     17  C   UNL     1       1.893   5.908  20.646  0.00  0.00    +0.000 A 
ATOM     18  C   UNL     1       2.493   5.063  19.702  0.00  0.00    +0.000 A 
ATOM     19  C   UNL     1       2.889   5.556  18.455  0.00  0.00    +0.000 A 
ATOM     20  C   UNL     1       2.565   6.882  18.148  0.00  0.00    +0.000 A 
BRANCH  19  21
ATOM     21  N   UNL     1       3.549   4.715  17.531  0.00  0.00    +0.000 N 
ATOM     22  C   UNL     1       4.944   4.540  17.444  0.00  0.00    +0.000 A 
ATOM     23  C   UNL     1       5.775   4.653  18.566  0.00  0.00    +0.000 A 
ATOM     24  N   UNL     1       7.130   4.686  18.504  0.00  0.00    +0.000 NA
ATOM     25  C   UNL     1       7.639   4.549  17.265  0.00  0.00    +0.000 A 
ATOM     26  C   UNL     1       6.835   4.334  16.159  0.00  0.00    +0.000 A 
ATOM     27  N   UNL     1       5.476   4.318  16.223  0.00  0.00    +0.000 NA
ATOM     28  H   UNL     1       3.207   4.818  16.577  0.00  0.00    +0.000 HD
ENDBRANCH  19  21
ENDBRANCH   2  15
TORSDOF 3
ENDMDL
MODEL 6
REMARK VINA RESULT:      -8.4      7.360      9.543
REMARK  Name = 
REMARK  4 active torsions:
REMARK  status: ('A' for Active; 'I' for Inactive)
REMARK    1  A    between atoms: C_1  and  N_2
REMARK    2  A    between atoms: C_7  and  N_8
REMARK    3  A    between atoms: C_9  and  C_11
REMARK    4  A    between atoms: C_15  and  N_16
REMARK                            x       y       z     vdW  Elec       q    Type
REMARK                         _______ _______ _______ _____ _____    ______ ____
ROOT
ATOM      1  N   UNL     1       1.680   8.371  18.285  0.00  0.00    +0.000 N 
ATOM      2  C   UNL     1       1.318   8.839  19.532  0.00  0.00    +0.000 C 
ATOM      3  O   UNL     1       1.630   8.347  20.623  0.00  0.00    +0.000 OA
ATOM      4  H   UNL     1       1.343   8.873  17.475  0.00  0.00    +0.000 HD
ENDROOT
BRANCH   1  11
ATOM      5  C   UNL     1       7.639   4.621  17.617  0.00  0.00    +0.000 C 
ATOM      6  N   UNL     1       6.462   4.916  16.806  0.00  0.00    +0.000 NA
ATOM      7  C   UNL     1       5.294   4.099  17.225  0.00  0.00    +0.000 C 
ATOM      8  C   UNL     1       4.206   5.072  17.546  0.00  0.00    +0.000 A 
ATOM      9  C   UNL     1       2.914   4.826  17.958  0.00  0.00    +0.000 A 
ATOM     10  C   UNL     1       2.069   5.917  18.194  0.00  0.00    +0.000 A 
ATOM     11  C   UNL     1       2.507   7.244  18.026  0.00  0.00    +0.000 A 
ATOM     12  C   UNL     1       3.827   7.468  17.609  0.00  0.00    +0.000 A 
ATOM     13  C   UNL     1       4.655   6.374  17.371  0.00  0.00    +0.000 A 
ATOM     14  C   UNL     1       6.076   6.347  16.910  0.00  0.00    +0.000 C 
ENDBRANCH   1  11
BRANCH   2  15
ATOM     15  C   UNL     1       0.431  10.028  19.576  0.00  0.00    +0.000 A 
ATOM     16  C   UNL     1      -0.366  10.433  18.510  0.00  0.00    +0.000 A 
ATOM     17  C   UNL     1      -1.213  11.534  18.679  0.00  0.00    +0.000 A 
ATOM     18  C   UNL     1      -1.223  12.253  19.882  0.00  0.00    +0.000 A 
ATOM     19  C   UNL     1      -0.368  11.900  20.931  0.00  0.00    +0.000 A 
ATOM     20  C   UNL     1       0.407  10.746  20.776  0.00  0.00    +0.000 A 
BRANCH  19  21
ATOM     21  N   UNL     1      -0.338  12.667  22.118  0.00  0.00    +0.000 N 
ATOM     22  C   UNL     1      -1.429  12.858  22.988  0.00  0.00    +0.000 A 
ATOM     23  C   UNL     1      -2.428  11.890  23.147  0.00  0.00    +0.000 A 
ATOM     24  N   UNL     1      -3.589  12.101  23.817  0.00  0.00    +0.000 NA
ATOM     25  C   UNL     1      -3.699  13.321  24.377  0.00  0.00    +0.000 A 
ATOM     26  C   UNL     1      -2.677  14.254  24.316  0.00  0.00    +0.000 A 
ATOM     27  N   UNL     1      -1.522  14.043  23.629  0.00  0.00    +0.000 NA
ATOM     28  H   UNL     1       0.105  13.576  21.999  0.00  0.00    +0.000 HD
ENDBRANCH  19  21
ENDBRANCH   2  15
TORSDOF 3
ENDMDL
MODEL 7
REMARK VINA RESULT:      -8.3      5.601      7.384
REMARK  Name = 
REMARK  4 active torsions:
REMARK  status: ('A' for Active; 'I' for Inactive)
REMARK    1  A    between atoms: C_1  and  N_2
REMARK    2  A    between atoms: C_7  and  N_8
REMARK    3  A    between atoms: C_9  and  C_11
REMARK    4  A    between atoms: C_15  and  N_16
REMARK                            x       y       z     vdW  Elec       q    Type
REMARK                         _______ _______ _______ _____ _____    ______ ____
ROOT
ATOM      1  N   UNL     1       1.220   7.474  21.175  0.00  0.00    +0.000 N 
ATOM      2  C   UNL     1       1.939   7.156  20.040  0.00  0.00    +0.000 C 
ATOM      3  O   UNL     1       2.233   7.921  19.115  0.00  0.00    +0.000 OA
ATOM      4  H   UNL     1       1.047   6.739  21.847  0.00  0.00    +0.000 HD
ENDROOT
BRANCH   1  11
ATOM      5  C   UNL     1      -1.231  14.023  20.116  0.00  0.00    +0.000 C 
ATOM      6  N   UNL     1      -0.189  13.386  20.913  0.00  0.00    +0.000 NA
ATOM      7  C   UNL     1      -0.750  12.733  22.123  0.00  0.00    +0.000 C 
ATOM      8  C   UNL     1      -0.320  11.303  22.058  0.00  0.00    +0.000 A 
ATOM      9  C   UNL     1      -0.560  10.281  22.950  0.00  0.00    +0.000 A 
ATOM     10  C   UNL     1      -0.042   9.012  22.668  0.00  0.00    +0.000 A 
ATOM     11  C   UNL     1       0.705   8.759  21.501  0.00  0.00    +0.000 A 
ATOM     12  C   UNL     1       0.932   9.814  20.607  0.00  0.00    +0.000 A 
ATOM     13  C   UNL     1       0.417  11.074  20.904  0.00  0.00    +0.000 A 
ATOM     14  C   UNL     1       0.533  12.347  20.132  0.00  0.00    +0.000 C 
ENDBRANCH   1  11
BRANCH   2  15
ATOM     15  C   UNL     1       2.370   5.744  19.889  0.00  0.00    +0.000 A 
ATOM     16  C   UNL     1       2.336   4.814  20.922  0.00  0.00    +0.000 A 
ATOM     17  C   UNL     1       2.707   3.491  20.655  0.00  0.00    +0.000 A 
ATOM     18  C   UNL     1       3.159   3.117  19.382  0.00  0.00    +0.000 A 
ATOM     19  C   UNL     1       3.270   4.062  18.358  0.00  0.00    +0.000 A 
ATOM     20  C   UNL     1       2.812   5.358  18.619  0.00  0.00    +0.000 A 
BRANCH  19  21
ATOM     21  N   UNL     1       3.785   3.691  17.095  0.00  0.00    +0.000 N 
ATOM     22  C   UNL     1       5.038   4.079  16.583  0.00  0.00    +0.000 A 
ATOM     23  C   UNL     1       6.135   4.326  17.419  0.00  0.00    +0.000 A 
ATOM     24  N   UNL     1       7.297   4.885  16.997  0.00  0.00    +0.000 NA
ATOM     25  C   UNL     1       7.348   5.146  15.678  0.00  0.00    +0.000 A 
ATOM     26  C   UNL     1       6.312   4.814  14.821  0.00  0.00    +0.000 A 
ATOM     27  N   UNL     1       5.142   4.269  15.250  0.00  0.00    +0.000 NA
ATOM     28  H   UNL     1       3.112   3.802  16.338  0.00  0.00    +0.000 HD
ENDBRANCH  19  21
ENDBRANCH   2  15
TORSDOF 3
ENDMDL
MODEL 8
REMARK VINA RESULT:      -8.2      5.868      7.987
REMARK  Name = 
REMARK  4 active torsions:
REMARK  status: ('A' for Active; 'I' for Inactive)
REMARK    1  A    between atoms: C_1  and  N_2
REMARK    2  A    between atoms: C_7  and  N_8
REMARK    3  A    between atoms: C_9  and  C_11
REMARK    4  A    between atoms: C_15  and  N_16
REMARK                            x       y       z     vdW  Elec       q    Type
REMARK                         _______ _______ _______ _____ _____    ______ ____
ROOT
ATOM      1  N   UNL     1       1.104   7.659  21.273  0.00  0.00    +0.000 N 
ATOM      2  C   UNL     1       1.834   7.421  20.126  0.00  0.00    +0.000 C 
ATOM      3  O   UNL     1       1.987   8.196  19.175  0.00  0.00    +0.000 OA
ATOM      4  H   UNL     1       1.060   6.926  21.967  0.00  0.00    +0.000 HD
ENDROOT
BRANCH   1  11
ATOM      5  C   UNL     1      -3.320  13.105  20.381  0.00  0.00    +0.000 C 
ATOM      6  N   UNL     1      -1.916  12.911  20.728  0.00  0.00    +0.000 NA
ATOM      7  C   UNL     1      -1.757  12.505  22.148  0.00  0.00    +0.000 C 
ATOM      8  C   UNL     1      -0.998  11.218  22.127  0.00  0.00    +0.000 A 
ATOM      9  C   UNL     1      -0.573  10.442  23.183  0.00  0.00    +0.000 A 
ATOM     10  C   UNL     1       0.135   9.266  22.905  0.00  0.00    +0.000 A 
ATOM     11  C   UNL     1       0.413   8.862  21.586  0.00  0.00    +0.000 A 
ATOM     12  C   UNL     1      -0.033   9.668  20.528  0.00  0.00    +0.000 A 
ATOM     13  C   UNL     1      -0.730  10.838  20.819  0.00  0.00    +0.000 A 
ATOM     14  C   UNL     1      -1.288  11.861  19.884  0.00  0.00    +0.000 C 
ENDBRANCH   1  11
BRANCH   2  15
ATOM     15  C   UNL     1       2.466   6.086  19.994  0.00  0.00    +0.000 A 
ATOM     16  C   UNL     1       1.870   4.905  20.425  0.00  0.00    +0.000 A 
ATOM     17  C   UNL     1       2.528   3.692  20.196  0.00  0.00    +0.000 A 
ATOM     18  C   UNL     1       3.793   3.664  19.591  0.00  0.00    +0.000 A 
ATOM     19  C   UNL     1       4.433   4.851  19.225  0.00  0.00    +0.000 A 
ATOM     20  C   UNL     1       3.724   6.047  19.381  0.00  0.00    +0.000 A 
BRANCH  19  21
ATOM     21  N   UNL     1       5.733   4.821  18.672  0.00  0.00    +0.000 N 
ATOM     22  C   UNL     1       6.044   5.038  17.315  0.00  0.00    +0.000 A 
ATOM     23  C   UNL     1       5.270   5.876  16.504  0.00  0.00    +0.000 A 
ATOM     24  N   UNL     1       5.409   5.966  15.157  0.00  0.00    +0.000 NA
ATOM     25  C   UNL     1       6.401   5.213  14.644  0.00  0.00    +0.000 A 
ATOM     26  C   UNL     1       7.241   4.458  15.444  0.00  0.00    +0.000 A 
ATOM     27  N   UNL     1       7.087   4.358  16.792  0.00  0.00    +0.000 NA
ATOM     28  H   UNL     1       6.280   4.016  18.973  0.00  0.00    +0.000 HD
ENDBRANCH  19  21
ENDBRANCH   2  15
TORSDOF 3
ENDMDL
MODEL 9
REMARK VINA RESULT:      -8.2      7.500     10.125
REMARK  Name = 
REMARK  4 active torsions:
REMARK  status: ('A' for Active; 'I' for Inactive)
REMARK    1  A    between atoms: C_1  and  N_2
REMARK    2  A    between atoms: C_7  and  N_8
REMARK    3  A    between atoms: C_9  and  C_11
REMARK    4  A    between atoms: C_15  and  N_16
REMARK                            x       y       z     vdW  Elec       q    Type
REMARK                         _______ _______ _______ _____ _____    ______ ____
ROOT
ATOM      1  N   UNL     1       1.724   8.528  18.576  0.00  0.00    +0.000 N 
ATOM      2  C   UNL     1       1.289   9.007  19.795  0.00  0.00    +0.000 C 
ATOM      3  O   UNL     1       1.526   8.520  20.906  0.00  0.00    +0.000 OA
ATOM      4  H   UNL     1       1.443   9.028  17.743  0.00  0.00    +0.000 HD
ENDROOT
BRANCH   1  11
ATOM      5  C   UNL     1       3.508   1.697  18.148  0.00  0.00    +0.000 C 
ATOM      6  N   UNL     1       3.983   2.887  18.846  0.00  0.00    +0.000 NA
ATOM      7  C   UNL     1       4.780   3.763  17.950  0.00  0.00    +0.000 C 
ATOM      8  C   UNL     1       4.120   5.103  17.990  0.00  0.00    +0.000 A 
ATOM      9  C   UNL     1       4.481   6.269  17.351  0.00  0.00    +0.000 A 
ATOM     10  C   UNL     1       3.695   7.411  17.551  0.00  0.00    +0.000 A 
ATOM     11  C   UNL     1       2.555   7.392  18.377  0.00  0.00    +0.000 A 
ATOM     12  C   UNL     1       2.207   6.191  19.013  0.00  0.00    +0.000 A 
ATOM     13  C   UNL     1       3.000   5.065  18.810  0.00  0.00    +0.000 A 
ATOM     14  C   UNL     1       2.853   3.692  19.379  0.00  0.00    +0.000 C 
ENDBRANCH   1  11
BRANCH   2  15
ATOM     15  C   UNL     1       0.412  10.204  19.775  0.00  0.00    +0.000 A 
ATOM     16  C   UNL     1      -0.313  10.609  18.659  0.00  0.00    +0.000 A 
ATOM     17  C   UNL     1      -1.159  11.718  18.768  0.00  0.00    +0.000 A 
ATOM     18  C   UNL     1      -1.237  12.446  19.963  0.00  0.00    +0.000 A 
ATOM     19  C   UNL     1      -0.454  12.093  21.066  0.00  0.00    +0.000 A 
ATOM     20  C   UNL     1       0.318  10.930  20.968  0.00  0.00    +0.000 A 
BRANCH  19  21
ATOM     21  N   UNL     1      -0.492  12.867  22.247  0.00  0.00    +0.000 N 
ATOM     22  C   UNL     1      -1.602  12.981  23.108  0.00  0.00    +0.000 A 
ATOM     23  C   UNL     1      -2.526  11.941  23.266  0.00  0.00    +0.000 A 
ATOM     24  N   UNL     1      -3.705  12.069  23.925  0.00  0.00    +0.000 NA
ATOM     25  C   UNL     1      -3.911  13.280  24.475  0.00  0.00    +0.000 A 
ATOM     26  C   UNL     1      -2.963  14.287  24.416  0.00  0.00    +0.000 A 
ATOM     27  N   UNL     1      -1.789  14.159  23.740  0.00  0.00    +0.000 NA
ATOM     28  H   UNL     1      -0.118  13.806  22.126  0.00  0.00    +0.000 HD
ENDBRANCH  19  21
ENDBRANCH   2  15
TORSDOF 3
ENDMDL
