MODEL 1
REMARK VINA RESULT:      -8.7      0.000      0.000
REMARK  Name = 
REMARK  5 active torsions:
REMARK  status: ('A' for Active; 'I' for Inactive)
REMARK    1  A    between atoms: C_2  and  C_14
REMARK    2  A    between atoms: N_3  and  C_4
REMARK    3  A    between atoms: C_4  and  C_5
REMARK    4  A    between atoms: C_19  and  S_20
REMARK    5  A    between atoms: S_20  and  N_23
REMARK                            x       y       z     vdW  Elec       q    Type
REMARK                         _______ _______ _______ _____ _____    ______ ____
ROOT
ATOM      1  C   UNL     1       2.327   7.012  19.100  0.00  0.00    +0.000 A 
ATOM      2  C   UNL     1       1.655   6.762  20.305  0.00  0.00    +0.000 A 
ATOM      3  C   UNL     1       1.804   5.534  20.951  0.00  0.00    +0.000 A 
ATOM      4  C   UNL     1       2.617   4.545  20.394  0.00  0.00    +0.000 A 
ATOM      5  F   UNL     1       2.718   3.382  21.044  0.00  0.00    +0.000 F 
ATOM      6  C   UNL     1       3.269   4.772  19.189  0.00  0.00    +0.000 A 
ATOM      7  C   UNL     1       3.133   6.012  18.540  0.00  0.00    +0.000 A 
ENDROOT
BRANCH   1   9
ATOM      8  O   UNL     1       2.516   8.531  17.316  0.00  0.00    +0.000 OA
ATOM      9  C   UNL     1       2.131   8.347  18.468  0.00  0.00    +0.000 C 
ATOM     10  N   UNL     1       1.492   9.311  19.216  0.00  0.00    +0.000 N 
ATOM     11  H   UNL     1       1.144   9.112  20.141  0.00  0.00    +0.000 HD
BRANCH  10  12
ATOM     12  C   UNL     1       1.273  10.641  18.696  0.00  0.00    +0.000 C 
BRANCH  12  13
ATOM     13  C   UNL     1      -0.193  10.992  18.699  0.00  0.00    +0.000 A 
ATOM     14  C   UNL     1      -0.660  12.060  19.502  0.00  0.00    +0.000 A 
ATOM     15  C   UNL     1      -2.013  12.410  19.524  0.00  0.00    +0.000 A 
ATOM     16  C   UNL     1      -2.875  11.672  18.744  0.00  0.00    +0.000 A 
ATOM     17  C   UNL     1      -2.435  10.621  17.974  0.00  0.00    +0.000 A 
ATOM     18  C   UNL     1      -1.107  10.251  17.933  0.00  0.00    +0.000 A 
ATOM     19  O   UNL     1      -3.446  10.024  17.288  0.00  0.00    +0.000 OA
ATOM     20  C   UNL     1      -4.572  10.818  17.716  0.00  0.00    +0.000 C 
ATOM     21  O   UNL     1      -4.215  11.872  18.636  0.00  0.00    +0.000 OA
ENDBRANCH  12  13
ENDBRANCH  10  12
ENDBRANCH   1   9
BRANCH   6  22
ATOM     22  S   UNL     1       4.412   3.577  18.548  0.00  0.00    +0.000 S 
ATOM     23  O   UNL     1       5.375   3.333  19.604  0.00  0.00    +0.000 OA
ATOM     24  O   UNL     1       3.657   2.476  17.985  0.00  0.00    +0.000 OA
BRANCH  22  25
ATOM     25  N   UNL     1       5.235   4.379  17.274  0.00  0.00    +0.000 NA
ATOM     26  C   UNL     1       6.622   4.807  17.583  0.00  0.00    +0.000 C 
ATOM     27  C   UNL     1       7.208   5.674  16.473  0.00  0.00    +0.000 C 
ATOM     28  C   UNL     1       7.093   4.989  15.120  0.00  0.00    +0.000 C 
ATOM     29  C   UNL     1       5.628   4.702  14.830  0.00  0.00    +0.000 C 
ATOM     30  C   UNL     1       5.009   3.826  15.914  0.00  0.00    +0.000 C 
ENDBRANCH  22  25
ENDBRANCH   6  22
TORSDOF 5
ENDMDL
MODEL 2
REMARK VINA RESULT:      -8.7      0.599      1.238
REMARK  Name = 
REMARK  5 active torsions:
REMARK  status: ('A' for Active; 'I' for Inactive)
REMARK    1  A    between atoms: C_2  and  C_14
REMARK    2  A    between atoms: N_3  and  C_4
REMARK    3  A    between atoms: C_4  and  C_5
REMARK    4  A    between atoms: C_19  and  S_20
REMARK    5  A    between atoms: S_20  and  N_23
REMARK                            x       y       z     vdW  Elec       q    Type
REMARK                         _______ _______ _______ _____ _____    ______ ____
ROOT
ATOM      1  C   UNL     1       2.249   6.969  19.174  0.00  0.00    +0.000 A 
ATOM      2  C   UNL     1       1.653   6.723  20.419  0.00  0.00    +0.000 A 
ATOM      3  C   UNL     1       1.861   5.506  21.070  0.00  0.00    +0.000 A 
ATOM      4  C   UNL     1       2.657   4.524  20.477  0.00  0.00    +0.000 A 
ATOM      5  F   UNL     1       2.817   3.370  21.135  0.00  0.00    +0.000 F 
ATOM      6  C   UNL     1       3.234   4.746  19.233  0.00  0.00    +0.000 A 
ATOM      7  C   UNL     1       3.038   5.974  18.579  0.00  0.00    +0.000 A 
ENDROOT
BRANCH   1   9
ATOM      8  O   UNL     1       2.463   8.529  17.429  0.00  0.00    +0.000 OA
ATOM      9  C   UNL     1       1.993   8.291  18.538  0.00  0.00    +0.000 C 
ATOM     10  N   UNL     1       1.204   9.182  19.232  0.00  0.00    +0.000 N 
ATOM     11  H   UNL     1       0.793   8.937  20.119  0.00  0.00    +0.000 HD
BRANCH  10  12
ATOM     12  C   UNL     1       0.915  10.497  18.706  0.00  0.00    +0.000 C 
BRANCH  12  13
ATOM     13  C   UNL     1      -0.565  10.684  18.491  0.00  0.00    +0.000 A 
ATOM     14  C   UNL     1      -1.225   9.958  17.472  0.00  0.00    +0.000 A 
ATOM     15  C   UNL     1      -2.597  10.109  17.250  0.00  0.00    +0.000 A 
ATOM     16  C   UNL     1      -3.278  10.997  18.051  0.00  0.00    +0.000 A 
ATOM     17  C   UNL     1      -2.643  11.721  19.033  0.00  0.00    +0.000 A 
ATOM     18  C   UNL     1      -1.291  11.594  19.275  0.00  0.00    +0.000 A 
ATOM     19  O   UNL     1      -3.495  12.543  19.703  0.00  0.00    +0.000 OA
ATOM     20  C   UNL     1      -4.738  12.253  19.030  0.00  0.00    +0.000 C 
ATOM     21  O   UNL     1      -4.609  11.267  17.984  0.00  0.00    +0.000 OA
ENDBRANCH  12  13
ENDBRANCH  10  12
ENDBRANCH   1   9
BRANCH   6  22
ATOM     22  S   UNL     1       4.357   3.562  18.540  0.00  0.00    +0.000 S 
ATOM     23  O   UNL     1       5.319   3.261  19.582  0.00  0.00    +0.000 OA
ATOM     24  O   UNL     1       3.585   2.495  17.937  0.00  0.00    +0.000 OA
BRANCH  22  25
ATOM     25  N   UNL     1       5.188   4.403  17.297  0.00  0.00    +0.000 NA
ATOM     26  C   UNL     1       6.544   4.890  17.656  0.00  0.00    +0.000 C 
ATOM     27  C   UNL     1       7.129   5.785  16.568  0.00  0.00    +0.000 C 
ATOM     28  C   UNL     1       7.091   5.101  15.211  0.00  0.00    +0.000 C 
ATOM     29  C   UNL     1       5.651   4.750  14.869  0.00  0.00    +0.000 C 
ATOM     30  C   UNL     1       5.035   3.844  15.930  0.00  0.00    +0.000 C 
ENDBRANCH  22  25
ENDBRANCH   6  22
TORSDOF 5
ENDMDL
MODEL 3
REMARK VINA RESULT:      -8.5      0.977      1.865
REMARK  Name = 
REMARK  5 active torsions:
REMARK  status: ('A' for Active; 'I' for Inactive)
REMARK    1  A    between atoms: C_2  and  C_14
REMARK    2  A    between atoms: N_3  and  C_4
REMARK    3  A    between atoms: C_4  and  C_5
REMARK    4  A    between atoms: C_19  and  S_20
REMARK    5  A    between atoms: S_20  and  N_23
REMARK                            x       y       z     vdW  Elec       q    Type
REMARK                         _______ _______ _______ _____ _____    ______ ____
ROOT
ATOM      1  C   UNL     1       2.276   7.034  19.118  0.00  0.00    +0.000 A 
ATOM      2  C   UNL     1       1.626   6.727  20.322  0.00  0.00    +0.000 A 
ATOM      3  C   UNL     1       1.857   5.504  20.954  0.00  0.00    +0.000 A 
ATOM      4  C   UNL     1       2.730   4.577  20.382  0.00  0.00    +0.000 A 
ATOM      5  F   UNL     1       2.909   3.415  21.019  0.00  0.00    +0.000 F 
ATOM      6  C   UNL     1       3.362   4.859  19.178  0.00  0.00    +0.000 A 
ATOM      7  C   UNL     1       3.143   6.094  18.544  0.00  0.00    +0.000 A 
ENDROOT
BRANCH   1   9
ATOM      8  O   UNL     1       2.461   8.626  17.399  0.00  0.00    +0.000 OA
ATOM      9  C   UNL     1       1.992   8.360  18.502  0.00  0.00    +0.000 C 
ATOM     10  N   UNL     1       1.179   9.222  19.206  0.00  0.00    +0.000 N 
ATOM     11  H   UNL     1       0.770   8.953  20.087  0.00  0.00    +0.000 HD
BRANCH  10  12
ATOM     12  C   UNL     1       0.861  10.537  18.699  0.00  0.00    +0.000 C 
BRANCH  12  13
ATOM     13  C   UNL     1      -0.620  10.688  18.468  0.00  0.00    +0.000 A 
ATOM     14  C   UNL     1      -1.254   9.935  17.451  0.00  0.00    +0.000 A 
ATOM     15  C   UNL     1      -2.627  10.052  17.214  0.00  0.00    +0.000 A 
ATOM     16  C   UNL     1      -3.336  10.934  17.998  0.00  0.00    +0.000 A 
ATOM     17  C   UNL     1      -2.727  11.684  18.976  0.00  0.00    +0.000 A 
ATOM     18  C   UNL     1      -1.374  11.591  19.233  0.00  0.00    +0.000 A 
ATOM     19  O   UNL     1      -3.604  12.494  19.628  0.00  0.00    +0.000 OA
ATOM     20  C   UNL     1      -4.833  12.168  18.947  0.00  0.00    +0.000 C 
ATOM     21  O   UNL     1      -4.671  11.173  17.915  0.00  0.00    +0.000 OA
ENDBRANCH  12  13
ENDBRANCH  10  12
ENDBRANCH   1   9
BRANCH   6  22
ATOM     22  S   UNL     1       4.577   3.748  18.519  0.00  0.00    +0.000 S 
ATOM     23  O   UNL     1       4.948   2.865  19.608  0.00  0.00    +0.000 OA
ATOM     24  O   UNL     1       4.070   3.196  17.280  0.00  0.00    +0.000 OA
BRANCH  22  25
ATOM     25  N   UNL     1       5.938   4.729  18.162  0.00  0.00    +0.000 NA
ATOM     26  C   UNL     1       5.861   5.483  16.886  0.00  0.00    +0.000 C 
ATOM     27  C   UNL     1       7.181   6.173  16.556  0.00  0.00    +0.000 C 
ATOM     28  C   UNL     1       7.660   7.030  17.716  0.00  0.00    +0.000 C 
ATOM     29  C   UNL     1       7.832   6.153  18.947  0.00  0.00    +0.000 C 
ATOM     30  C   UNL     1       6.527   5.455  19.316  0.00  0.00    +0.000 C 
ENDBRANCH  22  25
ENDBRANCH   6  22
TORSDOF 5
ENDMDL
MODEL 4
REMARK VINA RESULT:      -8.5      1.629      1.795
REMARK  Name = 
REMARK  5 active torsions:
REMARK  status: ('A' for Active; 'I' for Inactive)
REMARK    1  A    between atoms: C_2  and  C_14
REMARK    2  A    between atoms: N_3  and  C_4
REMARK    3  A    between atoms: C_4  and  C_5
REMARK    4  A    between atoms: C_19  and  S_20
REMARK    5  A    between atoms: S_20  and  N_23
REMARK                            x       y       z     vdW  Elec       q    Type
REMARK                         _______ _______ _______ _____ _____    ______ ____
ROOT
ATOM      1  C   UNL     1       1.879   6.348  20.180  0.00  0.00    +0.000 A 
ATOM      2  C   UNL     1       0.897   5.431  20.583  0.00  0.00    +0.000 A 
ATOM      3  C   UNL     1       1.071   4.066  20.350  0.00  0.00    +0.000 A 
ATOM      4  C   UNL     1       2.223   3.609  19.706  0.00  0.00    +0.000 A 
ATOM      5  F   UNL     1       2.338   2.293  19.496  0.00  0.00    +0.000 F 
ATOM      6  C   UNL     1       3.192   4.508  19.281  0.00  0.00    +0.000 A 
ATOM      7  C   UNL     1       3.027   5.883  19.524  0.00  0.00    +0.000 A 
ENDROOT
BRANCH   1   9
ATOM      8  O   UNL     1       1.569   8.169  21.633  0.00  0.00    +0.000 OA
ATOM      9  C   UNL     1       1.634   7.788  20.467  0.00  0.00    +0.000 C 
ATOM     10  N   UNL     1       1.519   8.636  19.388  0.00  0.00    +0.000 N 
ATOM     11  H   UNL     1       1.626   8.300  18.444  0.00  0.00    +0.000 HD
BRANCH  10  12
ATOM     12  C   UNL     1       1.262  10.047  19.565  0.00  0.00    +0.000 C 
BRANCH  12  13
ATOM     13  C   UNL     1      -0.080  10.431  18.995  0.00  0.00    +0.000 A 
ATOM     14  C   UNL     1      -0.893  11.367  19.679  0.00  0.00    +0.000 A 
ATOM     15  C   UNL     1      -2.140  11.745  19.175  0.00  0.00    +0.000 A 
ATOM     16  C   UNL     1      -2.553  11.165  17.996  0.00  0.00    +0.000 A 
ATOM     17  C   UNL     1      -1.780  10.241  17.334  0.00  0.00    +0.000 A 
ATOM     18  C   UNL     1      -0.545   9.848  17.806  0.00  0.00    +0.000 A 
ATOM     19  O   UNL     1      -2.374   9.789  16.197  0.00  0.00    +0.000 OA
ATOM     20  C   UNL     1      -3.610  10.534  16.221  0.00  0.00    +0.000 C 
ATOM     21  O   UNL     1      -3.727  11.415  17.358  0.00  0.00    +0.000 OA
ENDBRANCH  12  13
ENDBRANCH  10  12
ENDBRANCH   1   9
BRANCH   6  22
ATOM     22  S   UNL     1       4.717   3.925  18.591  0.00  0.00    +0.000 S 
ATOM     23  O   UNL     1       5.345   3.122  19.621  0.00  0.00    +0.000 OA
ATOM     24  O   UNL     1       4.442   3.350  17.290  0.00  0.00    +0.000 OA
BRANCH  22  25
ATOM     25  N   UNL     1       5.679   5.329  18.372  0.00  0.00    +0.000 NA
ATOM     26  C   UNL     1       7.093   5.205  18.806  0.00  0.00    +0.000 C 
ATOM     27  C   UNL     1       7.820   6.545  18.756  0.00  0.00    +0.000 C 
ATOM     28  C   UNL     1       7.680   7.197  17.389  0.00  0.00    +0.000 C 
ATOM     29  C   UNL     1       6.205   7.400  17.082  0.00  0.00    +0.000 C 
ATOM     30  C   UNL     1       5.445   6.078  17.112  0.00  0.00    +0.000 C 
ENDBRANCH  22  25
ENDBRANCH   6  22
TORSDOF 5
ENDMDL
MODEL 5
REMARK VINA RESULT:      -8.4      1.069      1.148
REMARK  Name = 
REMARK  5 active torsions:
REMARK  status: ('A' for Active; 'I' for Inactive)
REMARK    1  A    between atoms: C_2  and  C_14
REMARK    2  A    between atoms: N_3  and  C_4
REMARK    3  A    between atoms: C_4  and  C_5
REMARK    4  A    between atoms: C_19  and  S_20
REMARK    5  A    between atoms: S_20  and  N_23
REMARK                            x       y       z     vdW  Elec       q    Type
REMARK                         _______ _______ _______ _____ _____    ______ ____
ROOT
ATOM      1  C   UNL     1       2.050   6.266  19.812  0.00  0.00    +0.000 A 
ATOM      2  C   UNL     1       1.086   5.625  20.605  0.00  0.00    +0.000 A 
ATOM      3  C   UNL     1       1.105   4.238  20.752  0.00  0.00    +0.000 A 
ATOM      4  C   UNL     1       2.081   3.480  20.101  0.00  0.00    +0.000 A 
ATOM      5  F   UNL     1       2.050   2.153  20.263  0.00  0.00    +0.000 F 
ATOM      6  C   UNL     1       3.026   4.099  19.293  0.00  0.00    +0.000 A 
ATOM      7  C   UNL     1       3.019   5.498  19.152  0.00  0.00    +0.000 A 
ENDROOT
BRANCH   1   9
ATOM      8  O   UNL     1       1.910   8.425  20.728  0.00  0.00    +0.000 OA
ATOM      9  C   UNL     1       1.977   7.749  19.705  0.00  0.00    +0.000 C 
ATOM     10  N   UNL     1       2.018   8.294  18.440  0.00  0.00    +0.000 N 
ATOM     11  H   UNL     1       2.123   7.713  17.623  0.00  0.00    +0.000 HD
BRANCH  10  12
ATOM     12  C   UNL     1       1.934   9.721  18.234  0.00  0.00    +0.000 C 
BRANCH  12  13
ATOM     13  C   UNL     1       0.514  10.209  18.368  0.00  0.00    +0.000 A 
ATOM     14  C   UNL     1       0.207  11.241  19.286  0.00  0.00    +0.000 A 
ATOM     15  C   UNL     1      -1.100  11.715  19.430  0.00  0.00    +0.000 A 
ATOM     16  C   UNL     1      -2.078  11.133  18.655  0.00  0.00    +0.000 A 
ATOM     17  C   UNL     1      -1.794  10.117  17.773  0.00  0.00    +0.000 A 
ATOM     18  C   UNL     1      -0.515   9.628  17.609  0.00  0.00    +0.000 A 
ATOM     19  O   UNL     1      -2.900   9.681  17.113  0.00  0.00    +0.000 OA
ATOM     20  C   UNL     1      -3.912  10.538  17.682  0.00  0.00    +0.000 C 
ATOM     21  O   UNL     1      -3.395  11.468  18.657  0.00  0.00    +0.000 OA
ENDBRANCH  12  13
ENDBRANCH  10  12
ENDBRANCH   1   9
BRANCH   6  22
ATOM     22  S   UNL     1       4.349   3.161  18.578  0.00  0.00    +0.000 S 
ATOM     23  O   UNL     1       5.246   2.832  19.668  0.00  0.00    +0.000 OA
ATOM     24  O   UNL     1       3.777   2.106  17.766  0.00  0.00    +0.000 OA
BRANCH  22  25
ATOM     25  N   UNL     1       5.171   4.256  17.545  0.00  0.00    +0.000 NA
ATOM     26  C   UNL     1       6.533   4.648  17.988  0.00  0.00    +0.000 C 
ATOM     27  C   UNL     1       7.111   5.762  17.121  0.00  0.00    +0.000 C 
ATOM     28  C   UNL     1       7.056   5.398  15.646  0.00  0.00    +0.000 C 
ATOM     29  C   UNL     1       5.611   5.136  15.251  0.00  0.00    +0.000 C 
ATOM     30  C   UNL     1       5.001   4.018  16.089  0.00  0.00    +0.000 C 
ENDBRANCH  22  25
ENDBRANCH   6  22
TORSDOF 5
ENDMDL
MODEL 6
REMARK VINA RESULT:      -8.3      1.243      1.770
REMARK  Name = 
REMARK  5 active torsions:
REMARK  status: ('A' for Active; 'I' for Inactive)
REMARK    1  A    between atoms: C_2  and  C_14
REMARK    2  A    between atoms: N_3  and  C_4
REMARK    3  A    between atoms: C_4  and  C_5
REMARK    4  A    between atoms: C_19  and  S_20
REMARK    5  A    between atoms: S_20  and  N_23
REMARK                            x       y       z     vdW  Elec       q    Type
REMARK                         _______ _______ _______ _____ _____    ______ ____
ROOT
ATOM      1  C   UNL     1       2.050   6.255  19.828  0.00  0.00    +0.000 A 
ATOM      2  C   UNL     1       1.079   5.610  20.607  0.00  0.00    +0.000 A 
ATOM      3  C   UNL     1       1.093   4.221  20.742  0.00  0.00    +0.000 A 
ATOM      4  C   UNL     1       2.071   3.467  20.091  0.00  0.00    +0.000 A 
ATOM      5  F   UNL     1       2.036   2.139  20.241  0.00  0.00    +0.000 F 
ATOM      6  C   UNL     1       3.025   4.091  19.297  0.00  0.00    +0.000 A 
ATOM      7  C   UNL     1       3.023   5.491  19.168  0.00  0.00    +0.000 A 
ENDROOT
BRANCH   1   9
ATOM      8  O   UNL     1       1.920   8.407  20.764  0.00  0.00    +0.000 OA
ATOM      9  C   UNL     1       1.983   7.740  19.735  0.00  0.00    +0.000 C 
ATOM     10  N   UNL     1       2.024   8.295  18.474  0.00  0.00    +0.000 N 
ATOM     11  H   UNL     1       2.126   7.722  17.652  0.00  0.00    +0.000 HD
BRANCH  10  12
ATOM     12  C   UNL     1       1.946   9.725  18.281  0.00  0.00    +0.000 C 
BRANCH  12  13
ATOM     13  C   UNL     1       0.529  10.218  18.432  0.00  0.00    +0.000 A 
ATOM     14  C   UNL     1      -0.488   9.703  17.593  0.00  0.00    +0.000 A 
ATOM     15  C   UNL     1      -1.811  10.139  17.711  0.00  0.00    +0.000 A 
ATOM     16  C   UNL     1      -2.085  11.094  18.664  0.00  0.00    +0.000 A 
ATOM     17  C   UNL     1      -1.101  11.614  19.471  0.00  0.00    +0.000 A 
ATOM     18  C   UNL     1       0.213  11.205  19.378  0.00  0.00    +0.000 A 
ATOM     19  O   UNL     1      -1.582  12.547  20.337  0.00  0.00    +0.000 OA
ATOM     20  C   UNL     1      -2.979  12.554  19.980  0.00  0.00    +0.000 C 
ATOM     21  O   UNL     1      -3.308  11.628  18.923  0.00  0.00    +0.000 OA
ENDBRANCH  12  13
ENDBRANCH  10  12
ENDBRANCH   1   9
BRANCH   6  22
ATOM     22  S   UNL     1       4.351   3.155  18.584  0.00  0.00    +0.000 S 
ATOM     23  O   UNL     1       5.248   2.829  19.675  0.00  0.00    +0.000 OA
ATOM     24  O   UNL     1       3.782   2.097  17.773  0.00  0.00    +0.000 OA
BRANCH  22  25
ATOM     25  N   UNL     1       5.171   4.251  17.550  0.00  0.00    +0.000 NA
ATOM     26  C   UNL     1       6.532   4.646  17.994  0.00  0.00    +0.000 C 
ATOM     27  C   UNL     1       7.108   5.761  17.126  0.00  0.00    +0.000 C 
ATOM     28  C   UNL     1       7.054   5.395  15.652  0.00  0.00    +0.000 C 
ATOM     29  C   UNL     1       5.610   5.130  15.256  0.00  0.00    +0.000 C 
ATOM     30  C   UNL     1       5.002   4.011  16.095  0.00  0.00    +0.000 C 
ENDBRANCH  22  25
ENDBRANCH   6  22
TORSDOF 5
ENDMDL
MODEL 7
REMARK VINA RESULT:      -8.2      1.613      2.251
REMARK  Name = 
REMARK  5 active torsions:
REMARK  status: ('A' for Active; 'I' for Inactive)
REMARK    1  A    between atoms: C_2  and  C_14
REMARK    2  A    between atoms: N_3  and  C_4
REMARK    3  A    between atoms: C_4  and  C_5
REMARK    4  A    between atoms: C_19  and  S_20
REMARK    5  A    between atoms: S_20  and  N_23
REMARK                            x       y       z     vdW  Elec       q    Type
REMARK                         _______ _______ _______ _____ _____    ______ ____
ROOT
ATOM      1  C   UNL     1       2.316   6.945  19.109  0.00  0.00    +0.000 A 
ATOM      2  C   UNL     1       1.639   6.671  20.306  0.00  0.00    +0.000 A 
ATOM      3  C   UNL     1       1.797   5.436  20.937  0.00  0.00    +0.000 A 
ATOM      4  C   UNL     1       2.625   4.465  20.372  0.00  0.00    +0.000 A 
ATOM      5  F   UNL     1       2.735   3.294  21.008  0.00  0.00    +0.000 F 
ATOM      6  C   UNL     1       3.283   4.714  19.175  0.00  0.00    +0.000 A 
ATOM      7  C   UNL     1       3.137   5.961  18.541  0.00  0.00    +0.000 A 
ENDROOT
BRANCH   1   9
ATOM      8  O   UNL     1       2.576   8.517  17.381  0.00  0.00    +0.000 OA
ATOM      9  C   UNL     1       2.110   8.285  18.493  0.00  0.00    +0.000 C 
ATOM     10  N   UNL     1       1.367   9.200  19.207  0.00  0.00    +0.000 N 
ATOM     11  H   UNL     1       0.955   8.961  20.096  0.00  0.00    +0.000 HD
BRANCH  10  12
ATOM     12  C   UNL     1       1.128  10.532  18.701  0.00  0.00    +0.000 C 
BRANCH  12  13
ATOM     13  C   UNL     1       0.132  11.270  19.559  0.00  0.00    +0.000 A 
ATOM     14  C   UNL     1      -1.026  11.830  18.970  0.00  0.00    +0.000 A 
ATOM     15  C   UNL     1      -1.969  12.518  19.740  0.00  0.00    +0.000 A 
ATOM     16  C   UNL     1      -1.722  12.640  21.089  0.00  0.00    +0.000 A 
ATOM     17  C   UNL     1      -0.590  12.116  21.669  0.00  0.00    +0.000 A 
ATOM     18  C   UNL     1       0.358  11.433  20.935  0.00  0.00    +0.000 A 
ATOM     19  O   UNL     1      -0.537  12.354  23.007  0.00  0.00    +0.000 OA
ATOM     20  C   UNL     1      -1.764  13.087  23.202  0.00  0.00    +0.000 C 
ATOM     21  O   UNL     1      -2.525  13.267  21.989  0.00  0.00    +0.000 OA
ENDBRANCH  12  13
ENDBRANCH  10  12
ENDBRANCH   1   9
BRANCH   6  22
ATOM     22  S   UNL     1       4.443   3.541  18.526  0.00  0.00    +0.000 S 
ATOM     23  O   UNL     1       5.408   3.302  19.581  0.00  0.00    +0.000 OA
ATOM     24  O   UNL     1       3.705   2.433  17.955  0.00  0.00    +0.000 OA
BRANCH  22  25
ATOM     25  N   UNL     1       5.256   4.364  17.259  0.00  0.00    +0.000 NA
ATOM     26  C   UNL     1       6.665   4.733  17.542  0.00  0.00    +0.000 C 
ATOM     27  C   UNL     1       7.248   5.623  16.448  0.00  0.00    +0.000 C 
ATOM     28  C   UNL     1       7.070   4.995  15.075  0.00  0.00    +0.000 C 
ATOM     29  C   UNL     1       5.588   4.769  14.818  0.00  0.00    +0.000 C 
ATOM     30  C   UNL     1       4.972   3.872  15.887  0.00  0.00    +0.000 C 
ENDBRANCH  22  25
ENDBRANCH   6  22
TORSDOF 5
ENDMDL
MODEL 8
REMARK VINA RESULT:      -8.2      0.645      1.185
REMARK  Name = 
REMARK  5 active torsions:
REMARK  status: ('A' for Active; 'I' for Inactive)
REMARK    1  A    between atoms: C_2  and  C_14
REMARK    2  A    between atoms: N_3  and  C_4
REMARK    3  A    between atoms: C_4  and  C_5
REMARK    4  A    between atoms: C_19  and  S_20
REMARK    5  A    between atoms: S_20  and  N_23
REMARK                            x       y       z     vdW  Elec       q    Type
REMARK                         _______ _______ _______ _____ _____    ______ ____
ROOT
ATOM      1  C   UNL     1       2.178   6.936  18.959  0.00  0.00    +0.000 A 
ATOM      2  C   UNL     1       1.891   6.758  20.320  0.00  0.00    +0.000 A 
ATOM      3  C   UNL     1       2.026   5.500  20.909  0.00  0.00    +0.000 A 
ATOM      4  C   UNL     1       2.440   4.410  20.140  0.00  0.00    +0.000 A 
ATOM      5  F   UNL     1       2.543   3.223  20.747  0.00  0.00    +0.000 F 
ATOM      6  C   UNL     1       2.704   4.568  18.786  0.00  0.00    +0.000 A 
ATOM      7  C   UNL     1       2.581   5.836  18.190  0.00  0.00    +0.000 A 
ENDROOT
BRANCH   1   9
ATOM      8  O   UNL     1       2.440   8.547  17.268  0.00  0.00    +0.000 OA
ATOM      9  C   UNL     1       2.021   8.306  18.397  0.00  0.00    +0.000 C 
ATOM     10  N   UNL     1       1.376   9.239  19.179  0.00  0.00    +0.000 N 
ATOM     11  H   UNL     1       1.000   8.996  20.082  0.00  0.00    +0.000 HD
BRANCH  10  12
ATOM     12  C   UNL     1       1.193  10.600  18.728  0.00  0.00    +0.000 C 
BRANCH  12  13
ATOM     13  C   UNL     1      -0.266  10.980  18.723  0.00  0.00    +0.000 A 
ATOM     14  C   UNL     1      -0.723  12.031  19.553  0.00  0.00    +0.000 A 
ATOM     15  C   UNL     1      -2.069  12.407  19.568  0.00  0.00    +0.000 A 
ATOM     16  C   UNL     1      -2.934  11.711  18.754  0.00  0.00    +0.000 A 
ATOM     17  C   UNL     1      -2.504  10.676  17.957  0.00  0.00    +0.000 A 
ATOM     18  C   UNL     1      -1.183  10.281  17.921  0.00  0.00    +0.000 A 
ATOM     19  O   UNL     1      -3.517  10.121  17.239  0.00  0.00    +0.000 OA
ATOM     20  C   UNL     1      -4.632  10.924  17.677  0.00  0.00    +0.000 C 
ATOM     21  O   UNL     1      -4.268  11.941  18.634  0.00  0.00    +0.000 OA
ENDBRANCH  12  13
ENDBRANCH  10  12
ENDBRANCH   1   9
BRANCH   6  22
ATOM     22  S   UNL     1       3.363   3.223  17.837  0.00  0.00    +0.000 S 
ATOM     23  O   UNL     1       3.596   2.143  18.776  0.00  0.00    +0.000 OA
ATOM     24  O   UNL     1       2.509   3.011  16.686  0.00  0.00    +0.000 OA
BRANCH  22  25
ATOM     25  N   UNL     1       4.894   3.768  17.286  0.00  0.00    +0.000 NA
ATOM     26  C   UNL     1       4.911   4.335  15.914  0.00  0.00    +0.000 C 
ATOM     27  C   UNL     1       6.332   4.615  15.435  0.00  0.00    +0.000 C 
ATOM     28  C   UNL     1       7.091   5.473  16.435  0.00  0.00    +0.000 C 
ATOM     29  C   UNL     1       7.132   4.758  17.776  0.00  0.00    +0.000 C 
ATOM     30  C   UNL     1       5.726   4.471  18.294  0.00  0.00    +0.000 C 
ENDBRANCH  22  25
ENDBRANCH   6  22
TORSDOF 5
ENDMDL
MODEL 9
REMARK VINA RESULT:      -8.2      2.157      3.647
REMARK  Name = 
REMARK  5 active torsions:
REMARK  status: ('A' for Active; 'I' for Inactive)
REMARK    1  A    between atoms: C_2  and  C_14
REMARK    2  A    between atoms: N_3  and  C_4
REMARK    3  A    between atoms: C_4  and  C_5
REMARK    4  A    between atoms: C_19  and  S_20
REMARK    5  A    between atoms: S_20  and  N_23
REMARK                            x       y       z     vdW  Elec       q    Type
REMARK                         _______ _______ _______ _____ _____    ______ ____
ROOT
ATOM      1  C   UNL     1       2.751   7.451  18.618  0.00  0.00    +0.000 A 
ATOM      2  C   UNL     1       3.246   8.124  17.491  0.00  0.00    +0.000 A 
ATOM      3  C   UNL     1       4.153   7.493  16.637  0.00  0.00    +0.000 A 
ATOM      4  C   UNL     1       4.577   6.191  16.908  0.00  0.00    +0.000 A 
ATOM      5  F   UNL     1       5.456   5.635  16.067  0.00  0.00    +0.000 F 
ATOM      6  C   UNL     1       4.114   5.523  18.034  0.00  0.00    +0.000 A 
ATOM      7  C   UNL     1       3.191   6.148  18.891  0.00  0.00    +0.000 A 
ENDROOT
BRANCH   1   9
ATOM      8  O   UNL     1       1.556   7.767  20.617  0.00  0.00    +0.000 OA
ATOM      9  C   UNL     1       1.780   8.178  19.482  0.00  0.00    +0.000 C 
ATOM     10  N   UNL     1       1.196   9.311  18.959  0.00  0.00    +0.000 N 
ATOM     11  H   UNL     1       1.439   9.650  18.041  0.00  0.00    +0.000 HD
BRANCH  10  12
ATOM     12  C   UNL     1       0.228  10.074  19.713  0.00  0.00    +0.000 C 
BRANCH  12  13
ATOM     13  C   UNL     1      -0.943  10.472  18.851  0.00  0.00    +0.000 A 
ATOM     14  C   UNL     1      -1.864  11.439  19.319  0.00  0.00    +0.000 A 
ATOM     15  C   UNL     1      -2.958  11.830  18.541  0.00  0.00    +0.000 A 
ATOM     16  C   UNL     1      -3.111  11.232  17.310  0.00  0.00    +0.000 A 
ATOM     17  C   UNL     1      -2.232  10.278  16.854  0.00  0.00    +0.000 A 
ATOM     18  C   UNL     1      -1.144   9.872  17.598  0.00  0.00    +0.000 A 
ATOM     19  O   UNL     1      -2.568   9.813  15.621  0.00  0.00    +0.000 OA
ATOM     20  C   UNL     1      -3.759  10.582  15.355  0.00  0.00    +0.000 C 
ATOM     21  O   UNL     1      -4.106  11.491  16.421  0.00  0.00    +0.000 OA
ENDBRANCH  12  13
ENDBRANCH  10  12
ENDBRANCH   1   9
BRANCH   6  22
ATOM     22  S   UNL     1       4.539   3.823  18.308  0.00  0.00    +0.000 S 
ATOM     23  O   UNL     1       4.565   3.198  17.000  0.00  0.00    +0.000 OA
ATOM     24  O   UNL     1       5.711   3.775  19.158  0.00  0.00    +0.000 OA
BRANCH  22  25
ATOM     25  N   UNL     1       3.213   3.160  19.171  0.00  0.00    +0.000 NA
ATOM     26  C   UNL     1       3.228   3.394  20.637  0.00  0.00    +0.000 C 
ATOM     27  C   UNL     1       2.125   2.614  21.345  0.00  0.00    +0.000 C 
ATOM     28  C   UNL     1       0.766   2.890  20.720  0.00  0.00    +0.000 C 
ATOM     29  C   UNL     1       0.806   2.504  19.250  0.00  0.00    +0.000 C 
ATOM     30  C   UNL     1       1.891   3.274  18.504  0.00  0.00    +0.000 C 
ENDBRANCH  22  25
ENDBRANCH   6  22
TORSDOF 5
ENDMDL
