MODEL 1
REMARK VINA RESULT:      -8.2      0.000      0.000
REMARK  Name = 
REMARK  4 active torsions:
REMARK  status: ('A' for Active; 'I' for Inactive)
REMARK    1  A    between atoms: C_2  and  C_3
REMARK    2  A    between atoms: C_3  and  C_4
REMARK    3  A    between atoms: N_13  and  C_14
REMARK    4  A    between atoms: C_21  and  C_22
REMARK                            x       y       z     vdW  Elec       q    Type
REMARK                         _______ _______ _______ _____ _____    ______ ____
ROOT
ATOM      1  C   UNL     1       2.371   7.495  18.069  0.00  0.00    +0.000 C 
ATOM      2  C   UNL     1       1.397   8.610  17.664  0.00  0.00    +0.000 C 
ATOM      3  C   UNL     1       1.353   9.741  18.685  0.00  0.00    +0.000 C 
ATOM      4  N   UNL     1       1.008   9.158  19.987  0.00  0.00    +0.000 N 
ATOM      5  C   UNL     1       0.509  10.099  20.897  0.00  0.00    +0.000 A 
ATOM      6  C   UNL     1      -0.300   9.672  21.951  0.00  0.00    +0.000 A 
ATOM      7  C   UNL     1      -0.996  10.614  22.716  0.00  0.00    +0.000 A 
ATOM      8  C   UNL     1      -0.856  11.970  22.423  0.00  0.00    +0.000 A 
ATOM      9  C   UNL     1       0.016  12.309  21.406  0.00  0.00    +0.000 A 
ATOM     10  N   UNL     1       0.688  11.412  20.650  0.00  0.00    +0.000 NA
ATOM     11  C   UNL     1       2.041   8.256  20.496  0.00  0.00    +0.000 C 
ATOM     12  C   UNL     1       2.137   7.068  19.532  0.00  0.00    +0.000 C 
ENDROOT
BRANCH   1  15
ATOM     13  O   UNL     1       5.924   7.568  17.284  0.00  0.00    +0.000 OA
ATOM     14  C   UNL     1       4.807   7.054  17.359  0.00  0.00    +0.000 C 
ATOM     15  N   UNL     1       3.776   7.844  17.820  0.00  0.00    +0.000 N 
ATOM     16  H   UNL     1       4.098   8.774  18.066  0.00  0.00    +0.000 HD
BRANCH  14  17
ATOM     17  C   UNL     1       4.482   5.647  16.888  0.00  0.00    +0.000 C 
BRANCH  17  18
ATOM     18  C   UNL     1       4.499   4.521  17.882  0.00  0.00    +0.000 A 
ATOM     19  C   UNL     1       5.528   3.987  18.632  0.00  0.00    +0.000 A 
ATOM     20  N   UNL     1       5.019   2.989  19.427  0.00  0.00    +0.000 N 
ATOM     21  C   UNL     1       3.670   2.842  19.203  0.00  0.00    +0.000 A 
ATOM     22  C   UNL     1       2.737   1.972  19.785  0.00  0.00    +0.000 A 
ATOM     23  C   UNL     1       1.406   2.071  19.361  0.00  0.00    +0.000 A 
ATOM     24  C   UNL     1       1.027   2.991  18.387  0.00  0.00    +0.000 A 
ATOM     25  C   UNL     1       1.975   3.840  17.810  0.00  0.00    +0.000 A 
ATOM     26  C   UNL     1       3.320   3.775  18.230  0.00  0.00    +0.000 A 
ATOM     27  H   UNL     1       5.552   2.451  20.097  0.00  0.00    +0.000 HD
ENDBRANCH  17  18
ENDBRANCH  14  17
ENDBRANCH   1  15
BRANCH   8  28
ATOM     28  C   UNL     1      -1.625  13.055  23.106  0.00  0.00    +0.000 C 
ATOM     29  F   UNL     1      -2.651  12.598  23.879  0.00  0.00    +0.000 F 
ATOM     30  F   UNL     1      -0.846  13.811  23.929  0.00  0.00    +0.000 F 
ATOM     31  F   UNL     1      -2.184  13.927  22.224  0.00  0.00    +0.000 F 
ENDBRANCH   8  28
TORSDOF 4
ENDMDL
MODEL 2
REMARK VINA RESULT:      -7.9      0.955      1.276
REMARK  Name = 
REMARK  4 active torsions:
REMARK  status: ('A' for Active; 'I' for Inactive)
REMARK    1  A    between atoms: C_2  and  C_3
REMARK    2  A    between atoms: C_3  and  C_4
REMARK    3  A    between atoms: N_13  and  C_14
REMARK    4  A    between atoms: C_21  and  C_22
REMARK                            x       y       z     vdW  Elec       q    Type
REMARK                         _______ _______ _______ _____ _____    ______ ____
ROOT
ATOM      1  C   UNL     1       2.008   7.740  18.119  0.00  0.00    +0.000 C 
ATOM      2  C   UNL     1       1.206   8.964  17.656  0.00  0.00    +0.000 C 
ATOM      3  C   UNL     1       1.349  10.145  18.610  0.00  0.00    +0.000 C 
ATOM      4  N   UNL     1       0.942   9.696  19.946  0.00  0.00    +0.000 N 
ATOM      5  C   UNL     1       0.605  10.751  20.803  0.00  0.00    +0.000 A 
ATOM      6  C   UNL     1      -0.241  10.513  21.887  0.00  0.00    +0.000 A 
ATOM      7  C   UNL     1      -0.776  11.592  22.600  0.00  0.00    +0.000 A 
ATOM      8  C   UNL     1      -0.438  12.891  22.226  0.00  0.00    +0.000 A 
ATOM      9  C   UNL     1       0.459  13.037  21.185  0.00  0.00    +0.000 A 
ATOM     10  N   UNL     1       0.975  12.006  20.477  0.00  0.00    +0.000 NA
ATOM     11  C   UNL     1       1.836   8.679  20.499  0.00  0.00    +0.000 C 
ATOM     12  C   UNL     1       1.737   7.437  19.607  0.00  0.00    +0.000 C 
ENDROOT
BRANCH   1  15
ATOM     13  O   UNL     1       5.536   7.220  17.393  0.00  0.00    +0.000 OA
ATOM     14  C   UNL     1       4.362   6.875  17.534  0.00  0.00    +0.000 C 
ATOM     15  N   UNL     1       3.445   7.858  17.840  0.00  0.00    +0.000 N 
ATOM     16  H   UNL     1       3.886   8.766  17.933  0.00  0.00    +0.000 HD
BRANCH  14  17
ATOM     17  C   UNL     1       3.854   5.463  17.299  0.00  0.00    +0.000 C 
BRANCH  17  18
ATOM     18  C   UNL     1       4.089   4.416  18.350  0.00  0.00    +0.000 A 
ATOM     19  C   UNL     1       5.236   3.741  18.718  0.00  0.00    +0.000 A 
ATOM     20  N   UNL     1       4.936   2.908  19.768  0.00  0.00    +0.000 N 
ATOM     21  C   UNL     1       3.602   3.009  20.092  0.00  0.00    +0.000 A 
ATOM     22  C   UNL     1       2.854   2.371  21.091  0.00  0.00    +0.000 A 
ATOM     23  C   UNL     1       1.497   2.699  21.193  0.00  0.00    +0.000 A 
ATOM     24  C   UNL     1       0.910   3.614  20.323  0.00  0.00    +0.000 A 
ATOM     25  C   UNL     1       1.670   4.230  19.326  0.00  0.00    +0.000 A 
ATOM     26  C   UNL     1       3.045   3.932  19.211  0.00  0.00    +0.000 A 
ATOM     27  H   UNL     1       5.600   2.319  20.251  0.00  0.00    +0.000 HD
ENDBRANCH  17  18
ENDBRANCH  14  17
ENDBRANCH   1  15
BRANCH   8  28
ATOM     28  C   UNL     1      -1.024  14.117  22.850  0.00  0.00    +0.000 C 
ATOM     29  F   UNL     1      -0.241  15.226  22.723  0.00  0.00    +0.000 F 
ATOM     30  F   UNL     1      -2.232  14.451  22.318  0.00  0.00    +0.000 F 
ATOM     31  F   UNL     1      -1.239  13.966  24.185  0.00  0.00    +0.000 F 
ENDBRANCH   8  28
TORSDOF 4
ENDMDL
MODEL 3
REMARK VINA RESULT:      -7.8      2.620      3.976
REMARK  Name = 
REMARK  4 active torsions:
REMARK  status: ('A' for Active; 'I' for Inactive)
REMARK    1  A    between atoms: C_2  and  C_3
REMARK    2  A    between atoms: C_3  and  C_4
REMARK    3  A    between atoms: N_13  and  C_14
REMARK    4  A    between atoms: C_21  and  C_22
REMARK                            x       y       z     vdW  Elec       q    Type
REMARK                         _______ _______ _______ _____ _____    ______ ____
ROOT
ATOM      1  C   UNL     1       3.543   6.292  18.280  0.00  0.00    +0.000 C 
ATOM      2  C   UNL     1       3.314   6.377  19.796  0.00  0.00    +0.000 C 
ATOM      3  C   UNL     1       1.977   7.020  20.145  0.00  0.00    +0.000 C 
ATOM      4  N   UNL     1       1.935   8.342  19.510  0.00  0.00    +0.000 N 
ATOM      5  C   UNL     1       0.992   9.202  20.089  0.00  0.00    +0.000 A 
ATOM      6  C   UNL     1       1.152  10.582  19.961  0.00  0.00    +0.000 A 
ATOM      7  C   UNL     1       0.364  11.445  20.731  0.00  0.00    +0.000 A 
ATOM      8  C   UNL     1      -0.583  10.911  21.603  0.00  0.00    +0.000 A 
ATOM      9  C   UNL     1      -0.722   9.536  21.619  0.00  0.00    +0.000 A 
ATOM     10  N   UNL     1       0.038   8.687  20.891  0.00  0.00    +0.000 NA
ATOM     11  C   UNL     1       1.926   8.270  18.049  0.00  0.00    +0.000 C 
ATOM     12  C   UNL     1       3.256   7.649  17.606  0.00  0.00    +0.000 C 
ENDROOT
BRANCH   1  15
ATOM     13  O   UNL     1       2.425   3.270  16.590  0.00  0.00    +0.000 OA
ATOM     14  C   UNL     1       3.252   4.010  17.123  0.00  0.00    +0.000 C 
ATOM     15  N   UNL     1       2.793   5.200  17.648  0.00  0.00    +0.000 N 
ATOM     16  H   UNL     1       1.797   5.316  17.497  0.00  0.00    +0.000 HD
BRANCH  14  17
ATOM     17  C   UNL     1       4.716   3.653  17.319  0.00  0.00    +0.000 C 
BRANCH  17  18
ATOM     18  C   UNL     1       5.763   4.413  16.557  0.00  0.00    +0.000 A 
ATOM     19  C   UNL     1       6.690   5.347  16.973  0.00  0.00    +0.000 A 
ATOM     20  N   UNL     1       7.453   5.719  15.893  0.00  0.00    +0.000 N 
ATOM     21  C   UNL     1       7.035   5.056  14.762  0.00  0.00    +0.000 A 
ATOM     22  C   UNL     1       7.517   5.101  13.447  0.00  0.00    +0.000 A 
ATOM     23  C   UNL     1       6.890   4.282  12.499  0.00  0.00    +0.000 A 
ATOM     24  C   UNL     1       5.819   3.464  12.849  0.00  0.00    +0.000 A 
ATOM     25  C   UNL     1       5.345   3.444  14.164  0.00  0.00    +0.000 A 
ATOM     26  C   UNL     1       5.969   4.245  15.144  0.00  0.00    +0.000 A 
ATOM     27  H   UNL     1       8.226   6.369  15.924  0.00  0.00    +0.000 HD
ENDBRANCH  17  18
ENDBRANCH  14  17
ENDBRANCH   1  15
BRANCH   8  28
ATOM     28  C   UNL     1      -1.408  11.730  22.542  0.00  0.00    +0.000 C 
ATOM     29  F   UNL     1      -1.990  11.004  23.538  0.00  0.00    +0.000 F 
ATOM     30  F   UNL     1      -0.685  12.703  23.163  0.00  0.00    +0.000 F 
ATOM     31  F   UNL     1      -2.426  12.375  21.910  0.00  0.00    +0.000 F 
ENDBRANCH   8  28
TORSDOF 4
ENDMDL
MODEL 4
REMARK VINA RESULT:      -7.7      2.057      3.812
REMARK  Name = 
REMARK  4 active torsions:
REMARK  status: ('A' for Active; 'I' for Inactive)
REMARK    1  A    between atoms: C_2  and  C_3
REMARK    2  A    between atoms: C_3  and  C_4
REMARK    3  A    between atoms: N_13  and  C_14
REMARK    4  A    between atoms: C_21  and  C_22
REMARK                            x       y       z     vdW  Elec       q    Type
REMARK                         _______ _______ _______ _____ _____    ______ ____
ROOT
ATOM      1  C   UNL     1       3.123   6.225  18.524  0.00  0.00    +0.000 C 
ATOM      2  C   UNL     1       2.980   6.460  20.035  0.00  0.00    +0.000 C 
ATOM      3  C   UNL     1       1.700   7.210  20.385  0.00  0.00    +0.000 C 
ATOM      4  N   UNL     1       1.696   8.469  19.632  0.00  0.00    +0.000 N 
ATOM      5  C   UNL     1       0.835   9.433  20.173  0.00  0.00    +0.000 A 
ATOM      6  C   UNL     1       1.062  10.784  19.909  0.00  0.00    +0.000 A 
ATOM      7  C   UNL     1       0.365  11.759  20.631  0.00  0.00    +0.000 A 
ATOM      8  C   UNL     1      -0.562  11.362  21.594  0.00  0.00    +0.000 A 
ATOM      9  C   UNL     1      -0.775  10.006  21.745  0.00  0.00    +0.000 A 
ATOM     10  N   UNL     1      -0.102   9.050  21.064  0.00  0.00    +0.000 NA
ATOM     11  C   UNL     1       1.606   8.266  18.187  0.00  0.00    +0.000 C 
ATOM     12  C   UNL     1       2.875   7.530  17.741  0.00  0.00    +0.000 C 
ENDROOT
BRANCH   1  15
ATOM     13  O   UNL     1       1.742   3.213  17.018  0.00  0.00    +0.000 OA
ATOM     14  C   UNL     1       2.646   3.966  17.383  0.00  0.00    +0.000 C 
ATOM     15  N   UNL     1       2.281   5.126  18.033  0.00  0.00    +0.000 N 
ATOM     16  H   UNL     1       1.274   5.214  18.105  0.00  0.00    +0.000 HD
BRANCH  14  17
ATOM     17  C   UNL     1       4.126   3.650  17.247  0.00  0.00    +0.000 C 
BRANCH  17  18
ATOM     18  C   UNL     1       5.060   4.721  16.760  0.00  0.00    +0.000 A 
ATOM     19  C   UNL     1       5.155   5.356  15.538  0.00  0.00    +0.000 A 
ATOM     20  N   UNL     1       6.154   6.295  15.608  0.00  0.00    +0.000 N 
ATOM     21  C   UNL     1       6.736   6.281  16.855  0.00  0.00    +0.000 A 
ATOM     22  C   UNL     1       7.770   7.061  17.389  0.00  0.00    +0.000 A 
ATOM     23  C   UNL     1       8.138   6.828  18.720  0.00  0.00    +0.000 A 
ATOM     24  C   UNL     1       7.506   5.846  19.479  0.00  0.00    +0.000 A 
ATOM     25  C   UNL     1       6.486   5.070  18.924  0.00  0.00    +0.000 A 
ATOM     26  C   UNL     1       6.083   5.296  17.591  0.00  0.00    +0.000 A 
ATOM     27  H   UNL     1       6.416   6.923  14.860  0.00  0.00    +0.000 HD
ENDBRANCH  17  18
ENDBRANCH  14  17
ENDBRANCH   1  15
BRANCH   8  28
ATOM     28  C   UNL     1      -1.290  12.311  22.491  0.00  0.00    +0.000 C 
ATOM     29  F   UNL     1      -2.273  13.016  21.863  0.00  0.00    +0.000 F 
ATOM     30  F   UNL     1      -1.892  11.685  23.540  0.00  0.00    +0.000 F 
ATOM     31  F   UNL     1      -0.462  13.240  23.043  0.00  0.00    +0.000 F 
ENDBRANCH   8  28
TORSDOF 4
ENDMDL
MODEL 5
REMARK VINA RESULT:      -7.7      1.887      3.212
REMARK  Name = 
REMARK  4 active torsions:
REMARK  status: ('A' for Active; 'I' for Inactive)
REMARK    1  A    between atoms: C_2  and  C_3
REMARK    2  A    between atoms: C_3  and  C_4
REMARK    3  A    between atoms: N_13  and  C_14
REMARK    4  A    between atoms: C_21  and  C_22
REMARK                            x       y       z     vdW  Elec       q    Type
REMARK                         _______ _______ _______ _____ _____    ______ ____
ROOT
ATOM      1  C   UNL     1       2.865   6.743  18.572  0.00  0.00    +0.000 C 
ATOM      2  C   UNL     1       2.602   6.897  20.077  0.00  0.00    +0.000 C 
ATOM      3  C   UNL     1       1.374   7.753  20.366  0.00  0.00    +0.000 C 
ATOM      4  N   UNL     1       1.566   9.050  19.709  0.00  0.00    +0.000 N 
ATOM      5  C   UNL     1       0.755  10.062  20.239  0.00  0.00    +0.000 A 
ATOM      6  C   UNL     1       1.138  11.396  20.093  0.00  0.00    +0.000 A 
ATOM      7  C   UNL     1       0.474  12.392  20.820  0.00  0.00    +0.000 A 
ATOM      8  C   UNL     1      -0.575  12.035  21.665  0.00  0.00    +0.000 A 
ATOM      9  C   UNL     1      -0.933  10.701  21.699  0.00  0.00    +0.000 A 
ATOM     10  N   UNL     1      -0.295   9.725  21.014  0.00  0.00    +0.000 NA
ATOM     11  C   UNL     1       1.594   8.948  18.250  0.00  0.00    +0.000 C 
ATOM     12  C   UNL     1       2.822   8.114  17.866  0.00  0.00    +0.000 C 
ENDROOT
BRANCH   1  15
ATOM     13  O   UNL     1       1.224   3.800  17.199  0.00  0.00    +0.000 OA
ATOM     14  C   UNL     1       2.085   4.400  17.843  0.00  0.00    +0.000 C 
ATOM     15  N   UNL     1       1.970   5.771  17.931  0.00  0.00    +0.000 N 
ATOM     16  H   UNL     1       1.170   6.114  17.412  0.00  0.00    +0.000 HD
BRANCH  14  17
ATOM     17  C   UNL     1       3.199   3.718  18.619  0.00  0.00    +0.000 C 
BRANCH  17  18
ATOM     18  C   UNL     1       4.617   4.166  18.407  0.00  0.00    +0.000 A 
ATOM     19  C   UNL     1       5.602   4.519  19.308  0.00  0.00    +0.000 A 
ATOM     20  N   UNL     1       6.748   4.816  18.612  0.00  0.00    +0.000 N 
ATOM     21  C   UNL     1       6.532   4.682  17.259  0.00  0.00    +0.000 A 
ATOM     22  C   UNL     1       7.401   4.863  16.174  0.00  0.00    +0.000 A 
ATOM     23  C   UNL     1       6.892   4.627  14.891  0.00  0.00    +0.000 A 
ATOM     24  C   UNL     1       5.568   4.242  14.701  0.00  0.00    +0.000 A 
ATOM     25  C   UNL     1       4.715   4.080  15.795  0.00  0.00    +0.000 A 
ATOM     26  C   UNL     1       5.205   4.293  17.101  0.00  0.00    +0.000 A 
ATOM     27  H   UNL     1       7.631   5.077  19.029  0.00  0.00    +0.000 HD
ENDBRANCH  17  18
ENDBRANCH  14  17
ENDBRANCH   1  15
BRANCH   8  28
ATOM     28  C   UNL     1      -1.288  12.996  22.560  0.00  0.00    +0.000 C 
ATOM     29  F   UNL     1      -1.998  12.395  23.557  0.00  0.00    +0.000 F 
ATOM     30  F   UNL     1      -0.441  13.866  23.177  0.00  0.00    +0.000 F 
ATOM     31  F   UNL     1      -2.181  13.769  21.884  0.00  0.00    +0.000 F 
ENDBRANCH   8  28
TORSDOF 4
ENDMDL
MODEL 6
REMARK VINA RESULT:      -7.6      5.454      9.683
REMARK  Name = 
REMARK  4 active torsions:
REMARK  status: ('A' for Active; 'I' for Inactive)
REMARK    1  A    between atoms: C_2  and  C_3
REMARK    2  A    between atoms: C_3  and  C_4
REMARK    3  A    between atoms: N_13  and  C_14
REMARK    4  A    between atoms: C_21  and  C_22
REMARK                            x       y       z     vdW  Elec       q    Type
REMARK                         _______ _______ _______ _____ _____    ______ ____
ROOT
ATOM      1  C   UNL     1      -1.267  12.480  19.452  0.00  0.00    +0.000 C 
ATOM      2  C   UNL     1      -1.702  11.009  19.506  0.00  0.00    +0.000 C 
ATOM      3  C   UNL     1      -0.564  10.084  19.925  0.00  0.00    +0.000 C 
ATOM      4  N   UNL     1       0.550  10.292  18.994  0.00  0.00    +0.000 N 
ATOM      5  C   UNL     1       1.463   9.229  18.981  0.00  0.00    +0.000 A 
ATOM      6  C   UNL     1       2.267   9.028  17.858  0.00  0.00    +0.000 A 
ATOM      7  C   UNL     1       2.999   7.842  17.733  0.00  0.00    +0.000 A 
ATOM      8  C   UNL     1       2.928   6.886  18.745  0.00  0.00    +0.000 A 
ATOM      9  C   UNL     1       2.161   7.194  19.853  0.00  0.00    +0.000 A 
ATOM     10  N   UNL     1       1.438   8.329  19.984  0.00  0.00    +0.000 NA
ATOM     11  C   UNL     1       1.126  11.633  19.090  0.00  0.00    +0.000 C 
ATOM     12  C   UNL     1       0.048  12.635  18.661  0.00  0.00    +0.000 C 
ENDROOT
BRANCH   1  15
ATOM     13  O   UNL     1      -1.747  14.383  22.517  0.00  0.00    +0.000 OA
ATOM     14  C   UNL     1      -2.071  13.944  21.413  0.00  0.00    +0.000 C 
ATOM     15  N   UNL     1      -1.181  13.102  20.780  0.00  0.00    +0.000 N 
ATOM     16  H   UNL     1      -0.336  12.971  21.325  0.00  0.00    +0.000 HD
BRANCH  14  17
ATOM     17  C   UNL     1      -3.418  14.194  20.757  0.00  0.00    +0.000 C 
BRANCH  17  18
ATOM     18  C   UNL     1      -4.566  13.279  21.072  0.00  0.00    +0.000 A 
ATOM     19  C   UNL     1      -5.239  13.040  22.253  0.00  0.00    +0.000 A 
ATOM     20  N   UNL     1      -6.246  12.139  22.010  0.00  0.00    +0.000 N 
ATOM     21  C   UNL     1      -6.241  11.764  20.685  0.00  0.00    +0.000 A 
ATOM     22  C   UNL     1      -7.081  10.890  19.981  0.00  0.00    +0.000 A 
ATOM     23  C   UNL     1      -6.839  10.723  18.612  0.00  0.00    +0.000 A 
ATOM     24  C   UNL     1      -5.794  11.390  17.978  0.00  0.00    +0.000 A 
ATOM     25  C   UNL     1      -4.960  12.247  18.701  0.00  0.00    +0.000 A 
ATOM     26  C   UNL     1      -5.192  12.448  20.079  0.00  0.00    +0.000 A 
ATOM     27  H   UNL     1      -6.912  11.811  22.696  0.00  0.00    +0.000 HD
ENDBRANCH  17  18
ENDBRANCH  14  17
ENDBRANCH   1  15
BRANCH   8  28
ATOM     28  C   UNL     1       3.587   5.546  18.674  0.00  0.00    +0.000 C 
ATOM     29  F   UNL     1       2.768   4.513  19.022  0.00  0.00    +0.000 F 
ATOM     30  F   UNL     1       4.046   5.253  17.425  0.00  0.00    +0.000 F 
ATOM     31  F   UNL     1       4.668   5.456  19.494  0.00  0.00    +0.000 F 
ENDBRANCH   8  28
TORSDOF 4
ENDMDL
MODEL 7
REMARK VINA RESULT:      -7.6      2.134      3.511
REMARK  Name = 
REMARK  4 active torsions:
REMARK  status: ('A' for Active; 'I' for Inactive)
REMARK    1  A    between atoms: C_2  and  C_3
REMARK    2  A    between atoms: C_3  and  C_4
REMARK    3  A    between atoms: N_13  and  C_14
REMARK    4  A    between atoms: C_21  and  C_22
REMARK                            x       y       z     vdW  Elec       q    Type
REMARK                         _______ _______ _______ _____ _____    ______ ____
ROOT
ATOM      1  C   UNL     1       2.785   6.755  18.727  0.00  0.00    +0.000 C 
ATOM      2  C   UNL     1       2.226   7.212  20.082  0.00  0.00    +0.000 C 
ATOM      3  C   UNL     1       1.063   8.186  19.930  0.00  0.00    +0.000 C 
ATOM      4  N   UNL     1       1.527   9.317  19.119  0.00  0.00    +0.000 N 
ATOM      5  C   UNL     1       0.734  10.463  19.267  0.00  0.00    +0.000 A 
ATOM      6  C   UNL     1       1.279  11.716  18.984  0.00  0.00    +0.000 A 
ATOM      7  C   UNL     1       0.585  12.874  19.356  0.00  0.00    +0.000 A 
ATOM      8  C   UNL     1      -0.652  12.755  19.988  0.00  0.00    +0.000 A 
ATOM      9  C   UNL     1      -1.149  11.479  20.169  0.00  0.00    +0.000 A 
ATOM     10  N   UNL     1      -0.487  10.350  19.827  0.00  0.00    +0.000 NA
ATOM     11  C   UNL     1       1.854   8.935  17.746  0.00  0.00    +0.000 C 
ATOM     12  C   UNL     1       3.039   7.964  17.804  0.00  0.00    +0.000 C 
ENDROOT
BRANCH   1  15
ATOM     13  O   UNL     1       1.316   3.731  17.333  0.00  0.00    +0.000 OA
ATOM     14  C   UNL     1       2.139   4.375  17.986  0.00  0.00    +0.000 C 
ATOM     15  N   UNL     1       1.950   5.738  18.077  0.00  0.00    +0.000 N 
ATOM     16  H   UNL     1       1.136   6.039  17.552  0.00  0.00    +0.000 HD
BRANCH  14  17
ATOM     17  C   UNL     1       3.282   3.753  18.768  0.00  0.00    +0.000 C 
BRANCH  17  18
ATOM     18  C   UNL     1       4.686   4.219  18.507  0.00  0.00    +0.000 A 
ATOM     19  C   UNL     1       5.687   4.616  19.372  0.00  0.00    +0.000 A 
ATOM     20  N   UNL     1       6.809   4.913  18.638  0.00  0.00    +0.000 N 
ATOM     21  C   UNL     1       6.562   4.734  17.296  0.00  0.00    +0.000 A 
ATOM     22  C   UNL     1       7.400   4.896  16.184  0.00  0.00    +0.000 A 
ATOM     23  C   UNL     1       6.864   4.613  14.922  0.00  0.00    +0.000 A 
ATOM     24  C   UNL     1       5.543   4.199  14.777  0.00  0.00    +0.000 A 
ATOM     25  C   UNL     1       4.720   4.055  15.897  0.00  0.00    +0.000 A 
ATOM     26  C   UNL     1       5.239   4.316  17.183  0.00  0.00    +0.000 A 
ATOM     27  H   UNL     1       7.697   5.201  19.024  0.00  0.00    +0.000 HD
ENDBRANCH  17  18
ENDBRANCH  14  17
ENDBRANCH   1  15
BRANCH   8  28
ATOM     28  C   UNL     1      -1.433  13.915  20.515  0.00  0.00    +0.000 C 
ATOM     29  F   UNL     1      -1.279  14.117  21.855  0.00  0.00    +0.000 F 
ATOM     30  F   UNL     1      -1.093  15.092  19.919  0.00  0.00    +0.000 F 
ATOM     31  F   UNL     1      -2.771  13.773  20.312  0.00  0.00    +0.000 F 
ENDBRANCH   8  28
TORSDOF 4
ENDMDL
MODEL 8
REMARK VINA RESULT:      -7.6      2.286      3.950
REMARK  Name = 
REMARK  4 active torsions:
REMARK  status: ('A' for Active; 'I' for Inactive)
REMARK    1  A    between atoms: C_2  and  C_3
REMARK    2  A    between atoms: C_3  and  C_4
REMARK    3  A    between atoms: N_13  and  C_14
REMARK    4  A    between atoms: C_21  and  C_22
REMARK                            x       y       z     vdW  Elec       q    Type
REMARK                         _______ _______ _______ _____ _____    ______ ____
ROOT
ATOM      1  C   UNL     1       2.822   6.403  19.035  0.00  0.00    +0.000 C 
ATOM      2  C   UNL     1       2.265   6.968  20.350  0.00  0.00    +0.000 C 
ATOM      3  C   UNL     1       1.119   7.947  20.120  0.00  0.00    +0.000 C 
ATOM      4  N   UNL     1       1.605   9.007  19.230  0.00  0.00    +0.000 N 
ATOM      5  C   UNL     1       0.831  10.173  19.288  0.00  0.00    +0.000 A 
ATOM      6  C   UNL     1       1.397  11.393  18.917  0.00  0.00    +0.000 A 
ATOM      7  C   UNL     1       0.721  12.586  19.198  0.00  0.00    +0.000 A 
ATOM      8  C   UNL     1      -0.520  12.534  19.831  0.00  0.00    +0.000 A 
ATOM      9  C   UNL     1      -1.039  11.283  20.103  0.00  0.00    +0.000 A 
ATOM     10  N   UNL     1      -0.394  10.122  19.850  0.00  0.00    +0.000 NA
ATOM     11  C   UNL     1       1.931   8.518  17.891  0.00  0.00    +0.000 C 
ATOM     12  C   UNL     1       3.099   7.535  18.026  0.00  0.00    +0.000 C 
ENDROOT
BRANCH   1  15
ATOM     13  O   UNL     1       1.426   3.490  17.358  0.00  0.00    +0.000 OA
ATOM     14  C   UNL     1       2.333   4.194  17.806  0.00  0.00    +0.000 C 
ATOM     15  N   UNL     1       1.972   5.354  18.458  0.00  0.00    +0.000 N 
ATOM     16  H   UNL     1       0.967   5.485  18.460  0.00  0.00    +0.000 HD
BRANCH  14  17
ATOM     17  C   UNL     1       3.804   3.816  17.768  0.00  0.00    +0.000 C 
BRANCH  17  18
ATOM     18  C   UNL     1       4.780   4.743  17.103  0.00  0.00    +0.000 A 
ATOM     19  C   UNL     1       4.840   5.224  15.810  0.00  0.00    +0.000 A 
ATOM     20  N   UNL     1       5.908   6.080  15.709  0.00  0.00    +0.000 N 
ATOM     21  C   UNL     1       6.569   6.162  16.914  0.00  0.00    +0.000 A 
ATOM     22  C   UNL     1       7.692   6.912  17.289  0.00  0.00    +0.000 A 
ATOM     23  C   UNL     1       8.129   6.805  18.616  0.00  0.00    +0.000 A 
ATOM     24  C   UNL     1       7.479   5.971  19.522  0.00  0.00    +0.000 A 
ATOM     25  C   UNL     1       6.369   5.222  19.124  0.00  0.00    +0.000 A 
ATOM     26  C   UNL     1       5.896   5.325  17.799  0.00  0.00    +0.000 A 
ATOM     27  H   UNL     1       6.165   6.594  14.878  0.00  0.00    +0.000 HD
ENDBRANCH  17  18
ENDBRANCH  14  17
ENDBRANCH   1  15
BRANCH   8  28
ATOM     28  C   UNL     1      -1.284  13.743  20.267  0.00  0.00    +0.000 C 
ATOM     29  F   UNL     1      -2.636  13.602  20.170  0.00  0.00    +0.000 F 
ATOM     30  F   UNL     1      -1.036  14.081  21.563  0.00  0.00    +0.000 F 
ATOM     31  F   UNL     1      -0.972  14.846  19.533  0.00  0.00    +0.000 F 
ENDBRANCH   8  28
TORSDOF 4
ENDMDL
MODEL 9
REMARK VINA RESULT:      -7.5      3.005      4.482
REMARK  Name = 
REMARK  4 active torsions:
REMARK  status: ('A' for Active; 'I' for Inactive)
REMARK    1  A    between atoms: C_2  and  C_3
REMARK    2  A    between atoms: C_3  and  C_4
REMARK    3  A    between atoms: N_13  and  C_14
REMARK    4  A    between atoms: C_21  and  C_22
REMARK                            x       y       z     vdW  Elec       q    Type
REMARK                         _______ _______ _______ _____ _____    ______ ____
ROOT
ATOM      1  C   UNL     1       2.523   4.998  19.216  0.00  0.00    +0.000 C 
ATOM      2  C   UNL     1       2.351   5.837  17.942  0.00  0.00    +0.000 C 
ATOM      3  C   UNL     1       2.540   7.327  18.200  0.00  0.00    +0.000 C 
ATOM      4  N   UNL     1       1.595   7.725  19.250  0.00  0.00    +0.000 N 
ATOM      5  C   UNL     1       1.349   9.104  19.276  0.00  0.00    +0.000 A 
ATOM      6  C   UNL     1       0.164   9.579  19.839  0.00  0.00    +0.000 A 
ATOM      7  C   UNL     1      -0.204  10.917  19.655  0.00  0.00    +0.000 A 
ATOM      8  C   UNL     1       0.633  11.760  18.926  0.00  0.00    +0.000 A 
ATOM      9  C   UNL     1       1.819  11.226  18.460  0.00  0.00    +0.000 A 
ATOM     10  N   UNL     1       2.184   9.933  18.619  0.00  0.00    +0.000 NA
ATOM     11  C   UNL     1       1.885   7.100  20.540  0.00  0.00    +0.000 C 
ATOM     12  C   UNL     1       1.696   5.587  20.377  0.00  0.00    +0.000 C 
ENDROOT
BRANCH   1  15
ATOM     13  O   UNL     1       6.090   4.292  19.371  0.00  0.00    +0.000 OA
ATOM     14  C   UNL     1       5.004   4.440  18.809  0.00  0.00    +0.000 C 
ATOM     15  N   UNL     1       3.930   4.808  19.591  0.00  0.00    +0.000 N 
ATOM     16  H   UNL     1       4.189   4.888  20.568  0.00  0.00    +0.000 HD
BRANCH  14  17
ATOM     17  C   UNL     1       4.800   4.336  17.307  0.00  0.00    +0.000 C 
BRANCH  17  18
ATOM     18  C   UNL     1       5.869   4.848  16.386  0.00  0.00    +0.000 A 
ATOM     19  C   UNL     1       6.930   5.702  16.613  0.00  0.00    +0.000 A 
ATOM     20  N   UNL     1       7.649   5.828  15.449  0.00  0.00    +0.000 N 
ATOM     21  C   UNL     1       7.070   5.082  14.448  0.00  0.00    +0.000 A 
ATOM     22  C   UNL     1       7.453   4.893  13.113  0.00  0.00    +0.000 A 
ATOM     23  C   UNL     1       6.664   4.044  12.327  0.00  0.00    +0.000 A 
ATOM     24  C   UNL     1       5.532   3.424  12.850  0.00  0.00    +0.000 A 
ATOM     25  C   UNL     1       5.160   3.636  14.180  0.00  0.00    +0.000 A 
ATOM     26  C   UNL     1       5.947   4.472  15.000  0.00  0.00    +0.000 A 
ATOM     27  H   UNL     1       8.493   6.373  15.343  0.00  0.00    +0.000 HD
ENDBRANCH  17  18
ENDBRANCH  14  17
ENDBRANCH   1  15
BRANCH   8  28
ATOM     28  C   UNL     1       0.296  13.176  18.584  0.00  0.00    +0.000 C 
ATOM     29  F   UNL     1       1.332  13.869  18.032  0.00  0.00    +0.000 F 
ATOM     30  F   UNL     1      -0.732  13.271  17.694  0.00  0.00    +0.000 F 
ATOM     31  F   UNL     1      -0.092  13.894  19.672  0.00  0.00    +0.000 F 
ENDBRANCH   8  28
TORSDOF 4
ENDMDL
