MODEL 1
REMARK VINA RESULT:      -9.4      0.000      0.000
REMARK  Name = 
REMARK  3 active torsions:
REMARK  status: ('A' for Active; 'I' for Inactive)
REMARK    1  A    between atoms: C_2  and  C_15
REMARK    2  A    between atoms: N_3  and  C_4
REMARK    3  A    between atoms: N_17  and  C_18
REMARK                            x       y       z     vdW  Elec       q    Type
REMARK                         _______ _______ _______ _____ _____    ______ ____
ROOT
ATOM      1  O   UNL     1       1.110   7.538  21.271  0.00  0.00    +0.000 OA
ATOM      2  C   UNL     1       1.607   7.663  20.147  0.00  0.00    +0.000 C 
ATOM      3  N   UNL     1       1.430   8.771  19.327  0.00  0.00    +0.000 N 
ATOM      4  H   UNL     1       1.727   8.673  18.361  0.00  0.00    +0.000 HD
ENDROOT
BRANCH   3   5
ATOM      5  C   UNL     1       0.653   9.900  19.698  0.00  0.00    +0.000 A 
ATOM      6  C   UNL     1       0.956  10.650  20.843  0.00  0.00    +0.000 A 
ATOM      7  C   UNL     1       0.121  11.674  21.282  0.00  0.00    +0.000 A 
ATOM      8  C   UNL     1      -1.031  11.999  20.569  0.00  0.00    +0.000 A 
ATOM      9  C   UNL     1      -1.341  11.280  19.398  0.00  0.00    +0.000 A 
ATOM     10  C   UNL     1      -0.474  10.266  18.953  0.00  0.00    +0.000 A 
ATOM     11  F   UNL     1      -0.766   9.597  17.825  0.00  0.00    +0.000 F 
ATOM     12  C   UNL     1      -2.601  11.626  18.641  0.00  0.00    +0.000 C 
ATOM     13  C   UNL     1      -3.592  12.428  19.502  0.00  0.00    +0.000 C 
ATOM     14  N   UNL     1      -2.926  13.555  20.159  0.00  0.00    +0.000 NA
ATOM     15  C   UNL     1      -1.947  13.058  21.127  0.00  0.00    +0.000 C 
ATOM     16  H   UNL     1      -3.612  14.120  20.656  0.00  0.00    +0.000 HD
ENDBRANCH   3   5
BRANCH   2  17
ATOM     17  C   UNL     1       2.391   6.551  19.610  0.00  0.00    +0.000 A 
ATOM     18  N   UNL     1       3.503   6.659  18.842  0.00  0.00    +0.000 NA
ATOM     19  N   UNL     1       3.885   5.353  18.584  0.00  0.00    +0.000 N 
ATOM     20  C   UNL     1       3.046   4.484  19.214  0.00  0.00    +0.000 A 
ATOM     21  C   UNL     1       2.106   5.206  19.868  0.00  0.00    +0.000 A 
ATOM     22  C   UNL     1       1.190   4.357  20.650  0.00  0.00    +0.000 C 
ATOM     23  C   UNL     1       1.973   3.001  20.675  0.00  0.00    +0.000 C 
ATOM     24  C   UNL     1       2.976   3.033  19.475  0.00  0.00    +0.000 C 
BRANCH  19  25
ATOM     25  C   UNL     1       5.024   5.050  17.808  0.00  0.00    +0.000 A 
ATOM     26  C   UNL     1       4.882   4.739  16.449  0.00  0.00    +0.000 A 
ATOM     27  C   UNL     1       6.019   4.481  15.677  0.00  0.00    +0.000 A 
ATOM     28  C   UNL     1       7.288   4.495  16.259  0.00  0.00    +0.000 A 
ATOM     29  C   UNL     1       7.426   4.775  17.613  0.00  0.00    +0.000 A 
ATOM     30  C   UNL     1       6.300   5.060  18.375  0.00  0.00    +0.000 A 
ATOM     31  F   UNL     1       6.495   5.255  19.684  0.00  0.00    +0.000 F 
ENDBRANCH  19  25
ENDBRANCH   2  17
TORSDOF 3
ENDMDL
MODEL 2
REMARK VINA RESULT:      -9.2      1.283      1.466
REMARK  Name = 
REMARK  3 active torsions:
REMARK  status: ('A' for Active; 'I' for Inactive)
REMARK    1  A    between atoms: C_2  and  C_15
REMARK    2  A    between atoms: N_3  and  C_4
REMARK    3  A    between atoms: N_17  and  C_18
REMARK                            x       y       z     vdW  Elec       q    Type
REMARK                         _______ _______ _______ _____ _____    ______ ____
ROOT
ATOM      1  O   UNL     1       0.228   6.363  20.804  0.00  0.00    +0.000 OA
ATOM      2  C   UNL     1       1.393   6.739  20.639  0.00  0.00    +0.000 C 
ATOM      3  N   UNL     1       1.846   8.029  20.891  0.00  0.00    +0.000 N 
ATOM      4  H   UNL     1       2.769   8.263  20.538  0.00  0.00    +0.000 HD
ENDROOT
BRANCH   3   5
ATOM      5  C   UNL     1       1.011   9.068  21.379  0.00  0.00    +0.000 A 
ATOM      6  C   UNL     1       0.640   9.133  22.729  0.00  0.00    +0.000 A 
ATOM      7  C   UNL     1      -0.282  10.071  23.184  0.00  0.00    +0.000 A 
ATOM      8  C   UNL     1      -0.841  10.996  22.304  0.00  0.00    +0.000 A 
ATOM      9  C   UNL     1      -0.461  10.970  20.948  0.00  0.00    +0.000 A 
ATOM     10  C   UNL     1       0.492  10.033  20.508  0.00  0.00    +0.000 A 
ATOM     11  F   UNL     1       0.864  10.027  19.218  0.00  0.00    +0.000 F 
ATOM     12  C   UNL     1      -1.084  11.963  19.997  0.00  0.00    +0.000 C 
ATOM     13  C   UNL     1      -2.374  12.578  20.565  0.00  0.00    +0.000 C 
ATOM     14  N   UNL     1      -2.167  13.065  21.931  0.00  0.00    +0.000 NA
ATOM     15  C   UNL     1      -1.896  11.937  22.824  0.00  0.00    +0.000 C 
ATOM     16  H   UNL     1      -3.005  13.541  22.259  0.00  0.00    +0.000 HD
ENDBRANCH   3   5
BRANCH   2  17
ATOM     17  C   UNL     1       2.356   5.787  20.088  0.00  0.00    +0.000 A 
ATOM     18  N   UNL     1       3.318   6.065  19.173  0.00  0.00    +0.000 NA
ATOM     19  N   UNL     1       3.971   4.862  18.967  0.00  0.00    +0.000 N 
ATOM     20  C   UNL     1       3.441   3.894  19.768  0.00  0.00    +0.000 A 
ATOM     21  C   UNL     1       2.433   4.447  20.484  0.00  0.00    +0.000 A 
ATOM     22  C   UNL     1       1.841   3.498  21.443  0.00  0.00    +0.000 C 
ATOM     23  C   UNL     1       2.924   2.367  21.466  0.00  0.00    +0.000 C 
ATOM     24  C   UNL     1       3.750   2.502  20.144  0.00  0.00    +0.000 C 
BRANCH  19  25
ATOM     25  C   UNL     1       5.055   4.747  18.072  0.00  0.00    +0.000 A 
ATOM     26  C   UNL     1       4.832   4.338  16.750  0.00  0.00    +0.000 A 
ATOM     27  C   UNL     1       5.906   4.268  15.857  0.00  0.00    +0.000 A 
ATOM     28  C   UNL     1       7.201   4.566  16.285  0.00  0.00    +0.000 A 
ATOM     29  C   UNL     1       7.427   4.943  17.603  0.00  0.00    +0.000 A 
ATOM     30  C   UNL     1       6.357   5.041  18.484  0.00  0.00    +0.000 A 
ATOM     31  F   UNL     1       6.651   5.344  19.753  0.00  0.00    +0.000 F 
ENDBRANCH  19  25
ENDBRANCH   2  17
TORSDOF 3
ENDMDL
MODEL 3
REMARK VINA RESULT:      -9.2      1.523      1.896
REMARK  Name = 
REMARK  3 active torsions:
REMARK  status: ('A' for Active; 'I' for Inactive)
REMARK    1  A    between atoms: C_2  and  C_15
REMARK    2  A    between atoms: N_3  and  C_4
REMARK    3  A    between atoms: N_17  and  C_18
REMARK                            x       y       z     vdW  Elec       q    Type
REMARK                         _______ _______ _______ _____ _____    ______ ____
ROOT
ATOM      1  O   UNL     1       0.179   6.458  20.840  0.00  0.00    +0.000 OA
ATOM      2  C   UNL     1       1.350   6.832  20.723  0.00  0.00    +0.000 C 
ATOM      3  N   UNL     1       1.796   8.119  20.998  0.00  0.00    +0.000 N 
ATOM      4  H   UNL     1       2.733   8.352  20.683  0.00  0.00    +0.000 HD
ENDROOT
BRANCH   3   5
ATOM      5  C   UNL     1       0.944   9.160  21.454  0.00  0.00    +0.000 A 
ATOM      6  C   UNL     1       0.502   9.211  22.783  0.00  0.00    +0.000 A 
ATOM      7  C   UNL     1      -0.436  10.150  23.200  0.00  0.00    +0.000 A 
ATOM      8  C   UNL     1      -0.940  11.091  22.304  0.00  0.00    +0.000 A 
ATOM      9  C   UNL     1      -0.488  11.079  20.969  0.00  0.00    +0.000 A 
ATOM     10  C   UNL     1       0.480  10.140  20.569  0.00  0.00    +0.000 A 
ATOM     11  F   UNL     1       0.921  10.148  19.301  0.00  0.00    +0.000 F 
ATOM     12  C   UNL     1      -1.051  12.089  19.999  0.00  0.00    +0.000 C 
ATOM     13  C   UNL     1      -2.365  12.708  20.506  0.00  0.00    +0.000 C 
ATOM     14  N   UNL     1      -2.227  13.176  21.887  0.00  0.00    +0.000 NA
ATOM     15  C   UNL     1      -2.014  12.035  22.778  0.00  0.00    +0.000 C 
ATOM     16  H   UNL     1      -3.078  13.655  22.176  0.00  0.00    +0.000 HD
ENDBRANCH   3   5
BRANCH   2  17
ATOM     17  C   UNL     1       2.333   5.878  20.210  0.00  0.00    +0.000 A 
ATOM     18  N   UNL     1       3.371   6.169  19.387  0.00  0.00    +0.000 NA
ATOM     19  N   UNL     1       4.012   4.959  19.182  0.00  0.00    +0.000 N 
ATOM     20  C   UNL     1       3.398   3.973  19.895  0.00  0.00    +0.000 A 
ATOM     21  C   UNL     1       2.348   4.522  20.552  0.00  0.00    +0.000 A 
ATOM     22  C   UNL     1       1.660   3.549  21.419  0.00  0.00    +0.000 C 
ATOM     23  C   UNL     1       2.712   2.391  21.479  0.00  0.00    +0.000 C 
ATOM     24  C   UNL     1       3.644   2.559  20.234  0.00  0.00    +0.000 C 
BRANCH  19  25
ATOM     25  C   UNL     1       5.161   4.854  18.371  0.00  0.00    +0.000 A 
ATOM     26  C   UNL     1       6.405   5.275  18.860  0.00  0.00    +0.000 A 
ATOM     27  C   UNL     1       7.546   5.129  18.065  0.00  0.00    +0.000 A 
ATOM     28  C   UNL     1       7.447   4.601  16.777  0.00  0.00    +0.000 A 
ATOM     29  C   UNL     1       6.210   4.211  16.280  0.00  0.00    +0.000 A 
ATOM     30  C   UNL     1       5.079   4.329  17.079  0.00  0.00    +0.000 A 
ATOM     31  F   UNL     1       3.911   3.998  16.518  0.00  0.00    +0.000 F 
ENDBRANCH  19  25
ENDBRANCH   2  17
TORSDOF 3
ENDMDL
MODEL 4
REMARK VINA RESULT:      -9.2      1.385      1.607
REMARK  Name = 
REMARK  3 active torsions:
REMARK  status: ('A' for Active; 'I' for Inactive)
REMARK    1  A    between atoms: C_2  and  C_15
REMARK    2  A    between atoms: N_3  and  C_4
REMARK    3  A    between atoms: N_17  and  C_18
REMARK                            x       y       z     vdW  Elec       q    Type
REMARK                         _______ _______ _______ _____ _____    ______ ____
ROOT
ATOM      1  O   UNL     1       1.445   6.166  21.214  0.00  0.00    +0.000 OA
ATOM      2  C   UNL     1       1.860   6.663  20.163  0.00  0.00    +0.000 C 
ATOM      3  N   UNL     1       1.696   7.996  19.803  0.00  0.00    +0.000 N 
ATOM      4  H   UNL     1       1.910   8.236  18.840  0.00  0.00    +0.000 HD
ENDROOT
BRANCH   3   5
ATOM      5  C   UNL     1       1.027   8.947  20.617  0.00  0.00    +0.000 A 
ATOM      6  C   UNL     1       1.003   8.824  22.014  0.00  0.00    +0.000 A 
ATOM      7  C   UNL     1       0.240   9.677  22.805  0.00  0.00    +0.000 A 
ATOM      8  C   UNL     1      -0.502  10.703  22.224  0.00  0.00    +0.000 A 
ATOM      9  C   UNL     1      -0.471  10.867  20.825  0.00  0.00    +0.000 A 
ATOM     10  C   UNL     1       0.326  10.012  20.041  0.00  0.00    +0.000 A 
ATOM     11  F   UNL     1       0.366  10.187  18.710  0.00  0.00    +0.000 F 
ATOM     12  C   UNL     1      -1.292  11.969  20.200  0.00  0.00    +0.000 C 
ATOM     13  C   UNL     1      -2.389  12.482  21.148  0.00  0.00    +0.000 C 
ATOM     14  N   UNL     1      -1.841  12.783  22.473  0.00  0.00    +0.000 NA
ATOM     15  C   UNL     1      -1.379  11.549  23.110  0.00  0.00    +0.000 C 
ATOM     16  H   UNL     1      -2.563  13.197  23.059  0.00  0.00    +0.000 HD
ENDBRANCH   3   5
BRANCH   2  17
ATOM     17  C   UNL     1       2.524   5.787  19.198  0.00  0.00    +0.000 A 
ATOM     18  N   UNL     1       3.685   6.052  18.549  0.00  0.00    +0.000 NA
ATOM     19  N   UNL     1       3.910   4.941  17.755  0.00  0.00    +0.000 N 
ATOM     20  C   UNL     1       2.929   4.014  17.952  0.00  0.00    +0.000 A 
ATOM     21  C   UNL     1       2.053   4.516  18.854  0.00  0.00    +0.000 A 
ATOM     22  C   UNL     1       0.990   3.554  19.197  0.00  0.00    +0.000 C 
ATOM     23  C   UNL     1       1.588   2.221  18.635  0.00  0.00    +0.000 C 
ATOM     24  C   UNL     1       2.656   2.618  17.563  0.00  0.00    +0.000 C 
BRANCH  19  25
ATOM     25  C   UNL     1       5.043   4.838  16.921  0.00  0.00    +0.000 A 
ATOM     26  C   UNL     1       4.892   4.862  15.527  0.00  0.00    +0.000 A 
ATOM     27  C   UNL     1       6.025   4.803  14.709  0.00  0.00    +0.000 A 
ATOM     28  C   UNL     1       7.298   4.682  15.270  0.00  0.00    +0.000 A 
ATOM     29  C   UNL     1       7.445   4.628  16.650  0.00  0.00    +0.000 A 
ATOM     30  C   UNL     1       6.323   4.717  17.466  0.00  0.00    +0.000 A 
ATOM     31  F   UNL     1       6.528   4.592  18.782  0.00  0.00    +0.000 F 
ENDBRANCH  19  25
ENDBRANCH   2  17
TORSDOF 3
ENDMDL
MODEL 5
REMARK VINA RESULT:      -9.1      0.992      1.267
REMARK  Name = 
REMARK  3 active torsions:
REMARK  status: ('A' for Active; 'I' for Inactive)
REMARK    1  A    between atoms: C_2  and  C_15
REMARK    2  A    between atoms: N_3  and  C_4
REMARK    3  A    between atoms: N_17  and  C_18
REMARK                            x       y       z     vdW  Elec       q    Type
REMARK                         _______ _______ _______ _____ _____    ______ ____
ROOT
ATOM      1  O   UNL     1       1.176   7.714  21.216  0.00  0.00    +0.000 OA
ATOM      2  C   UNL     1       1.640   7.842  20.079  0.00  0.00    +0.000 C 
ATOM      3  N   UNL     1       1.403   8.932  19.250  0.00  0.00    +0.000 N 
ATOM      4  H   UNL     1       1.680   8.832  18.278  0.00  0.00    +0.000 HD
ENDROOT
BRANCH   3   5
ATOM      5  C   UNL     1       0.595  10.037  19.626  0.00  0.00    +0.000 A 
ATOM      6  C   UNL     1       0.903  10.818  20.749  0.00  0.00    +0.000 A 
ATOM      7  C   UNL     1       0.043  11.816  21.196  0.00  0.00    +0.000 A 
ATOM      8  C   UNL     1      -1.142  12.085  20.514  0.00  0.00    +0.000 A 
ATOM      9  C   UNL     1      -1.460  11.334  19.366  0.00  0.00    +0.000 A 
ATOM     10  C   UNL     1      -0.568  10.346  18.911  0.00  0.00    +0.000 A 
ATOM     11  F   UNL     1      -0.868   9.647  17.804  0.00  0.00    +0.000 F 
ATOM     12  C   UNL     1      -2.754  11.618  18.643  0.00  0.00    +0.000 C 
ATOM     13  C   UNL     1      -3.749  12.396  19.520  0.00  0.00    +0.000 C 
ATOM     14  N   UNL     1      -3.108  13.560  20.137  0.00  0.00    +0.000 NA
ATOM     15  C   UNL     1      -2.082  13.117  21.082  0.00  0.00    +0.000 C 
ATOM     16  H   UNL     1      -3.800  14.106  20.646  0.00  0.00    +0.000 HD
ENDBRANCH   3   5
BRANCH   2  17
ATOM     17  C   UNL     1       2.452   6.753  19.536  0.00  0.00    +0.000 A 
ATOM     18  N   UNL     1       3.419   6.874  18.594  0.00  0.00    +0.000 NA
ATOM     19  N   UNL     1       3.898   5.588  18.409  0.00  0.00    +0.000 N 
ATOM     20  C   UNL     1       3.261   4.722  19.248  0.00  0.00    +0.000 A 
ATOM     21  C   UNL     1       2.356   5.426  19.969  0.00  0.00    +0.000 A 
ATOM     22  C   UNL     1       1.664   4.592  20.967  0.00  0.00    +0.000 C 
ATOM     23  C   UNL     1       2.584   3.325  21.000  0.00  0.00    +0.000 C 
ATOM     24  C   UNL     1       3.388   3.311  19.658  0.00  0.00    +0.000 C 
BRANCH  19  25
ATOM     25  C   UNL     1       4.934   5.303  17.495  0.00  0.00    +0.000 A 
ATOM     26  C   UNL     1       6.144   6.007  17.566  0.00  0.00    +0.000 A 
ATOM     27  C   UNL     1       7.181   5.689  16.682  0.00  0.00    +0.000 A 
ATOM     28  C   UNL     1       7.004   4.704  15.709  0.00  0.00    +0.000 A 
ATOM     29  C   UNL     1       5.794   4.027  15.619  0.00  0.00    +0.000 A 
ATOM     30  C   UNL     1       4.773   4.321  16.515  0.00  0.00    +0.000 A 
ATOM     31  F   UNL     1       3.612   3.681  16.332  0.00  0.00    +0.000 F 
ENDBRANCH  19  25
ENDBRANCH   2  17
TORSDOF 3
ENDMDL
MODEL 6
REMARK VINA RESULT:      -9.0      1.165      1.275
REMARK  Name = 
REMARK  3 active torsions:
REMARK  status: ('A' for Active; 'I' for Inactive)
REMARK    1  A    between atoms: C_2  and  C_15
REMARK    2  A    between atoms: N_3  and  C_4
REMARK    3  A    between atoms: N_17  and  C_18
REMARK                            x       y       z     vdW  Elec       q    Type
REMARK                         _______ _______ _______ _____ _____    ______ ____
ROOT
ATOM      1  O   UNL     1       1.873   9.648  17.583  0.00  0.00    +0.000 OA
ATOM      2  C   UNL     1       1.835   8.880  18.550  0.00  0.00    +0.000 C 
ATOM      3  N   UNL     1       1.160   9.141  19.737  0.00  0.00    +0.000 N 
ATOM      4  H   UNL     1       1.362   8.525  20.519  0.00  0.00    +0.000 HD
ENDROOT
BRANCH   3   5
ATOM      5  C   UNL     1       0.425  10.332  19.971  0.00  0.00    +0.000 A 
ATOM      6  C   UNL     1       0.889  11.313  20.858  0.00  0.00    +0.000 A 
ATOM      7  C   UNL     1       0.110  12.418  21.190  0.00  0.00    +0.000 A 
ATOM      8  C   UNL     1      -1.149  12.592  20.620  0.00  0.00    +0.000 A 
ATOM      9  C   UNL     1      -1.625  11.635  19.702  0.00  0.00    +0.000 A 
ATOM     10  C   UNL     1      -0.816  10.537  19.356  0.00  0.00    +0.000 A 
ATOM     11  F   UNL     1      -1.268   9.639  18.466  0.00  0.00    +0.000 F 
ATOM     12  C   UNL     1      -2.998  11.819  19.101  0.00  0.00    +0.000 C 
ATOM     13  C   UNL     1      -3.858  12.802  19.914  0.00  0.00    +0.000 C 
ATOM     14  N   UNL     1      -3.123  14.039  20.189  0.00  0.00    +0.000 NA
ATOM     15  C   UNL     1      -1.990  13.757  21.071  0.00  0.00    +0.000 C 
ATOM     16  H   UNL     1      -3.735  14.708  20.655  0.00  0.00    +0.000 HD
ENDBRANCH   3   5
BRANCH   2  17
ATOM     17  C   UNL     1       2.594   7.632  18.472  0.00  0.00    +0.000 A 
ATOM     18  N   UNL     1       3.644   7.389  17.649  0.00  0.00    +0.000 NA
ATOM     19  N   UNL     1       4.026   6.089  17.936  0.00  0.00    +0.000 N 
ATOM     20  C   UNL     1       3.251   5.579  18.934  0.00  0.00    +0.000 A 
ATOM     21  C   UNL     1       2.351   6.526  19.293  0.00  0.00    +0.000 A 
ATOM     22  C   UNL     1       1.511   6.099  20.426  0.00  0.00    +0.000 C 
ATOM     23  C   UNL     1       2.315   4.866  20.959  0.00  0.00    +0.000 C 
ATOM     24  C   UNL     1       3.224   4.374  19.784  0.00  0.00    +0.000 C 
BRANCH  19  25
ATOM     25  C   UNL     1       5.108   5.468  17.275  0.00  0.00    +0.000 A 
ATOM     26  C   UNL     1       4.979   5.077  15.936  0.00  0.00    +0.000 A 
ATOM     27  C   UNL     1       6.069   4.501  15.276  0.00  0.00    +0.000 A 
ATOM     28  C   UNL     1       7.269   4.280  15.954  0.00  0.00    +0.000 A 
ATOM     29  C   UNL     1       7.388   4.640  17.291  0.00  0.00    +0.000 A 
ATOM     30  C   UNL     1       6.315   5.240  17.939  0.00  0.00    +0.000 A 
ATOM     31  F   UNL     1       6.472   5.501  19.242  0.00  0.00    +0.000 F 
ENDBRANCH  19  25
ENDBRANCH   2  17
TORSDOF 3
ENDMDL
MODEL 7
REMARK VINA RESULT:      -9.0      2.504      9.291
REMARK  Name = 
REMARK  3 active torsions:
REMARK  status: ('A' for Active; 'I' for Inactive)
REMARK    1  A    between atoms: C_2  and  C_15
REMARK    2  A    between atoms: N_3  and  C_4
REMARK    3  A    between atoms: N_17  and  C_18
REMARK                            x       y       z     vdW  Elec       q    Type
REMARK                         _______ _______ _______ _____ _____    ______ ____
ROOT
ATOM      1  O   UNL     1       1.901   9.204  17.289  0.00  0.00    +0.000 OA
ATOM      2  C   UNL     1       1.658   9.195  18.500  0.00  0.00    +0.000 C 
ATOM      3  N   UNL     1       1.960   8.143  19.356  0.00  0.00    +0.000 N 
ATOM      4  H   UNL     1       1.542   8.176  20.281  0.00  0.00    +0.000 HD
ENDROOT
BRANCH   3   5
ATOM      5  C   UNL     1       2.594   6.947  18.929  0.00  0.00    +0.000 A 
ATOM      6  C   UNL     1       3.538   6.951  17.892  0.00  0.00    +0.000 A 
ATOM      7  C   UNL     1       4.062   5.767  17.382  0.00  0.00    +0.000 A 
ATOM      8  C   UNL     1       3.679   4.538  17.916  0.00  0.00    +0.000 A 
ATOM      9  C   UNL     1       2.755   4.509  18.979  0.00  0.00    +0.000 A 
ATOM     10  C   UNL     1       2.254   5.715  19.501  0.00  0.00    +0.000 A 
ATOM     11  F   UNL     1       1.388   5.681  20.527  0.00  0.00    +0.000 F 
ATOM     12  C   UNL     1       2.331   3.173  19.541  0.00  0.00    +0.000 C 
ATOM     13  C   UNL     1       2.641   2.015  18.578  0.00  0.00    +0.000 C 
ATOM     14  N   UNL     1       4.025   2.084  18.102  0.00  0.00    +0.000 NA
ATOM     15  C   UNL     1       4.208   3.280  17.279  0.00  0.00    +0.000 C 
ATOM     16  H   UNL     1       4.236   1.266  17.533  0.00  0.00    +0.000 HD
ENDBRANCH   3   5
BRANCH   2  17
ATOM     17  C   UNL     1       0.956  10.343  19.072  0.00  0.00    +0.000 A 
ATOM     18  N   UNL     1      -0.128  10.289  19.885  0.00  0.00    +0.000 NA
ATOM     19  N   UNL     1      -0.429  11.612  20.164  0.00  0.00    +0.000 N 
ATOM     20  C   UNL     1       0.476  12.438  19.566  0.00  0.00    +0.000 A 
ATOM     21  C   UNL     1       1.357  11.670  18.882  0.00  0.00    +0.000 A 
ATOM     22  C   UNL     1       2.429  12.467  18.259  0.00  0.00    +0.000 C 
ATOM     23  C   UNL     1       2.271  13.833  19.008  0.00  0.00    +0.000 C 
ATOM     24  C   UNL     1       0.816  13.873  19.580  0.00  0.00    +0.000 C 
BRANCH  19  25
ATOM     25  C   UNL     1      -1.510  11.970  20.997  0.00  0.00    +0.000 A 
ATOM     26  C   UNL     1      -2.634  12.605  20.453  0.00  0.00    +0.000 A 
ATOM     27  C   UNL     1      -3.719  12.918  21.279  0.00  0.00    +0.000 A 
ATOM     28  C   UNL     1      -3.672  12.636  22.645  0.00  0.00    +0.000 A 
ATOM     29  C   UNL     1      -2.545  12.033  23.191  0.00  0.00    +0.000 A 
ATOM     30  C   UNL     1      -1.478  11.695  22.366  0.00  0.00    +0.000 A 
ATOM     31  F   UNL     1      -0.399  11.179  22.964  0.00  0.00    +0.000 F 
ENDBRANCH  19  25
ENDBRANCH   2  17
TORSDOF 3
ENDMDL
MODEL 8
REMARK VINA RESULT:      -9.0      1.397      1.598
REMARK  Name = 
REMARK  3 active torsions:
REMARK  status: ('A' for Active; 'I' for Inactive)
REMARK    1  A    between atoms: C_2  and  C_15
REMARK    2  A    between atoms: N_3  and  C_4
REMARK    3  A    between atoms: N_17  and  C_18
REMARK                            x       y       z     vdW  Elec       q    Type
REMARK                         _______ _______ _______ _____ _____    ______ ____
ROOT
ATOM      1  O   UNL     1       1.483   7.862  21.111  0.00  0.00    +0.000 OA
ATOM      2  C   UNL     1       1.812   7.849  19.921  0.00  0.00    +0.000 C 
ATOM      3  N   UNL     1       1.518   8.858  19.012  0.00  0.00    +0.000 N 
ATOM      4  H   UNL     1       1.673   8.645  18.031  0.00  0.00    +0.000 HD
ENDROOT
BRANCH   3   5
ATOM      5  C   UNL     1       0.801  10.034  19.356  0.00  0.00    +0.000 A 
ATOM      6  C   UNL     1      -0.415   9.970  20.050  0.00  0.00    +0.000 A 
ATOM      7  C   UNL     1      -1.185  11.108  20.272  0.00  0.00    +0.000 A 
ATOM      8  C   UNL     1      -0.745  12.355  19.831  0.00  0.00    +0.000 A 
ATOM      9  C   UNL     1       0.488  12.450  19.157  0.00  0.00    +0.000 A 
ATOM     10  C   UNL     1       1.267  11.294  18.963  0.00  0.00    +0.000 A 
ATOM     11  F   UNL     1       2.451  11.395  18.338  0.00  0.00    +0.000 F 
ATOM     12  C   UNL     1       0.950  13.800  18.666  0.00  0.00    +0.000 C 
ATOM     13  C   UNL     1      -0.204  14.814  18.590  0.00  0.00    +0.000 C 
ATOM     14  N   UNL     1      -0.972  14.830  19.837  0.00  0.00    +0.000 NA
ATOM     15  C   UNL     1      -1.649  13.545  20.020  0.00  0.00    +0.000 C 
ATOM     16  H   UNL     1      -1.678  15.563  19.799  0.00  0.00    +0.000 HD
ENDBRANCH   3   5
BRANCH   2  17
ATOM     17  C   UNL     1       2.512   6.671  19.411  0.00  0.00    +0.000 A 
ATOM     18  N   UNL     1       3.598   6.680  18.598  0.00  0.00    +0.000 NA
ATOM     19  N   UNL     1       3.897   5.344  18.391  0.00  0.00    +0.000 N 
ATOM     20  C   UNL     1       3.037   4.553  19.093  0.00  0.00    +0.000 A 
ATOM     21  C   UNL     1       2.164   5.358  19.744  0.00  0.00    +0.000 A 
ATOM     22  C   UNL     1       1.234   4.599  20.600  0.00  0.00    +0.000 C 
ATOM     23  C   UNL     1       1.941   3.203  20.661  0.00  0.00    +0.000 C 
ATOM     24  C   UNL     1       2.896   3.123  19.425  0.00  0.00    +0.000 C 
BRANCH  19  25
ATOM     25  C   UNL     1       4.986   4.940  17.589  0.00  0.00    +0.000 A 
ATOM     26  C   UNL     1       4.756   4.405  16.314  0.00  0.00    +0.000 A 
ATOM     27  C   UNL     1       5.842   4.047  15.509  0.00  0.00    +0.000 A 
ATOM     28  C   UNL     1       7.149   4.185  15.982  0.00  0.00    +0.000 A 
ATOM     29  C   UNL     1       7.375   4.687  17.257  0.00  0.00    +0.000 A 
ATOM     30  C   UNL     1       6.298   5.071  18.047  0.00  0.00    +0.000 A 
ATOM     31  F   UNL     1       6.582   5.484  19.287  0.00  0.00    +0.000 F 
ENDBRANCH  19  25
ENDBRANCH   2  17
TORSDOF 3
ENDMDL
MODEL 9
REMARK VINA RESULT:      -8.9      2.412      9.409
REMARK  Name = 
REMARK  3 active torsions:
REMARK  status: ('A' for Active; 'I' for Inactive)
REMARK    1  A    between atoms: C_2  and  C_15
REMARK    2  A    between atoms: N_3  and  C_4
REMARK    3  A    between atoms: N_17  and  C_18
REMARK                            x       y       z     vdW  Elec       q    Type
REMARK                         _______ _______ _______ _____ _____    ______ ____
ROOT
ATOM      1  O   UNL     1       1.925   9.210  17.275  0.00  0.00    +0.000 OA
ATOM      2  C   UNL     1       1.699   9.183  18.488  0.00  0.00    +0.000 C 
ATOM      3  N   UNL     1       2.021   8.121  19.325  0.00  0.00    +0.000 N 
ATOM      4  H   UNL     1       1.615   8.137  20.256  0.00  0.00    +0.000 HD
ENDROOT
BRANCH   3   5
ATOM      5  C   UNL     1       2.658   6.936  18.873  0.00  0.00    +0.000 A 
ATOM      6  C   UNL     1       3.621   6.969  17.855  0.00  0.00    +0.000 A 
ATOM      7  C   UNL     1       4.150   5.799  17.318  0.00  0.00    +0.000 A 
ATOM      8  C   UNL     1       3.753   4.556  17.805  0.00  0.00    +0.000 A 
ATOM      9  C   UNL     1       2.808   4.497  18.849  0.00  0.00    +0.000 A 
ATOM     10  C   UNL     1       2.302   5.689  19.399  0.00  0.00    +0.000 A 
ATOM     11  F   UNL     1       1.417   5.626  20.407  0.00  0.00    +0.000 F 
ATOM     12  C   UNL     1       2.368   3.147  19.360  0.00  0.00    +0.000 C 
ATOM     13  C   UNL     1       2.692   2.018  18.366  0.00  0.00    +0.000 C 
ATOM     14  N   UNL     1       4.085   2.095  17.919  0.00  0.00    +0.000 NA
ATOM     15  C   UNL     1       4.288   3.316  17.138  0.00  0.00    +0.000 C 
ATOM     16  H   UNL     1       4.304   1.295  17.328  0.00  0.00    +0.000 HD
ENDBRANCH   3   5
BRANCH   2  17
ATOM     17  C   UNL     1       0.996  10.317  19.087  0.00  0.00    +0.000 A 
ATOM     18  N   UNL     1      -0.064  10.243  19.930  0.00  0.00    +0.000 NA
ATOM     19  N   UNL     1      -0.377  11.559  20.224  0.00  0.00    +0.000 N 
ATOM     20  C   UNL     1       0.497  12.401  19.605  0.00  0.00    +0.000 A 
ATOM     21  C   UNL     1       1.370  11.651  18.892  0.00  0.00    +0.000 A 
ATOM     22  C   UNL     1       2.412  12.467  18.243  0.00  0.00    +0.000 C 
ATOM     23  C   UNL     1       2.254  13.828  19.003  0.00  0.00    +0.000 C 
ATOM     24  C   UNL     1       0.815  13.842  19.617  0.00  0.00    +0.000 C 
BRANCH  19  25
ATOM     25  C   UNL     1      -1.439  11.896  21.090  0.00  0.00    +0.000 A 
ATOM     26  C   UNL     1      -1.316  11.671  22.469  0.00  0.00    +0.000 A 
ATOM     27  C   UNL     1      -2.357  12.047  23.324  0.00  0.00    +0.000 A 
ATOM     28  C   UNL     1      -3.528  12.608  22.811  0.00  0.00    +0.000 A 
ATOM     29  C   UNL     1      -3.661  12.802  21.442  0.00  0.00    +0.000 A 
ATOM     30  C   UNL     1      -2.617  12.457  20.593  0.00  0.00    +0.000 A 
ATOM     31  F   UNL     1      -2.835  12.608  19.282  0.00  0.00    +0.000 F 
ENDBRANCH  19  25
ENDBRANCH   2  17
TORSDOF 3
ENDMDL
