MODEL 1
REMARK VINA RESULT:      -8.5      0.000      0.000
REMARK  Name = 
REMARK  6 active torsions:
REMARK  status: ('A' for Active; 'I' for Inactive)
REMARK    1  A    between atoms: C_2  and  C_3
REMARK    2  A    between atoms: C_3  and  C_4
REMARK    3  A    between atoms: N_11  and  C_12
REMARK    4  A    between atoms: C_16  and  S_17
REMARK    5  A    between atoms: S_17  and  N_20
REMARK    6  A    between atoms: N_20  and  C_21
REMARK                            x       y       z     vdW  Elec       q    Type
REMARK                         _______ _______ _______ _____ _____    ______ ____
ROOT
ATOM      1  C   UNL     1       4.249   3.320  17.696  0.00  0.00    +0.000 A 
ATOM      2  C   UNL     1       3.575   2.141  17.360  0.00  0.00    +0.000 A 
ATOM      3  C   UNL     1       2.361   1.803  17.970  0.00  0.00    +0.000 A 
ATOM      4  C   UNL     1       1.826   2.617  18.961  0.00  0.00    +0.000 A 
ATOM      5  C   UNL     1       2.538   3.747  19.368  0.00  0.00    +0.000 A 
ATOM      6  C   UNL     1       3.723   4.122  18.718  0.00  0.00    +0.000 A 
ENDROOT
BRANCH   1   9
ATOM      7  O   UNL     1       4.828   5.845  16.245  0.00  0.00    +0.000 OA
ATOM      8  C   UNL     1       5.644   4.935  16.374  0.00  0.00    +0.000 C 
ATOM      9  N   UNL     1       5.442   3.749  17.067  0.00  0.00    +0.000 N 
ATOM     10  H   UNL     1       6.242   3.137  17.169  0.00  0.00    +0.000 HD
BRANCH   8  11
ATOM     11  C   UNL     1       7.009   5.032  15.706  0.00  0.00    +0.000 C 
BRANCH  11  12
ATOM     12  C   UNL     1       7.023   4.686  14.236  0.00  0.00    +0.000 A 
ATOM     13  C   UNL     1       7.817   5.401  13.324  0.00  0.00    +0.000 A 
ATOM     14  C   UNL     1       7.769   5.116  11.954  0.00  0.00    +0.000 A 
ATOM     15  C   UNL     1       6.920   4.118  11.479  0.00  0.00    +0.000 A 
ATOM     16  C   UNL     1       6.129   3.415  12.377  0.00  0.00    +0.000 A 
ATOM     17  F   UNL     1       5.300   2.464  11.925  0.00  0.00    +0.000 F 
ATOM     18  C   UNL     1       6.170   3.689  13.742  0.00  0.00    +0.000 A 
ENDBRANCH  11  12
ENDBRANCH   8  11
ENDBRANCH   1   9
BRANCH   5  19
ATOM     19  S   UNL     1       1.892   4.747  20.691  0.00  0.00    +0.000 S 
ATOM     20  O   UNL     1       0.545   5.126  20.314  0.00  0.00    +0.000 OA
ATOM     21  O   UNL     1       2.163   4.079  21.942  0.00  0.00    +0.000 OA
BRANCH  19  22
ATOM     22  N   UNL     1       2.821   6.164  20.567  0.00  0.00    +0.000 N 
ATOM     23  H   UNL     1       3.755   5.905  20.241  0.00  0.00    +0.000 HD
BRANCH  22  24
ATOM     24  C   UNL     1       2.230   7.269  19.873  0.00  0.00    +0.000 A 
ATOM     25  C   UNL     1       2.449   7.424  18.506  0.00  0.00    +0.000 A 
ATOM     26  C   UNL     1       1.901   8.520  17.833  0.00  0.00    +0.000 A 
ATOM     27  C   UNL     1       1.139   9.464  18.527  0.00  0.00    +0.000 A 
ATOM     28  C   UNL     1       0.925   9.315  19.897  0.00  0.00    +0.000 A 
ATOM     29  C   UNL     1       1.476   8.223  20.562  0.00  0.00    +0.000 A 
ATOM     30  F   UNL     1       1.255   8.080  21.877  0.00  0.00    +0.000 F 
ENDBRANCH  22  24
ENDBRANCH  19  22
ENDBRANCH   5  19
TORSDOF 6
ENDMDL
MODEL 2
REMARK VINA RESULT:      -8.3      3.316      5.321
REMARK  Name = 
REMARK  6 active torsions:
REMARK  status: ('A' for Active; 'I' for Inactive)
REMARK    1  A    between atoms: C_2  and  C_3
REMARK    2  A    between atoms: C_3  and  C_4
REMARK    3  A    between atoms: N_11  and  C_12
REMARK    4  A    between atoms: C_16  and  S_17
REMARK    5  A    between atoms: S_17  and  N_20
REMARK    6  A    between atoms: N_20  and  C_21
REMARK                            x       y       z     vdW  Elec       q    Type
REMARK                         _______ _______ _______ _____ _____    ______ ____
ROOT
ATOM      1  C   UNL     1       2.494   7.518  18.892  0.00  0.00    +0.000 A 
ATOM      2  C   UNL     1       2.326   8.351  17.782  0.00  0.00    +0.000 A 
ATOM      3  C   UNL     1       1.577   9.531  17.869  0.00  0.00    +0.000 A 
ATOM      4  C   UNL     1       0.945   9.871  19.059  0.00  0.00    +0.000 A 
ATOM      5  C   UNL     1       1.031   8.999  20.145  0.00  0.00    +0.000 A 
ATOM      6  C   UNL     1       1.829   7.848  20.081  0.00  0.00    +0.000 A 
ENDROOT
BRANCH   1   9
ATOM      7  O   UNL     1       1.687   4.660  18.955  0.00  0.00    +0.000 OA
ATOM      8  C   UNL     1       2.858   5.034  18.945  0.00  0.00    +0.000 C 
ATOM      9  N   UNL     1       3.294   6.351  18.884  0.00  0.00    +0.000 N 
ATOM     10  H   UNL     1       4.291   6.497  18.784  0.00  0.00    +0.000 HD
BRANCH   8  11
ATOM     11  C   UNL     1       3.985   4.016  19.047  0.00  0.00    +0.000 C 
BRANCH  11  12
ATOM     12  C   UNL     1       5.060   4.152  17.995  0.00  0.00    +0.000 A 
ATOM     13  C   UNL     1       6.366   4.550  18.329  0.00  0.00    +0.000 A 
ATOM     14  C   UNL     1       7.334   4.738  17.336  0.00  0.00    +0.000 A 
ATOM     15  C   UNL     1       7.008   4.539  15.996  0.00  0.00    +0.000 A 
ATOM     16  C   UNL     1       5.717   4.154  15.662  0.00  0.00    +0.000 A 
ATOM     17  F   UNL     1       5.392   3.976  14.374  0.00  0.00    +0.000 F 
ATOM     18  C   UNL     1       4.746   3.963  16.642  0.00  0.00    +0.000 A 
ENDBRANCH  11  12
ENDBRANCH   8  11
ENDBRANCH   1   9
BRANCH   5  19
ATOM     19  S   UNL     1       0.158   9.397  21.644  0.00  0.00    +0.000 S 
ATOM     20  O   UNL     1      -0.642   8.238  21.987  0.00  0.00    +0.000 OA
ATOM     21  O   UNL     1       1.097   9.966  22.582  0.00  0.00    +0.000 OA
BRANCH  19  22
ATOM     22  N   UNL     1      -0.945  10.580  21.124  0.00  0.00    +0.000 N 
ATOM     23  H   UNL     1      -1.886  10.181  21.171  0.00  0.00    +0.000 HD
BRANCH  22  24
ATOM     24  C   UNL     1      -0.819  11.884  21.704  0.00  0.00    +0.000 A 
ATOM     25  C   UNL     1       0.027  12.822  21.116  0.00  0.00    +0.000 A 
ATOM     26  C   UNL     1       0.177  14.085  21.699  0.00  0.00    +0.000 A 
ATOM     27  C   UNL     1      -0.512  14.407  22.872  0.00  0.00    +0.000 A 
ATOM     28  C   UNL     1      -1.354  13.466  23.465  0.00  0.00    +0.000 A 
ATOM     29  C   UNL     1      -1.497  12.209  22.882  0.00  0.00    +0.000 A 
ATOM     30  F   UNL     1      -2.317  11.314  23.451  0.00  0.00    +0.000 F 
ENDBRANCH  22  24
ENDBRANCH  19  22
ENDBRANCH   5  19
TORSDOF 6
ENDMDL
MODEL 3
REMARK VINA RESULT:      -8.3      2.283      3.299
REMARK  Name = 
REMARK  6 active torsions:
REMARK  status: ('A' for Active; 'I' for Inactive)
REMARK    1  A    between atoms: C_2  and  C_3
REMARK    2  A    between atoms: C_3  and  C_4
REMARK    3  A    between atoms: N_11  and  C_12
REMARK    4  A    between atoms: C_16  and  S_17
REMARK    5  A    between atoms: S_17  and  N_20
REMARK    6  A    between atoms: N_20  and  C_21
REMARK                            x       y       z     vdW  Elec       q    Type
REMARK                         _______ _______ _______ _____ _____    ______ ____
ROOT
ATOM      1  C   UNL     1       6.785   4.681  16.893  0.00  0.00    +0.000 A 
ATOM      2  C   UNL     1       7.344   5.519  17.864  0.00  0.00    +0.000 A 
ATOM      3  C   UNL     1       6.874   5.512  19.183  0.00  0.00    +0.000 A 
ATOM      4  C   UNL     1       5.805   4.700  19.540  0.00  0.00    +0.000 A 
ATOM      5  C   UNL     1       5.181   3.930  18.557  0.00  0.00    +0.000 A 
ATOM      6  C   UNL     1       5.686   3.887  17.249  0.00  0.00    +0.000 A 
ENDROOT
BRANCH   1   9
ATOM      7  O   UNL     1       5.838   6.063  14.441  0.00  0.00    +0.000 OA
ATOM      8  C   UNL     1       6.756   5.245  14.447  0.00  0.00    +0.000 C 
ATOM      9  N   UNL     1       7.262   4.593  15.564  0.00  0.00    +0.000 N 
ATOM     10  H   UNL     1       8.085   4.021  15.424  0.00  0.00    +0.000 HD
BRANCH   8  11
ATOM     11  C   UNL     1       7.420   4.832  13.141  0.00  0.00    +0.000 C 
BRANCH  11  12
ATOM     12  C   UNL     1       6.735   3.702  12.409  0.00  0.00    +0.000 A 
ATOM     13  C   UNL     1       7.470   2.662  11.815  0.00  0.00    +0.000 A 
ATOM     14  C   UNL     1       6.827   1.658  11.082  0.00  0.00    +0.000 A 
ATOM     15  C   UNL     1       5.443   1.686  10.925  0.00  0.00    +0.000 A 
ATOM     16  C   UNL     1       4.715   2.717  11.503  0.00  0.00    +0.000 A 
ATOM     17  F   UNL     1       3.385   2.757  11.344  0.00  0.00    +0.000 F 
ATOM     18  C   UNL     1       5.343   3.720  12.237  0.00  0.00    +0.000 A 
ENDBRANCH  11  12
ENDBRANCH   8  11
ENDBRANCH   1   9
BRANCH   5  19
ATOM     19  S   UNL     1       3.763   2.949  18.997  0.00  0.00    +0.000 S 
ATOM     20  O   UNL     1       3.791   1.766  18.160  0.00  0.00    +0.000 OA
ATOM     21  O   UNL     1       3.705   2.851  20.436  0.00  0.00    +0.000 OA
BRANCH  19  22
ATOM     22  N   UNL     1       2.471   3.890  18.419  0.00  0.00    +0.000 N 
ATOM     23  H   UNL     1       1.632   3.306  18.408  0.00  0.00    +0.000 HD
BRANCH  22  24
ATOM     24  C   UNL     1       2.294   5.181  19.013  0.00  0.00    +0.000 A 
ATOM     25  C   UNL     1       1.656   5.294  20.247  0.00  0.00    +0.000 A 
ATOM     26  C   UNL     1       1.452   6.556  20.813  0.00  0.00    +0.000 A 
ATOM     27  C   UNL     1       1.879   7.706  20.143  0.00  0.00    +0.000 A 
ATOM     28  C   UNL     1       2.511   7.597  18.904  0.00  0.00    +0.000 A 
ATOM     29  C   UNL     1       2.709   6.337  18.345  0.00  0.00    +0.000 A 
ATOM     30  F   UNL     1       3.328   6.239  17.159  0.00  0.00    +0.000 F 
ENDBRANCH  22  24
ENDBRANCH  19  22
ENDBRANCH   5  19
TORSDOF 6
ENDMDL
MODEL 4
REMARK VINA RESULT:      -8.2      5.884      7.467
REMARK  Name = 
REMARK  6 active torsions:
REMARK  status: ('A' for Active; 'I' for Inactive)
REMARK    1  A    between atoms: C_2  and  C_3
REMARK    2  A    between atoms: C_3  and  C_4
REMARK    3  A    between atoms: N_11  and  C_12
REMARK    4  A    between atoms: C_16  and  S_17
REMARK    5  A    between atoms: S_17  and  N_20
REMARK    6  A    between atoms: N_20  and  C_21
REMARK                            x       y       z     vdW  Elec       q    Type
REMARK                         _______ _______ _______ _____ _____    ______ ____
ROOT
ATOM      1  C   UNL     1       7.629   7.507  17.947  0.00  0.00    +0.000 A 
ATOM      2  C   UNL     1       8.240   6.773  18.968  0.00  0.00    +0.000 A 
ATOM      3  C   UNL     1       7.893   5.437  19.206  0.00  0.00    +0.000 A 
ATOM      4  C   UNL     1       6.894   4.830  18.454  0.00  0.00    +0.000 A 
ATOM      5  C   UNL     1       6.215   5.583  17.495  0.00  0.00    +0.000 A 
ATOM      6  C   UNL     1       6.601   6.902  17.212  0.00  0.00    +0.000 A 
ENDROOT
BRANCH   1   9
ATOM      7  O   UNL     1       9.168   9.510  19.510  0.00  0.00    +0.000 OA
ATOM      8  C   UNL     1       8.684   9.739  18.403  0.00  0.00    +0.000 C 
ATOM      9  N   UNL     1       7.985   8.836  17.614  0.00  0.00    +0.000 N 
ATOM     10  H   UNL     1       7.734   9.143  16.683  0.00  0.00    +0.000 HD
BRANCH   8  11
ATOM     11  C   UNL     1       8.790  11.132  17.798  0.00  0.00    +0.000 C 
BRANCH  11  12
ATOM     12  C   UNL     1      10.055  11.881  18.143  0.00  0.00    +0.000 A 
ATOM     13  C   UNL     1      10.770  11.606  19.322  0.00  0.00    +0.000 A 
ATOM     14  C   UNL     1      11.902  12.354  19.664  0.00  0.00    +0.000 A 
ATOM     15  C   UNL     1      12.330  13.391  18.837  0.00  0.00    +0.000 A 
ATOM     16  C   UNL     1      11.621  13.670  17.676  0.00  0.00    +0.000 A 
ATOM     17  F   UNL     1      12.019  14.676  16.885  0.00  0.00    +0.000 F 
ATOM     18  C   UNL     1      10.494  12.932  17.325  0.00  0.00    +0.000 A 
ENDBRANCH  11  12
ENDBRANCH   8  11
ENDBRANCH   1   9
BRANCH   5  19
ATOM     19  S   UNL     1       4.884   4.829  16.586  0.00  0.00    +0.000 S 
ATOM     20  O   UNL     1       5.001   5.279  15.214  0.00  0.00    +0.000 OA
ATOM     21  O   UNL     1       4.846   3.424  16.916  0.00  0.00    +0.000 OA
BRANCH  19  22
ATOM     22  N   UNL     1       3.517   5.618  17.215  0.00  0.00    +0.000 N 
ATOM     23  H   UNL     1       2.990   6.013  16.432  0.00  0.00    +0.000 HD
BRANCH  22  24
ATOM     24  C   UNL     1       2.726   4.891  18.161  0.00  0.00    +0.000 A 
ATOM     25  C   UNL     1       1.751   4.002  17.710  0.00  0.00    +0.000 A 
ATOM     26  C   UNL     1       0.956   3.315  18.633  0.00  0.00    +0.000 A 
ATOM     27  C   UNL     1       1.128   3.522  20.005  0.00  0.00    +0.000 A 
ATOM     28  C   UNL     1       2.098   4.416  20.458  0.00  0.00    +0.000 A 
ATOM     29  C   UNL     1       2.886   5.099  19.534  0.00  0.00    +0.000 A 
ATOM     30  F   UNL     1       3.824   5.949  19.978  0.00  0.00    +0.000 F 
ENDBRANCH  22  24
ENDBRANCH  19  22
ENDBRANCH   5  19
TORSDOF 6
ENDMDL
MODEL 5
REMARK VINA RESULT:      -8.2      3.383      5.363
REMARK  Name = 
REMARK  6 active torsions:
REMARK  status: ('A' for Active; 'I' for Inactive)
REMARK    1  A    between atoms: C_2  and  C_3
REMARK    2  A    between atoms: C_3  and  C_4
REMARK    3  A    between atoms: N_11  and  C_12
REMARK    4  A    between atoms: C_16  and  S_17
REMARK    5  A    between atoms: S_17  and  N_20
REMARK    6  A    between atoms: N_20  and  C_21
REMARK                            x       y       z     vdW  Elec       q    Type
REMARK                         _______ _______ _______ _____ _____    ______ ____
ROOT
ATOM      1  C   UNL     1       2.473   7.579  18.744  0.00  0.00    +0.000 A 
ATOM      2  C   UNL     1       2.336   8.469  17.674  0.00  0.00    +0.000 A 
ATOM      3  C   UNL     1       1.641   9.676  17.821  0.00  0.00    +0.000 A 
ATOM      4  C   UNL     1       1.032   9.989  19.030  0.00  0.00    +0.000 A 
ATOM      5  C   UNL     1       1.086   9.065  20.075  0.00  0.00    +0.000 A 
ATOM      6  C   UNL     1       1.832   7.884  19.952  0.00  0.00    +0.000 A 
ENDROOT
BRANCH   1   9
ATOM      7  O   UNL     1       1.620   4.853  17.933  0.00  0.00    +0.000 OA
ATOM      8  C   UNL     1       2.757   5.122  18.316  0.00  0.00    +0.000 C 
ATOM      9  N   UNL     1       3.221   6.379  18.677  0.00  0.00    +0.000 N 
ATOM     10  H   UNL     1       4.210   6.461  18.877  0.00  0.00    +0.000 HD
BRANCH   8  11
ATOM     11  C   UNL     1       3.792   4.016  18.471  0.00  0.00    +0.000 C 
BRANCH  11  12
ATOM     12  C   UNL     1       4.972   4.115  17.534  0.00  0.00    +0.000 A 
ATOM     13  C   UNL     1       6.267   4.377  18.013  0.00  0.00    +0.000 A 
ATOM     14  C   UNL     1       7.340   4.534  17.128  0.00  0.00    +0.000 A 
ATOM     15  C   UNL     1       7.131   4.440  15.754  0.00  0.00    +0.000 A 
ATOM     16  C   UNL     1       5.851   4.190  15.277  0.00  0.00    +0.000 A 
ATOM     17  F   UNL     1       5.641   4.113  13.956  0.00  0.00    +0.000 F 
ATOM     18  C   UNL     1       4.777   4.030  16.148  0.00  0.00    +0.000 A 
ENDBRANCH  11  12
ENDBRANCH   8  11
ENDBRANCH   1   9
BRANCH   5  19
ATOM     19  S   UNL     1       0.241   9.432  21.598  0.00  0.00    +0.000 S 
ATOM     20  O   UNL     1      -0.527   8.255  21.949  0.00  0.00    +0.000 OA
ATOM     21  O   UNL     1       1.191  10.012  22.518  0.00  0.00    +0.000 OA
BRANCH  19  22
ATOM     22  N   UNL     1      -0.897  10.598  21.115  0.00  0.00    +0.000 N 
ATOM     23  H   UNL     1      -1.790  10.125  20.959  0.00  0.00    +0.000 HD
BRANCH  22  24
ATOM     24  C   UNL     1      -0.981  11.789  21.906  0.00  0.00    +0.000 A 
ATOM     25  C   UNL     1      -1.945  11.888  22.907  0.00  0.00    +0.000 A 
ATOM     26  C   UNL     1      -2.051  13.062  23.658  0.00  0.00    +0.000 A 
ATOM     27  C   UNL     1      -1.198  14.140  23.405  0.00  0.00    +0.000 A 
ATOM     28  C   UNL     1      -0.237  14.047  22.399  0.00  0.00    +0.000 A 
ATOM     29  C   UNL     1      -0.138  12.875  21.652  0.00  0.00    +0.000 A 
ATOM     30  F   UNL     1       0.796  12.788  20.693  0.00  0.00    +0.000 F 
ENDBRANCH  22  24
ENDBRANCH  19  22
ENDBRANCH   5  19
TORSDOF 6
ENDMDL
MODEL 6
REMARK VINA RESULT:      -8.1      2.781      4.168
REMARK  Name = 
REMARK  6 active torsions:
REMARK  status: ('A' for Active; 'I' for Inactive)
REMARK    1  A    between atoms: C_2  and  C_3
REMARK    2  A    between atoms: C_3  and  C_4
REMARK    3  A    between atoms: N_11  and  C_12
REMARK    4  A    between atoms: C_16  and  S_17
REMARK    5  A    between atoms: S_17  and  N_20
REMARK    6  A    between atoms: N_20  and  C_21
REMARK                            x       y       z     vdW  Elec       q    Type
REMARK                         _______ _______ _______ _____ _____    ______ ____
ROOT
ATOM      1  C   UNL     1       6.590   4.867  15.621  0.00  0.00    +0.000 A 
ATOM      2  C   UNL     1       7.612   4.676  16.557  0.00  0.00    +0.000 A 
ATOM      3  C   UNL     1       7.380   4.843  17.927  0.00  0.00    +0.000 A 
ATOM      4  C   UNL     1       6.131   5.250  18.380  0.00  0.00    +0.000 A 
ATOM      5  C   UNL     1       5.131   5.534  17.447  0.00  0.00    +0.000 A 
ATOM      6  C   UNL     1       5.341   5.309  16.079  0.00  0.00    +0.000 A 
ENDROOT
BRANCH   1   9
ATOM      7  O   UNL     1       8.653   5.903  13.753  0.00  0.00    +0.000 OA
ATOM      8  C   UNL     1       7.718   5.186  13.401  0.00  0.00    +0.000 C 
ATOM      9  N   UNL     1       6.745   4.647  14.232  0.00  0.00    +0.000 N 
ATOM     10  H   UNL     1       6.096   3.994  13.811  0.00  0.00    +0.000 HD
BRANCH   8  11
ATOM     11  C   UNL     1       7.526   4.848  11.929  0.00  0.00    +0.000 C 
BRANCH  11  12
ATOM     12  C   UNL     1       6.730   3.593  11.664  0.00  0.00    +0.000 A 
ATOM     13  C   UNL     1       7.364   2.366  11.400  0.00  0.00    +0.000 A 
ATOM     14  C   UNL     1       6.615   1.226  11.087  0.00  0.00    +0.000 A 
ATOM     15  C   UNL     1       5.225   1.299  11.026  0.00  0.00    +0.000 A 
ATOM     16  C   UNL     1       4.597   2.511  11.277  0.00  0.00    +0.000 A 
ATOM     17  F   UNL     1       3.261   2.591  11.204  0.00  0.00    +0.000 F 
ATOM     18  C   UNL     1       5.331   3.652  11.591  0.00  0.00    +0.000 A 
ENDBRANCH  11  12
ENDBRANCH   8  11
ENDBRANCH   1   9
BRANCH   5  19
ATOM     19  S   UNL     1       3.556   6.130  18.022  0.00  0.00    +0.000 S 
ATOM     20  O   UNL     1       3.557   7.567  17.839  0.00  0.00    +0.000 OA
ATOM     21  O   UNL     1       2.520   5.300  17.455  0.00  0.00    +0.000 OA
BRANCH  19  22
ATOM     22  N   UNL     1       3.658   5.879  19.699  0.00  0.00    +0.000 N 
ATOM     23  H   UNL     1       3.369   6.741  20.168  0.00  0.00    +0.000 HD
BRANCH  22  24
ATOM     24  C   UNL     1       3.055   4.687  20.215  0.00  0.00    +0.000 A 
ATOM     25  C   UNL     1       3.748   3.479  20.154  0.00  0.00    +0.000 A 
ATOM     26  C   UNL     1       3.148   2.308  20.627  0.00  0.00    +0.000 A 
ATOM     27  C   UNL     1       1.854   2.341  21.153  0.00  0.00    +0.000 A 
ATOM     28  C   UNL     1       1.155   3.548  21.208  0.00  0.00    +0.000 A 
ATOM     29  C   UNL     1       1.757   4.711  20.734  0.00  0.00    +0.000 A 
ATOM     30  F   UNL     1       1.084   5.869  20.800  0.00  0.00    +0.000 F 
ENDBRANCH  22  24
ENDBRANCH  19  22
ENDBRANCH   5  19
TORSDOF 6
ENDMDL
MODEL 7
REMARK VINA RESULT:      -8.1      5.315      8.393
REMARK  Name = 
REMARK  6 active torsions:
REMARK  status: ('A' for Active; 'I' for Inactive)
REMARK    1  A    between atoms: C_2  and  C_3
REMARK    2  A    between atoms: C_3  and  C_4
REMARK    3  A    between atoms: N_11  and  C_12
REMARK    4  A    between atoms: C_16  and  S_17
REMARK    5  A    between atoms: S_17  and  N_20
REMARK    6  A    between atoms: N_20  and  C_21
REMARK                            x       y       z     vdW  Elec       q    Type
REMARK                         _______ _______ _______ _____ _____    ______ ____
ROOT
ATOM      1  C   UNL     1       0.951   9.708  18.568  0.00  0.00    +0.000 A 
ATOM      2  C   UNL     1       1.449  10.946  18.987  0.00  0.00    +0.000 A 
ATOM      3  C   UNL     1       0.656  12.098  18.940  0.00  0.00    +0.000 A 
ATOM      4  C   UNL     1      -0.634  12.038  18.427  0.00  0.00    +0.000 A 
ATOM      5  C   UNL     1      -1.107  10.826  17.921  0.00  0.00    +0.000 A 
ATOM      6  C   UNL     1      -0.339   9.657  18.022  0.00  0.00    +0.000 A 
ENDROOT
BRANCH   1   9
ATOM      7  O   UNL     1       1.343   7.891  20.885  0.00  0.00    +0.000 OA
ATOM      8  C   UNL     1       1.852   7.703  19.781  0.00  0.00    +0.000 C 
ATOM      9  N   UNL     1       1.680   8.497  18.656  0.00  0.00    +0.000 N 
ATOM     10  H   UNL     1       2.085   8.159  17.792  0.00  0.00    +0.000 HD
BRANCH   8  11
ATOM     11  C   UNL     1       2.801   6.532  19.568  0.00  0.00    +0.000 C 
BRANCH  11  12
ATOM     12  C   UNL     1       2.246   5.184  19.960  0.00  0.00    +0.000 A 
ATOM     13  C   UNL     1       2.469   4.644  21.238  0.00  0.00    +0.000 A 
ATOM     14  C   UNL     1       2.008   3.364  21.566  0.00  0.00    +0.000 A 
ATOM     15  C   UNL     1       1.326   2.604  20.618  0.00  0.00    +0.000 A 
ATOM     16  C   UNL     1       1.111   3.131  19.352  0.00  0.00    +0.000 A 
ATOM     17  F   UNL     1       0.469   2.399  18.431  0.00  0.00    +0.000 F 
ATOM     18  C   UNL     1       1.565   4.404  19.015  0.00  0.00    +0.000 A 
ENDBRANCH  11  12
ENDBRANCH   8  11
ENDBRANCH   1   9
BRANCH   5  19
ATOM     19  S   UNL     1      -2.730  10.766  17.193  0.00  0.00    +0.000 S 
ATOM     20  O   UNL     1      -2.564  10.995  15.772  0.00  0.00    +0.000 OA
ATOM     21  O   UNL     1      -3.411   9.595  17.692  0.00  0.00    +0.000 OA
BRANCH  19  22
ATOM     22  N   UNL     1      -3.458  12.175  17.804  0.00  0.00    +0.000 N 
ATOM     23  H   UNL     1      -3.414  12.896  17.080  0.00  0.00    +0.000 HD
BRANCH  22  24
ATOM     24  C   UNL     1      -4.742  12.026  18.421  0.00  0.00    +0.000 A 
ATOM     25  C   UNL     1      -5.864  11.775  17.633  0.00  0.00    +0.000 A 
ATOM     26  C   UNL     1      -7.123  11.662  18.230  0.00  0.00    +0.000 A 
ATOM     27  C   UNL     1      -7.263  11.806  19.614  0.00  0.00    +0.000 A 
ATOM     28  C   UNL     1      -6.143  12.064  20.404  0.00  0.00    +0.000 A 
ATOM     29  C   UNL     1      -4.891  12.178  19.803  0.00  0.00    +0.000 A 
ATOM     30  F   UNL     1      -3.817  12.415  20.570  0.00  0.00    +0.000 F 
ENDBRANCH  22  24
ENDBRANCH  19  22
ENDBRANCH   5  19
TORSDOF 6
ENDMDL
MODEL 8
REMARK VINA RESULT:      -8.1      5.234      7.882
REMARK  Name = 
REMARK  6 active torsions:
REMARK  status: ('A' for Active; 'I' for Inactive)
REMARK    1  A    between atoms: C_2  and  C_3
REMARK    2  A    between atoms: C_3  and  C_4
REMARK    3  A    between atoms: N_11  and  C_12
REMARK    4  A    between atoms: C_16  and  S_17
REMARK    5  A    between atoms: S_17  and  N_20
REMARK    6  A    between atoms: N_20  and  C_21
REMARK                            x       y       z     vdW  Elec       q    Type
REMARK                         _______ _______ _______ _____ _____    ______ ____
ROOT
ATOM      1  C   UNL     1       0.529  10.268  18.936  0.00  0.00    +0.000 A 
ATOM      2  C   UNL     1       0.915  11.596  19.146  0.00  0.00    +0.000 A 
ATOM      3  C   UNL     1       0.082  12.659  18.776  0.00  0.00    +0.000 A 
ATOM      4  C   UNL     1      -1.132  12.409  18.147  0.00  0.00    +0.000 A 
ATOM      5  C   UNL     1      -1.483  11.091  17.850  0.00  0.00    +0.000 A 
ATOM      6  C   UNL     1      -0.681  10.022  18.273  0.00  0.00    +0.000 A 
ENDROOT
BRANCH   1   9
ATOM      7  O   UNL     1       2.352   8.527  17.366  0.00  0.00    +0.000 OA
ATOM      8  C   UNL     1       2.111   8.356  18.559  0.00  0.00    +0.000 C 
ATOM      9  N   UNL     1       1.296   9.153  19.351  0.00  0.00    +0.000 N 
ATOM     10  H   UNL     1       1.273   8.942  20.341  0.00  0.00    +0.000 HD
BRANCH   8  11
ATOM     11  C   UNL     1       2.696   7.156  19.292  0.00  0.00    +0.000 C 
BRANCH  11  12
ATOM     12  C   UNL     1       2.811   5.899  18.463  0.00  0.00    +0.000 A 
ATOM     13  C   UNL     1       1.789   4.934  18.452  0.00  0.00    +0.000 A 
ATOM     14  C   UNL     1       1.937   3.742  17.734  0.00  0.00    +0.000 A 
ATOM     15  C   UNL     1       3.111   3.495  17.025  0.00  0.00    +0.000 A 
ATOM     16  C   UNL     1       4.126   4.442  17.041  0.00  0.00    +0.000 A 
ATOM     17  F   UNL     1       5.263   4.204  16.374  0.00  0.00    +0.000 F 
ATOM     18  C   UNL     1       3.989   5.633  17.751  0.00  0.00    +0.000 A 
ENDBRANCH  11  12
ENDBRANCH   8  11
ENDBRANCH   1   9
BRANCH   5  19
ATOM     19  S   UNL     1      -3.000  10.776  16.974  0.00  0.00    +0.000 S 
ATOM     20  O   UNL     1      -2.716  10.945  15.564  0.00  0.00    +0.000 OA
ATOM     21  O   UNL     1      -3.576   9.555  17.485  0.00  0.00    +0.000 OA
BRANCH  19  22
ATOM     22  N   UNL     1      -3.960  12.108  17.413  0.00  0.00    +0.000 N 
ATOM     23  H   UNL     1      -4.322  12.535  16.557  0.00  0.00    +0.000 HD
BRANCH  22  24
ATOM     24  C   UNL     1      -4.941  11.892  18.434  0.00  0.00    +0.000 A 
ATOM     25  C   UNL     1      -6.131  11.238  18.123  0.00  0.00    +0.000 A 
ATOM     26  C   UNL     1      -7.104  11.055  19.111  0.00  0.00    +0.000 A 
ATOM     27  C   UNL     1      -6.890  11.532  20.407  0.00  0.00    +0.000 A 
ATOM     28  C   UNL     1      -5.703  12.192  20.720  0.00  0.00    +0.000 A 
ATOM     29  C   UNL     1      -4.738  12.374  19.731  0.00  0.00    +0.000 A 
ATOM     30  F   UNL     1      -3.594  13.000  20.041  0.00  0.00    +0.000 F 
ENDBRANCH  22  24
ENDBRANCH  19  22
ENDBRANCH   5  19
TORSDOF 6
ENDMDL
MODEL 9
REMARK VINA RESULT:      -8.1      0.967      1.323
REMARK  Name = 
REMARK  6 active torsions:
REMARK  status: ('A' for Active; 'I' for Inactive)
REMARK    1  A    between atoms: C_2  and  C_3
REMARK    2  A    between atoms: C_3  and  C_4
REMARK    3  A    between atoms: N_11  and  C_12
REMARK    4  A    between atoms: C_16  and  S_17
REMARK    5  A    between atoms: S_17  and  N_20
REMARK    6  A    between atoms: N_20  and  C_21
REMARK                            x       y       z     vdW  Elec       q    Type
REMARK                         _______ _______ _______ _____ _____    ______ ____
ROOT
ATOM      1  C   UNL     1       4.103   3.190  17.720  0.00  0.00    +0.000 A 
ATOM      2  C   UNL     1       3.305   2.105  17.341  0.00  0.00    +0.000 A 
ATOM      3  C   UNL     1       2.052   1.889  17.926  0.00  0.00    +0.000 A 
ATOM      4  C   UNL     1       1.597   2.730  18.934  0.00  0.00    +0.000 A 
ATOM      5  C   UNL     1       2.426   3.760  19.383  0.00  0.00    +0.000 A 
ATOM      6  C   UNL     1       3.655   4.017  18.759  0.00  0.00    +0.000 A 
ENDROOT
BRANCH   1   9
ATOM      7  O   UNL     1       5.230   5.822  16.932  0.00  0.00    +0.000 OA
ATOM      8  C   UNL     1       5.807   4.753  16.744  0.00  0.00    +0.000 C 
ATOM      9  N   UNL     1       5.346   3.499  17.118  0.00  0.00    +0.000 N 
ATOM     10  H   UNL     1       5.979   2.720  16.983  0.00  0.00    +0.000 HD
BRANCH   8  11
ATOM     11  C   UNL     1       7.137   4.724  16.002  0.00  0.00    +0.000 C 
BRANCH  11  12
ATOM     12  C   UNL     1       7.024   4.630  14.499  0.00  0.00    +0.000 A 
ATOM     13  C   UNL     1       6.313   3.587  13.882  0.00  0.00    +0.000 A 
ATOM     14  C   UNL     1       6.274   3.473  12.488  0.00  0.00    +0.000 A 
ATOM     15  C   UNL     1       6.953   4.394  11.693  0.00  0.00    +0.000 A 
ATOM     16  C   UNL     1       7.664   5.421  12.300  0.00  0.00    +0.000 A 
ATOM     17  F   UNL     1       8.331   6.301  11.542  0.00  0.00    +0.000 F 
ATOM     18  C   UNL     1       7.708   5.545  13.686  0.00  0.00    +0.000 A 
ENDBRANCH  11  12
ENDBRANCH   8  11
ENDBRANCH   1   9
BRANCH   5  19
ATOM     19  S   UNL     1       1.876   4.789  20.727  0.00  0.00    +0.000 S 
ATOM     20  O   UNL     1       0.520   5.195  20.420  0.00  0.00    +0.000 OA
ATOM     21  O   UNL     1       2.200   4.129  21.969  0.00  0.00    +0.000 OA
BRANCH  19  22
ATOM     22  N   UNL     1       2.829   6.183  20.536  0.00  0.00    +0.000 N 
ATOM     23  H   UNL     1       3.742   5.897  20.174  0.00  0.00    +0.000 HD
BRANCH  22  24
ATOM     24  C   UNL     1       2.232   7.287  19.847  0.00  0.00    +0.000 A 
ATOM     25  C   UNL     1       2.429   7.435  18.475  0.00  0.00    +0.000 A 
ATOM     26  C   UNL     1       1.874   8.531  17.807  0.00  0.00    +0.000 A 
ATOM     27  C   UNL     1       1.129   9.483  18.510  0.00  0.00    +0.000 A 
ATOM     28  C   UNL     1       0.937   9.340  19.884  0.00  0.00    +0.000 A 
ATOM     29  C   UNL     1       1.494   8.248  20.545  0.00  0.00    +0.000 A 
ATOM     30  F   UNL     1       1.295   8.112  21.864  0.00  0.00    +0.000 F 
ENDBRANCH  22  24
ENDBRANCH  19  22
ENDBRANCH   5  19
TORSDOF 6
ENDMDL
