MODEL 1
REMARK VINA RESULT:      -8.5      0.000      0.000
REMARK  Name = 
REMARK  6 active torsions:
REMARK  status: ('A' for Active; 'I' for Inactive)
REMARK    1  A    between atoms: C_1  and  C_2
REMARK    2  A    between atoms: C_5  and  C_6
REMARK    3  A    between atoms: C_7  and  N_8
REMARK    4  A    between atoms: C_11  and  N_12
REMARK    5  A    between atoms: C_13  and  C_15
REMARK    6  A    between atoms: C_27  and  C_28
REMARK                            x       y       z     vdW  Elec       q    Type
REMARK                         _______ _______ _______ _____ _____    ______ ____
ROOT
ATOM      1  N   UNL     1       0.790   8.953  20.609  0.00  0.00    +0.000 N 
ATOM      2  C   UNL     1       0.934   9.733  21.739  0.00  0.00    +0.000 C 
ATOM      3  O   UNL     1       1.675   9.480  22.685  0.00  0.00    +0.000 OA
ATOM      4  H   UNL     1       0.136   9.244  19.893  0.00  0.00    +0.000 HD
ENDROOT
BRANCH   2   5
ATOM      5  C   UNL     1       0.106  10.974  21.798  0.00  0.00    +0.000 A 
ATOM      6  C   UNL     1      -1.003  11.005  22.661  0.00  0.00    +0.000 A 
ATOM      7  C   UNL     1      -1.816  12.146  22.737  0.00  0.00    +0.000 A 
ATOM      8  C   UNL     1      -1.535  13.245  21.919  0.00  0.00    +0.000 A 
ATOM      9  C   UNL     1      -0.436  13.231  21.066  0.00  0.00    +0.000 A 
ATOM     10  C   UNL     1       0.376  12.101  21.018  0.00  0.00    +0.000 A 
ATOM     11  F   UNL     1       1.423  12.126  20.178  0.00  0.00    +0.000 F 
ATOM     12  N   UNL     1      -2.394  14.345  21.913  0.00  0.00    +0.000 N 
ATOM     13  C   UNL     1      -3.447  14.501  22.773  0.00  0.00    +0.000 C 
ATOM     14  O   UNL     1      -4.247  15.422  22.631  0.00  0.00    +0.000 OA
ATOM     15  C   UNL     1      -3.477  13.570  23.962  0.00  0.00    +0.000 C 
ATOM     16  C   UNL     1      -3.053  12.156  23.596  0.00  0.00    +0.000 C 
ATOM     17  H   UNL     1      -2.300  15.064  21.206  0.00  0.00    +0.000 HD
ENDBRANCH   2   5
BRANCH   1  21
ATOM     18  N   UNL     1       2.716   6.197  19.427  0.00  0.00    +0.000 N 
ATOM     19  N   UNL     1       2.221   5.635  20.558  0.00  0.00    +0.000 NA
ATOM     20  C   UNL     1       1.488   6.582  21.133  0.00  0.00    +0.000 A 
ATOM     21  C   UNL     1       1.463   7.766  20.383  0.00  0.00    +0.000 A 
ATOM     22  C   UNL     1       2.254   7.509  19.275  0.00  0.00    +0.000 A 
ATOM     23  C   UNL     1       2.493   8.355  18.072  0.00  0.00    +0.000 C 
BRANCH  18  30
ATOM     24  C   UNL     1       7.349   5.192  17.975  0.00  0.00    +0.000 C 
ATOM     25  C   UNL     1       5.875   4.938  17.857  0.00  0.00    +0.000 A 
ATOM     26  C   UNL     1       5.376   4.015  16.941  0.00  0.00    +0.000 A 
ATOM     27  C   UNL     1       4.002   3.783  16.855  0.00  0.00    +0.000 A 
ATOM     28  C   UNL     1       3.089   4.482  17.665  0.00  0.00    +0.000 A 
ATOM     29  C   UNL     1       1.623   4.193  17.466  0.00  0.00    +0.000 C 
ATOM     30  C   UNL     1       3.587   5.438  18.582  0.00  0.00    +0.000 A 
ATOM     31  C   UNL     1       4.978   5.632  18.681  0.00  0.00    +0.000 A 
ENDBRANCH  18  30
ENDBRANCH   1  21
TORSDOF 3
ENDMDL
MODEL 2
REMARK VINA RESULT:      -8.4      3.018      9.956
REMARK  Name = 
REMARK  6 active torsions:
REMARK  status: ('A' for Active; 'I' for Inactive)
REMARK    1  A    between atoms: C_1  and  C_2
REMARK    2  A    between atoms: C_5  and  C_6
REMARK    3  A    between atoms: C_7  and  N_8
REMARK    4  A    between atoms: C_11  and  N_12
REMARK    5  A    between atoms: C_13  and  C_15
REMARK    6  A    between atoms: C_27  and  C_28
REMARK                            x       y       z     vdW  Elec       q    Type
REMARK                         _______ _______ _______ _____ _____    ______ ____
ROOT
ATOM      1  N   UNL     1       1.321   8.527  19.302  0.00  0.00    +0.000 N 
ATOM      2  C   UNL     1       2.136   8.292  18.212  0.00  0.00    +0.000 C 
ATOM      3  O   UNL     1       2.414   9.116  17.346  0.00  0.00    +0.000 OA
ATOM      4  H   UNL     1       1.140   7.771  19.951  0.00  0.00    +0.000 HD
ENDROOT
BRANCH   2   5
ATOM      5  C   UNL     1       2.705   6.916  18.095  0.00  0.00    +0.000 A 
ATOM      6  C   UNL     1       1.890   5.819  18.422  0.00  0.00    +0.000 A 
ATOM      7  C   UNL     1       2.388   4.510  18.338  0.00  0.00    +0.000 A 
ATOM      8  C   UNL     1       3.719   4.306  17.959  0.00  0.00    +0.000 A 
ATOM      9  C   UNL     1       4.535   5.382  17.625  0.00  0.00    +0.000 A 
ATOM     10  C   UNL     1       4.020   6.674  17.689  0.00  0.00    +0.000 A 
ATOM     11  F   UNL     1       4.841   7.685  17.364  0.00  0.00    +0.000 F 
ATOM     12  N   UNL     1       4.255   3.017  17.968  0.00  0.00    +0.000 N 
ATOM     13  C   UNL     1       3.521   1.883  18.192  0.00  0.00    +0.000 C 
ATOM     14  O   UNL     1       4.070   0.792  18.323  0.00  0.00    +0.000 OA
ATOM     15  C   UNL     1       2.021   2.039  18.128  0.00  0.00    +0.000 C 
ATOM     16  C   UNL     1       1.549   3.336  18.766  0.00  0.00    +0.000 C 
ATOM     17  H   UNL     1       5.253   2.876  17.867  0.00  0.00    +0.000 HD
ENDBRANCH   2   5
BRANCH   1  21
ATOM     18  N   UNL     1      -0.229  11.433  20.663  0.00  0.00    +0.000 N 
ATOM     19  N   UNL     1      -0.402  11.703  19.345  0.00  0.00    +0.000 NA
ATOM     20  C   UNL     1       0.168  10.692  18.699  0.00  0.00    +0.000 A 
ATOM     21  C   UNL     1       0.696   9.731  19.571  0.00  0.00    +0.000 A 
ATOM     22  C   UNL     1       0.430  10.211  20.843  0.00  0.00    +0.000 A 
ATOM     23  C   UNL     1       0.647   9.556  22.162  0.00  0.00    +0.000 C 
BRANCH  18  30
ATOM     24  C   UNL     1      -3.699  12.606  24.004  0.00  0.00    +0.000 C 
ATOM     25  C   UNL     1      -2.422  12.947  23.294  0.00  0.00    +0.000 A 
ATOM     26  C   UNL     1      -1.745  14.135  23.565  0.00  0.00    +0.000 A 
ATOM     27  C   UNL     1      -0.551  14.428  22.904  0.00  0.00    +0.000 A 
ATOM     28  C   UNL     1      -0.014  13.556  21.940  0.00  0.00    +0.000 A 
ATOM     29  C   UNL     1       1.256  13.984  21.249  0.00  0.00    +0.000 C 
ATOM     30  C   UNL     1      -0.708  12.359  21.644  0.00  0.00    +0.000 A 
ATOM     31  C   UNL     1      -1.892  12.063  22.346  0.00  0.00    +0.000 A 
ENDBRANCH  18  30
ENDBRANCH   1  21
TORSDOF 3
ENDMDL
MODEL 3
REMARK VINA RESULT:      -8.4      2.922      9.948
REMARK  Name = 
REMARK  6 active torsions:
REMARK  status: ('A' for Active; 'I' for Inactive)
REMARK    1  A    between atoms: C_1  and  C_2
REMARK    2  A    between atoms: C_5  and  C_6
REMARK    3  A    between atoms: C_7  and  N_8
REMARK    4  A    between atoms: C_11  and  N_12
REMARK    5  A    between atoms: C_13  and  C_15
REMARK    6  A    between atoms: C_27  and  C_28
REMARK                            x       y       z     vdW  Elec       q    Type
REMARK                         _______ _______ _______ _____ _____    ______ ____
ROOT
ATOM      1  N   UNL     1       1.425   8.677  20.257  0.00  0.00    +0.000 N 
ATOM      2  C   UNL     1       1.818   8.165  19.036  0.00  0.00    +0.000 C 
ATOM      3  O   UNL     1       1.582   8.677  17.945  0.00  0.00    +0.000 OA
ATOM      4  H   UNL     1       1.655   8.165  21.100  0.00  0.00    +0.000 HD
ENDROOT
BRANCH   2   5
ATOM      5  C   UNL     1       2.579   6.880  19.070  0.00  0.00    +0.000 A 
ATOM      6  C   UNL     1       2.221   5.909  20.021  0.00  0.00    +0.000 A 
ATOM      7  C   UNL     1       2.918   4.694  20.097  0.00  0.00    +0.000 A 
ATOM      8  C   UNL     1       3.998   4.468  19.238  0.00  0.00    +0.000 A 
ATOM      9  C   UNL     1       4.358   5.417  18.286  0.00  0.00    +0.000 A 
ATOM     10  C   UNL     1       3.642   6.609  18.206  0.00  0.00    +0.000 A 
ATOM     11  F   UNL     1       4.024   7.500  17.277  0.00  0.00    +0.000 F 
ATOM     12  N   UNL     1       4.761   3.307  19.370  0.00  0.00    +0.000 N 
ATOM     13  C   UNL     1       4.443   2.272  20.207  0.00  0.00    +0.000 C 
ATOM     14  O   UNL     1       5.223   1.339  20.381  0.00  0.00    +0.000 OA
ATOM     15  C   UNL     1       3.046   2.285  20.780  0.00  0.00    +0.000 C 
ATOM     16  C   UNL     1       2.596   3.685  21.167  0.00  0.00    +0.000 C 
ATOM     17  H   UNL     1       5.641   3.213  18.877  0.00  0.00    +0.000 HD
ENDBRANCH   2   5
BRANCH   1  21
ATOM     18  N   UNL     1      -0.461  11.493  21.358  0.00  0.00    +0.000 N 
ATOM     19  N   UNL     1      -0.451  11.757  20.027  0.00  0.00    +0.000 NA
ATOM     20  C   UNL     1       0.261  10.779  19.478  0.00  0.00    +0.000 A 
ATOM     21  C   UNL     1       0.705   9.845  20.424  0.00  0.00    +0.000 A 
ATOM     22  C   UNL     1       0.228  10.308  21.640  0.00  0.00    +0.000 A 
ATOM     23  C   UNL     1       0.283   9.662  22.980  0.00  0.00    +0.000 C 
BRANCH  18  30
ATOM     24  C   UNL     1      -4.289  12.338  24.394  0.00  0.00    +0.000 C 
ATOM     25  C   UNL     1      -3.020  12.816  23.751  0.00  0.00    +0.000 A 
ATOM     26  C   UNL     1      -2.527  14.096  23.999  0.00  0.00    +0.000 A 
ATOM     27  C   UNL     1      -1.337  14.518  23.403  0.00  0.00    +0.000 A 
ATOM     28  C   UNL     1      -0.621  13.683  22.526  0.00  0.00    +0.000 A 
ATOM     29  C   UNL     1       0.627  14.247  21.897  0.00  0.00    +0.000 C 
ATOM     30  C   UNL     1      -1.128  12.390  22.252  0.00  0.00    +0.000 A 
ATOM     31  C   UNL     1      -2.309  11.969  22.891  0.00  0.00    +0.000 A 
ENDBRANCH  18  30
ENDBRANCH   1  21
TORSDOF 3
ENDMDL
MODEL 4
REMARK VINA RESULT:      -8.3      3.164      9.785
REMARK  Name = 
REMARK  6 active torsions:
REMARK  status: ('A' for Active; 'I' for Inactive)
REMARK    1  A    between atoms: C_1  and  C_2
REMARK    2  A    between atoms: C_5  and  C_6
REMARK    3  A    between atoms: C_7  and  N_8
REMARK    4  A    between atoms: C_11  and  N_12
REMARK    5  A    between atoms: C_13  and  C_15
REMARK    6  A    between atoms: C_27  and  C_28
REMARK                            x       y       z     vdW  Elec       q    Type
REMARK                         _______ _______ _______ _____ _____    ______ ____
ROOT
ATOM      1  N   UNL     1       1.737   8.727  19.514  0.00  0.00    +0.000 N 
ATOM      2  C   UNL     1       2.255   8.142  18.374  0.00  0.00    +0.000 C 
ATOM      3  O   UNL     1       2.176   8.608  17.241  0.00  0.00    +0.000 OA
ATOM      4  H   UNL     1       1.841   8.249  20.401  0.00  0.00    +0.000 HD
ENDROOT
BRANCH   2   5
ATOM      5  C   UNL     1       2.952   6.834  18.560  0.00  0.00    +0.000 A 
ATOM      6  C   UNL     1       2.459   5.937  19.522  0.00  0.00    +0.000 A 
ATOM      7  C   UNL     1       3.091   4.703  19.739  0.00  0.00    +0.000 A 
ATOM      8  C   UNL     1       4.243   4.386  19.011  0.00  0.00    +0.000 A 
ATOM      9  C   UNL     1       4.737   5.261  18.049  0.00  0.00    +0.000 A 
ATOM     10  C   UNL     1       4.085   6.472  17.828  0.00  0.00    +0.000 A 
ATOM     11  F   UNL     1       4.598   7.290  16.895  0.00  0.00    +0.000 F 
ATOM     12  N   UNL     1       4.937   3.207  19.286  0.00  0.00    +0.000 N 
ATOM     13  C   UNL     1       4.492   2.238  20.143  0.00  0.00    +0.000 C 
ATOM     14  O   UNL     1       5.208   1.289  20.450  0.00  0.00    +0.000 OA
ATOM     15  C   UNL     1       3.046   2.337  20.566  0.00  0.00    +0.000 C 
ATOM     16  C   UNL     1       2.619   3.774  20.824  0.00  0.00    +0.000 C 
ATOM     17  H   UNL     1       5.858   3.051  18.894  0.00  0.00    +0.000 HD
ENDBRANCH   2   5
BRANCH   1  21
ATOM     18  N   UNL     1      -0.369  11.537  20.119  0.00  0.00    +0.000 N 
ATOM     19  N   UNL     1       0.253  11.981  18.998  0.00  0.00    +0.000 NA
ATOM     20  C   UNL     1       1.112  11.023  18.667  0.00  0.00    +0.000 A 
ATOM     21  C   UNL     1       1.051   9.927  19.538  0.00  0.00    +0.000 A 
ATOM     22  C   UNL     1       0.085  10.261  20.472  0.00  0.00    +0.000 A 
ATOM     23  C   UNL     1      -0.495   9.432  21.565  0.00  0.00    +0.000 C 
BRANCH  18  30
ATOM     24  C   UNL     1      -1.542  14.496  23.920  0.00  0.00    +0.000 C 
ATOM     25  C   UNL     1      -1.935  13.824  22.638  0.00  0.00    +0.000 A 
ATOM     26  C   UNL     1      -3.214  13.981  22.108  0.00  0.00    +0.000 A 
ATOM     27  C   UNL     1      -3.557  13.359  20.906  0.00  0.00    +0.000 A 
ATOM     28  C   UNL     1      -2.641  12.545  20.215  0.00  0.00    +0.000 A 
ATOM     29  C   UNL     1      -3.121  11.881  18.950  0.00  0.00    +0.000 C 
ATOM     30  C   UNL     1      -1.347  12.363  20.759  0.00  0.00    +0.000 A 
ATOM     31  C   UNL     1      -1.007  13.028  21.953  0.00  0.00    +0.000 A 
ENDBRANCH  18  30
ENDBRANCH   1  21
TORSDOF 3
ENDMDL
MODEL 5
REMARK VINA RESULT:      -8.2      1.248      1.958
REMARK  Name = 
REMARK  6 active torsions:
REMARK  status: ('A' for Active; 'I' for Inactive)
REMARK    1  A    between atoms: C_1  and  C_2
REMARK    2  A    between atoms: C_5  and  C_6
REMARK    3  A    between atoms: C_7  and  N_8
REMARK    4  A    between atoms: C_11  and  N_12
REMARK    5  A    between atoms: C_13  and  C_15
REMARK    6  A    between atoms: C_27  and  C_28
REMARK                            x       y       z     vdW  Elec       q    Type
REMARK                         _______ _______ _______ _____ _____    ______ ____
ROOT
ATOM      1  N   UNL     1       0.833   8.906  20.619  0.00  0.00    +0.000 N 
ATOM      2  C   UNL     1       1.005   9.695  21.740  0.00  0.00    +0.000 C 
ATOM      3  O   UNL     1       1.773   9.450  22.666  0.00  0.00    +0.000 OA
ATOM      4  H   UNL     1       0.158   9.190  19.919  0.00  0.00    +0.000 HD
ENDROOT
BRANCH   2   5
ATOM      5  C   UNL     1       0.173  10.933  21.813  0.00  0.00    +0.000 A 
ATOM      6  C   UNL     1       0.501  12.016  20.979  0.00  0.00    +0.000 A 
ATOM      7  C   UNL     1      -0.245  13.203  21.025  0.00  0.00    +0.000 A 
ATOM      8  C   UNL     1      -1.302  13.314  21.935  0.00  0.00    +0.000 A 
ATOM      9  C   UNL     1      -1.642  12.247  22.760  0.00  0.00    +0.000 A 
ATOM     10  C   UNL     1      -0.908  11.067  22.687  0.00  0.00    +0.000 A 
ATOM     11  F   UNL     1      -1.266  10.063  23.505  0.00  0.00    +0.000 F 
ATOM     12  N   UNL     1      -1.988  14.524  22.059  0.00  0.00    +0.000 N 
ATOM     13  C   UNL     1      -1.796  15.602  21.239  0.00  0.00    +0.000 C 
ATOM     14  O   UNL     1      -2.328  16.682  21.482  0.00  0.00    +0.000 OA
ATOM     15  C   UNL     1      -1.018  15.343  19.971  0.00  0.00    +0.000 C 
ATOM     16  C   UNL     1       0.151  14.396  20.196  0.00  0.00    +0.000 C 
ATOM     17  H   UNL     1      -2.631  14.671  22.828  0.00  0.00    +0.000 HD
ENDBRANCH   2   5
BRANCH   1  21
ATOM     18  N   UNL     1       2.753   6.158  19.411  0.00  0.00    +0.000 N 
ATOM     19  N   UNL     1       2.260   5.587  20.539  0.00  0.00    +0.000 NA
ATOM     20  C   UNL     1       1.529   6.531  21.123  0.00  0.00    +0.000 A 
ATOM     21  C   UNL     1       1.503   7.721  20.382  0.00  0.00    +0.000 A 
ATOM     22  C   UNL     1       2.291   7.472  19.270  0.00  0.00    +0.000 A 
ATOM     23  C   UNL     1       2.528   8.326  18.073  0.00  0.00    +0.000 C 
BRANCH  18  30
ATOM     24  C   UNL     1       7.379   5.176  17.921  0.00  0.00    +0.000 C 
ATOM     25  C   UNL     1       5.905   4.916  17.814  0.00  0.00    +0.000 A 
ATOM     26  C   UNL     1       5.403   3.992  16.900  0.00  0.00    +0.000 A 
ATOM     27  C   UNL     1       4.030   3.754  16.825  0.00  0.00    +0.000 A 
ATOM     28  C   UNL     1       3.120   4.448  17.643  0.00  0.00    +0.000 A 
ATOM     29  C   UNL     1       1.654   4.152  17.454  0.00  0.00    +0.000 C 
ATOM     30  C   UNL     1       3.621   5.404  18.558  0.00  0.00    +0.000 A 
ATOM     31  C   UNL     1       5.011   5.604  18.646  0.00  0.00    +0.000 A 
ENDBRANCH  18  30
ENDBRANCH   1  21
TORSDOF 3
ENDMDL
MODEL 6
REMARK VINA RESULT:      -8.1      3.141      9.864
REMARK  Name = 
REMARK  6 active torsions:
REMARK  status: ('A' for Active; 'I' for Inactive)
REMARK    1  A    between atoms: C_1  and  C_2
REMARK    2  A    between atoms: C_5  and  C_6
REMARK    3  A    between atoms: C_7  and  N_8
REMARK    4  A    between atoms: C_11  and  N_12
REMARK    5  A    between atoms: C_13  and  C_15
REMARK    6  A    between atoms: C_27  and  C_28
REMARK                            x       y       z     vdW  Elec       q    Type
REMARK                         _______ _______ _______ _____ _____    ______ ____
ROOT
ATOM      1  N   UNL     1       1.745   8.735  19.275  0.00  0.00    +0.000 N 
ATOM      2  C   UNL     1       2.271   8.302  18.074  0.00  0.00    +0.000 C 
ATOM      3  O   UNL     1       2.310   8.961  17.039  0.00  0.00    +0.000 OA
ATOM      4  H   UNL     1       1.745   8.104  20.067  0.00  0.00    +0.000 HD
ENDROOT
BRANCH   2   5
ATOM      5  C   UNL     1       2.822   6.913  18.055  0.00  0.00    +0.000 A 
ATOM      6  C   UNL     1       1.960   5.841  18.345  0.00  0.00    +0.000 A 
ATOM      7  C   UNL     1       2.438   4.523  18.351  0.00  0.00    +0.000 A 
ATOM      8  C   UNL     1       3.794   4.284  18.101  0.00  0.00    +0.000 A 
ATOM      9  C   UNL     1       4.656   5.335  17.805  0.00  0.00    +0.000 A 
ATOM     10  C   UNL     1       4.162   6.636  17.778  0.00  0.00    +0.000 A 
ATOM     11  F   UNL     1       5.029   7.622  17.494  0.00  0.00    +0.000 F 
ATOM     12  N   UNL     1       4.302   2.988  18.202  0.00  0.00    +0.000 N 
ATOM     13  C   UNL     1       3.530   1.875  18.397  0.00  0.00    +0.000 C 
ATOM     14  O   UNL     1       4.043   0.781  18.614  0.00  0.00    +0.000 OA
ATOM     15  C   UNL     1       2.044   2.052  18.192  0.00  0.00    +0.000 C 
ATOM     16  C   UNL     1       1.542   3.378  18.741  0.00  0.00    +0.000 C 
ATOM     17  H   UNL     1       5.302   2.828  18.196  0.00  0.00    +0.000 HD
ENDBRANCH   2   5
BRANCH   1  21
ATOM     18  N   UNL     1      -0.143  11.603  20.234  0.00  0.00    +0.000 N 
ATOM     19  N   UNL     1       0.668  12.185  19.314  0.00  0.00    +0.000 NA
ATOM     20  C   UNL     1       1.467  11.215  18.882  0.00  0.00    +0.000 A 
ATOM     21  C   UNL     1       1.181   9.981  19.481  0.00  0.00    +0.000 A 
ATOM     22  C   UNL     1       0.133  10.235  20.351  0.00  0.00    +0.000 A 
ATOM     23  C   UNL     1      -0.669   9.280  21.164  0.00  0.00    +0.000 C 
BRANCH  18  30
ATOM     24  C   UNL     1      -1.234  14.486  24.117  0.00  0.00    +0.000 C 
ATOM     25  C   UNL     1      -1.662  13.819  22.843  0.00  0.00    +0.000 A 
ATOM     26  C   UNL     1      -2.964  13.950  22.366  0.00  0.00    +0.000 A 
ATOM     27  C   UNL     1      -3.340  13.333  21.171  0.00  0.00    +0.000 A 
ATOM     28  C   UNL     1      -2.433  12.551  20.433  0.00  0.00    +0.000 A 
ATOM     29  C   UNL     1      -2.947  11.890  19.180  0.00  0.00    +0.000 C 
ATOM     30  C   UNL     1      -1.114  12.396  20.923  0.00  0.00    +0.000 A 
ATOM     31  C   UNL     1      -0.743  13.055  22.111  0.00  0.00    +0.000 A 
ENDBRANCH  18  30
ENDBRANCH   1  21
TORSDOF 3
ENDMDL
MODEL 7
REMARK VINA RESULT:      -8.1      2.542      9.929
REMARK  Name = 
REMARK  6 active torsions:
REMARK  status: ('A' for Active; 'I' for Inactive)
REMARK    1  A    between atoms: C_1  and  C_2
REMARK    2  A    between atoms: C_5  and  C_6
REMARK    3  A    between atoms: C_7  and  N_8
REMARK    4  A    between atoms: C_11  and  N_12
REMARK    5  A    between atoms: C_13  and  C_15
REMARK    6  A    between atoms: C_27  and  C_28
REMARK                            x       y       z     vdW  Elec       q    Type
REMARK                         _______ _______ _______ _____ _____    ______ ____
ROOT
ATOM      1  N   UNL     1       1.047  10.525  20.622  0.00  0.00    +0.000 N 
ATOM      2  C   UNL     1       0.671   9.745  19.546  0.00  0.00    +0.000 C 
ATOM      3  O   UNL     1      -0.287   9.967  18.810  0.00  0.00    +0.000 OA
ATOM      4  H   UNL     1       1.844  10.242  21.178  0.00  0.00    +0.000 HD
ENDROOT
BRANCH   2   5
ATOM      5  C   UNL     1       1.505   8.535  19.281  0.00  0.00    +0.000 A 
ATOM      6  C   UNL     1       1.475   7.478  20.209  0.00  0.00    +0.000 A 
ATOM      7  C   UNL     1       2.253   6.329  20.006  0.00  0.00    +0.000 A 
ATOM      8  C   UNL     1       3.090   6.255  18.888  0.00  0.00    +0.000 A 
ATOM      9  C   UNL     1       3.123   7.289  17.957  0.00  0.00    +0.000 A 
ATOM     10  C   UNL     1       2.327   8.414  18.159  0.00  0.00    +0.000 A 
ATOM     11  F   UNL     1       2.393   9.391  17.240  0.00  0.00    +0.000 F 
ATOM     12  N   UNL     1       3.942   5.161  18.727  0.00  0.00    +0.000 N 
ATOM     13  C   UNL     1       3.925   4.053  19.529  0.00  0.00    +0.000 C 
ATOM     14  O   UNL     1       4.788   3.185  19.424  0.00  0.00    +0.000 OA
ATOM     15  C   UNL     1       2.725   3.904  20.434  0.00  0.00    +0.000 C 
ATOM     16  C   UNL     1       2.290   5.231  21.036  0.00  0.00    +0.000 C 
ATOM     17  H   UNL     1       4.670   5.178  18.024  0.00  0.00    +0.000 HD
ENDBRANCH   2   5
BRANCH   1  21
ATOM     18  N   UNL     1      -0.910  13.072  22.166  0.00  0.00    +0.000 N 
ATOM     19  N   UNL     1      -0.435  13.784  21.112  0.00  0.00    +0.000 NA
ATOM     20  C   UNL     1       0.354  12.948  20.447  0.00  0.00    +0.000 A 
ATOM     21  C   UNL     1       0.391  11.672  21.027  0.00  0.00    +0.000 A 
ATOM     22  C   UNL     1      -0.435  11.756  22.136  0.00  0.00    +0.000 A 
ATOM     23  C   UNL     1      -0.878  10.678  23.064  0.00  0.00    +0.000 C 
BRANCH  18  30
ATOM     24  C   UNL     1      -1.386  15.958  26.169  0.00  0.00    +0.000 C 
ATOM     25  C   UNL     1      -2.020  15.127  25.094  0.00  0.00    +0.000 A 
ATOM     26  C   UNL     1      -3.403  14.959  25.037  0.00  0.00    +0.000 A 
ATOM     27  C   UNL     1      -3.976  14.193  24.021  0.00  0.00    +0.000 A 
ATOM     28  C   UNL     1      -3.184  13.556  23.048  0.00  0.00    +0.000 A 
ATOM     29  C   UNL     1      -3.894  12.714  22.018  0.00  0.00    +0.000 C 
ATOM     30  C   UNL     1      -1.778  13.704  23.112  0.00  0.00    +0.000 A 
ATOM     31  C   UNL     1      -1.220  14.510  24.123  0.00  0.00    +0.000 A 
ENDBRANCH  18  30
ENDBRANCH   1  21
TORSDOF 3
ENDMDL
MODEL 8
REMARK VINA RESULT:      -8.0      1.687      2.277
REMARK  Name = 
REMARK  6 active torsions:
REMARK  status: ('A' for Active; 'I' for Inactive)
REMARK    1  A    between atoms: C_1  and  C_2
REMARK    2  A    between atoms: C_5  and  C_6
REMARK    3  A    between atoms: C_7  and  N_8
REMARK    4  A    between atoms: C_11  and  N_12
REMARK    5  A    between atoms: C_13  and  C_15
REMARK    6  A    between atoms: C_27  and  C_28
REMARK                            x       y       z     vdW  Elec       q    Type
REMARK                         _______ _______ _______ _____ _____    ______ ____
ROOT
ATOM      1  N   UNL     1       0.262   9.621  19.779  0.00  0.00    +0.000 N 
ATOM      2  C   UNL     1       0.461  10.823  20.431  0.00  0.00    +0.000 C 
ATOM      3  O   UNL     1       1.490  11.491  20.385  0.00  0.00    +0.000 OA
ATOM      4  H   UNL     1      -0.620   9.139  19.898  0.00  0.00    +0.000 HD
ENDROOT
BRANCH   2   5
ATOM      5  C   UNL     1      -0.677  11.324  21.258  0.00  0.00    +0.000 A 
ATOM      6  C   UNL     1      -1.605  12.201  20.669  0.00  0.00    +0.000 A 
ATOM      7  C   UNL     1      -2.681  12.706  21.412  0.00  0.00    +0.000 A 
ATOM      8  C   UNL     1      -2.807  12.357  22.761  0.00  0.00    +0.000 A 
ATOM      9  C   UNL     1      -1.901  11.483  23.355  0.00  0.00    +0.000 A 
ATOM     10  C   UNL     1      -0.851  10.971  22.598  0.00  0.00    +0.000 A 
ATOM     11  F   UNL     1       0.004  10.136  23.210  0.00  0.00    +0.000 F 
ATOM     12  N   UNL     1      -3.816  12.930  23.537  0.00  0.00    +0.000 N 
ATOM     13  C   UNL     1      -4.809  13.727  23.036  0.00  0.00    +0.000 C 
ATOM     14  O   UNL     1      -5.586  14.312  23.785  0.00  0.00    +0.000 OA
ATOM     15  C   UNL     1      -4.969  13.725  21.534  0.00  0.00    +0.000 C 
ATOM     16  C   UNL     1      -3.630  13.710  20.813  0.00  0.00    +0.000 C 
ATOM     17  H   UNL     1      -3.811  12.823  24.544  0.00  0.00    +0.000 HD
ENDBRANCH   2   5
BRANCH   1  21
ATOM     18  N   UNL     1       2.745   7.566  18.258  0.00  0.00    +0.000 N 
ATOM     19  N   UNL     1       2.650   8.521  17.300  0.00  0.00    +0.000 NA
ATOM     20  C   UNL     1       1.715   9.362  17.729  0.00  0.00    +0.000 A 
ATOM     21  C   UNL     1       1.202   8.996  18.981  0.00  0.00    +0.000 A 
ATOM     22  C   UNL     1       1.877   7.836  19.323  0.00  0.00    +0.000 A 
ATOM     23  C   UNL     1       1.838   7.064  20.597  0.00  0.00    +0.000 C 
BRANCH  18  30
ATOM     24  C   UNL     1       7.443   6.006  17.988  0.00  0.00    +0.000 C 
ATOM     25  C   UNL     1       5.976   5.698  17.944  0.00  0.00    +0.000 A 
ATOM     26  C   UNL     1       5.521   4.401  17.716  0.00  0.00    +0.000 A 
ATOM     27  C   UNL     1       4.151   4.131  17.692  0.00  0.00    +0.000 A 
ATOM     28  C   UNL     1       3.200   5.152  17.873  0.00  0.00    +0.000 A 
ATOM     29  C   UNL     1       1.746   4.767  17.785  0.00  0.00    +0.000 C 
ATOM     30  C   UNL     1       3.655   6.475  18.083  0.00  0.00    +0.000 A 
ATOM     31  C   UNL     1       5.040   6.722  18.140  0.00  0.00    +0.000 A 
ENDBRANCH  18  30
ENDBRANCH   1  21
TORSDOF 3
ENDMDL
MODEL 9
REMARK VINA RESULT:      -8.0      3.127     10.058
REMARK  Name = 
REMARK  6 active torsions:
REMARK  status: ('A' for Active; 'I' for Inactive)
REMARK    1  A    between atoms: C_1  and  C_2
REMARK    2  A    between atoms: C_5  and  C_6
REMARK    3  A    between atoms: C_7  and  N_8
REMARK    4  A    between atoms: C_11  and  N_12
REMARK    5  A    between atoms: C_13  and  C_15
REMARK    6  A    between atoms: C_27  and  C_28
REMARK                            x       y       z     vdW  Elec       q    Type
REMARK                         _______ _______ _______ _____ _____    ______ ____
ROOT
ATOM      1  N   UNL     1       1.996   8.080  19.754  0.00  0.00    +0.000 N 
ATOM      2  C   UNL     1       2.044   6.712  19.945  0.00  0.00    +0.000 C 
ATOM      3  O   UNL     1       1.544   6.111  20.892  0.00  0.00    +0.000 OA
ATOM      4  H   UNL     1       2.457   8.479  18.946  0.00  0.00    +0.000 HD
ENDROOT
BRANCH   2   5
ATOM      5  C   UNL     1       2.776   5.925  18.908  0.00  0.00    +0.000 A 
ATOM      6  C   UNL     1       3.932   6.479  18.332  0.00  0.00    +0.000 A 
ATOM      7  C   UNL     1       4.643   5.779  17.345  0.00  0.00    +0.000 A 
ATOM      8  C   UNL     1       4.172   4.536  16.912  0.00  0.00    +0.000 A 
ATOM      9  C   UNL     1       3.034   3.972  17.480  0.00  0.00    +0.000 A 
ATOM     10  C   UNL     1       2.352   4.667  18.476  0.00  0.00    +0.000 A 
ATOM     11  F   UNL     1       1.256   4.090  18.993  0.00  0.00    +0.000 F 
ATOM     12  N   UNL     1       4.814   3.876  15.863  0.00  0.00    +0.000 N 
ATOM     13  C   UNL     1       5.987   4.295  15.297  0.00  0.00    +0.000 C 
ATOM     14  O   UNL     1       6.431   3.751  14.289  0.00  0.00    +0.000 OA
ATOM     15  C   UNL     1       6.751   5.352  16.057  0.00  0.00    +0.000 C 
ATOM     16  C   UNL     1       5.833   6.402  16.664  0.00  0.00    +0.000 C 
ATOM     17  H   UNL     1       4.385   3.068  15.427  0.00  0.00    +0.000 HD
ENDBRANCH   2   5
BRANCH   1  21
ATOM     18  N   UNL     1       0.245  10.726  21.377  0.00  0.00    +0.000 N 
ATOM     19  N   UNL     1       0.663  10.048  22.476  0.00  0.00    +0.000 NA
ATOM     20  C   UNL     1       1.322   8.992  22.011  0.00  0.00    +0.000 A 
ATOM     21  C   UNL     1       1.375   8.971  20.611  0.00  0.00    +0.000 A 
ATOM     22  C   UNL     1       0.683  10.099  20.204  0.00  0.00    +0.000 A 
ATOM     23  C   UNL     1       0.519  10.661  18.835  0.00  0.00    +0.000 C 
BRANCH  18  30
ATOM     24  C   UNL     1      -4.174  12.770  22.313  0.00  0.00    +0.000 C 
ATOM     25  C   UNL     1      -2.717  12.933  21.992  0.00  0.00    +0.000 A 
ATOM     26  C   UNL     1      -2.155  14.198  21.830  0.00  0.00    +0.000 A 
ATOM     27  C   UNL     1      -0.795  14.330  21.545  0.00  0.00    +0.000 A 
ATOM     28  C   UNL     1       0.035  13.204  21.392  0.00  0.00    +0.000 A 
ATOM     29  C   UNL     1       1.480  13.450  21.040  0.00  0.00    +0.000 C 
ATOM     30  C   UNL     1      -0.535  11.916  21.534  0.00  0.00    +0.000 A 
ATOM     31  C   UNL     1      -1.900  11.803  21.857  0.00  0.00    +0.000 A 
ENDBRANCH  18  30
ENDBRANCH   1  21
TORSDOF 3
ENDMDL
