MODEL 1
REMARK VINA RESULT:      -9.4      0.000      0.000
REMARK  Name = 
REMARK  4 active torsions:
REMARK  status: ('A' for Active; 'I' for Inactive)
REMARK    1  A    between atoms: C_1  and  C_2
REMARK    2  A    between atoms: C_6  and  C_8
REMARK    3  A    between atoms: C_12  and  N_13
REMARK    4  A    between atoms: C_21  and  C_22
REMARK                            x       y       z     vdW  Elec       q    Type
REMARK                         _______ _______ _______ _____ _____    ______ ____
ROOT
ATOM      1  C   UNL     1       3.626   2.534  19.537  0.00  0.00    +0.000 C 
ATOM      2  C   UNL     1       3.256   3.968  19.692  0.00  0.00    +0.000 A 
ATOM      3  S   UNL     1       2.077   4.475  20.855  0.00  0.00    +0.000 S 
ATOM      4  C   UNL     1       2.299   6.095  20.369  0.00  0.00    +0.000 A 
ATOM      5  N   UNL     1       1.516   7.032  20.995  0.00  0.00    +0.000 N 
ATOM      6  C   UNL     1       1.327   8.282  20.410  0.00  0.00    +0.000 C 
ATOM      7  O   UNL     1       1.778   8.662  19.351  0.00  0.00    +0.000 OA
ATOM      8  N   UNL     1       3.198   6.292  19.446  0.00  0.00    +0.000 NA
ATOM      9  C   UNL     1       3.742   5.089  19.036  0.00  0.00    +0.000 A 
ATOM     10  H   UNL     1       1.033   6.748  21.827  0.00  0.00    +0.000 HD
ENDROOT
BRANCH   9  11
ATOM     11  C   UNL     1       4.748   5.095  17.980  0.00  0.00    +0.000 A 
ATOM     12  C   UNL     1       6.111   5.293  18.253  0.00  0.00    +0.000 A 
ATOM     13  C   UNL     1       7.077   5.233  17.248  0.00  0.00    +0.000 A 
ATOM     14  C   UNL     1       6.662   4.925  15.972  0.00  0.00    +0.000 A 
ATOM     15  C   UNL     1       5.318   4.683  15.686  0.00  0.00    +0.000 A 
ATOM     16  C   UNL     1       4.350   4.795  16.672  0.00  0.00    +0.000 A 
ATOM     17  C   UNL     1       5.113   4.268  14.268  0.00  0.00    +0.000 C 
ATOM     18  C   UNL     1       6.551   4.135  13.744  0.00  0.00    +0.000 C 
ATOM     19  C   UNL     1       7.498   4.826  14.738  0.00  0.00    +0.000 C 
ENDBRANCH   9  11
BRANCH   6  20
ATOM     20  C   UNL     1       0.453   9.240  21.153  0.00  0.00    +0.000 A 
ATOM     21  C   UNL     1      -0.018   8.962  22.443  0.00  0.00    +0.000 A 
ATOM     22  C   UNL     1      -0.646   9.959  23.180  0.00  0.00    +0.000 A 
ATOM     23  C   UNL     1      -0.774  11.239  22.644  0.00  0.00    +0.000 A 
ATOM     24  C   UNL     1      -0.311  11.542  21.361  0.00  0.00    +0.000 A 
ATOM     25  C   UNL     1       0.261  10.524  20.595  0.00  0.00    +0.000 A 
BRANCH  24  26
ATOM     26  N   UNL     1      -0.367  12.880  20.913  0.00  0.00    +0.000 N 
ATOM     27  C   UNL     1      -1.373  13.420  20.058  0.00  0.00    +0.000 C 
ATOM     28  C   UNL     1      -1.020  14.892  20.039  0.00  0.00    +0.000 C 
ATOM     29  O   UNL     1       0.339  14.969  20.457  0.00  0.00    +0.000 OA
ATOM     30  C   UNL     1       0.655  13.796  21.078  0.00  0.00    +0.000 C 
ATOM     31  O   UNL     1       1.730  13.649  21.649  0.00  0.00    +0.000 OA
ENDBRANCH  24  26
ENDBRANCH   6  20
TORSDOF 3
ENDMDL
MODEL 2
REMARK VINA RESULT:      -9.2      0.777      1.117
REMARK  Name = 
REMARK  4 active torsions:
REMARK  status: ('A' for Active; 'I' for Inactive)
REMARK    1  A    between atoms: C_1  and  C_2
REMARK    2  A    between atoms: C_6  and  C_8
REMARK    3  A    between atoms: C_12  and  N_13
REMARK    4  A    between atoms: C_21  and  C_22
REMARK                            x       y       z     vdW  Elec       q    Type
REMARK                         _______ _______ _______ _____ _____    ______ ____
ROOT
ATOM      1  C   UNL     1       3.797   2.634  19.376  0.00  0.00    +0.000 C 
ATOM      2  C   UNL     1       3.391   4.057  19.546  0.00  0.00    +0.000 A 
ATOM      3  S   UNL     1       2.228   4.528  20.739  0.00  0.00    +0.000 S 
ATOM      4  C   UNL     1       2.395   6.155  20.254  0.00  0.00    +0.000 A 
ATOM      5  N   UNL     1       1.602   7.069  20.902  0.00  0.00    +0.000 N 
ATOM      6  C   UNL     1       1.364   8.315  20.327  0.00  0.00    +0.000 C 
ATOM      7  O   UNL     1       1.779   8.710  19.258  0.00  0.00    +0.000 OA
ATOM      8  N   UNL     1       3.265   6.379  19.310  0.00  0.00    +0.000 NA
ATOM      9  C   UNL     1       3.831   5.193  18.882  0.00  0.00    +0.000 A 
ATOM     10  H   UNL     1       1.148   6.768  21.745  0.00  0.00    +0.000 HD
ENDROOT
BRANCH   9  11
ATOM     11  C   UNL     1       4.809   5.229  17.802  0.00  0.00    +0.000 A 
ATOM     12  C   UNL     1       6.150   5.583  18.025  0.00  0.00    +0.000 A 
ATOM     13  C   UNL     1       7.097   5.554  17.001  0.00  0.00    +0.000 A 
ATOM     14  C   UNL     1       6.691   5.119  15.760  0.00  0.00    +0.000 A 
ATOM     15  C   UNL     1       5.375   4.721  15.526  0.00  0.00    +0.000 A 
ATOM     16  C   UNL     1       4.420   4.801  16.528  0.00  0.00    +0.000 A 
ATOM     17  C   UNL     1       5.187   4.191  14.145  0.00  0.00    +0.000 C 
ATOM     18  C   UNL     1       6.620   4.171  13.592  0.00  0.00    +0.000 C 
ATOM     19  C   UNL     1       7.509   5.022  14.513  0.00  0.00    +0.000 C 
ENDBRANCH   9  11
BRANCH   6  20
ATOM     20  C   UNL     1       0.484   9.246  21.095  0.00  0.00    +0.000 A 
ATOM     21  C   UNL     1       0.027   8.937  22.383  0.00  0.00    +0.000 A 
ATOM     22  C   UNL     1      -0.609   9.912  23.143  0.00  0.00    +0.000 A 
ATOM     23  C   UNL     1      -0.759  11.199  22.633  0.00  0.00    +0.000 A 
ATOM     24  C   UNL     1      -0.310  11.533  21.353  0.00  0.00    +0.000 A 
ATOM     25  C   UNL     1       0.269  10.537  20.564  0.00  0.00    +0.000 A 
BRANCH  24  26
ATOM     26  N   UNL     1      -0.388  12.879  20.931  0.00  0.00    +0.000 N 
ATOM     27  C   UNL     1       0.551  13.900  21.263  0.00  0.00    +0.000 C 
ATOM     28  C   UNL     1       0.059  15.068  20.434  0.00  0.00    +0.000 C 
ATOM     29  O   UNL     1      -1.295  14.769  20.112  0.00  0.00    +0.000 OA
ATOM     30  C   UNL     1      -1.491  13.433  20.308  0.00  0.00    +0.000 C 
ATOM     31  O   UNL     1      -2.539  12.889  19.979  0.00  0.00    +0.000 OA
ENDBRANCH  24  26
ENDBRANCH   6  20
TORSDOF 3
ENDMDL
MODEL 3
REMARK VINA RESULT:      -9.0      2.840     10.095
REMARK  Name = 
REMARK  4 active torsions:
REMARK  status: ('A' for Active; 'I' for Inactive)
REMARK    1  A    between atoms: C_1  and  C_2
REMARK    2  A    between atoms: C_6  and  C_8
REMARK    3  A    between atoms: C_12  and  N_13
REMARK    4  A    between atoms: C_21  and  C_22
REMARK                            x       y       z     vdW  Elec       q    Type
REMARK                         _______ _______ _______ _____ _____    ______ ____
ROOT
ATOM      1  C   UNL     1       0.284  12.255  18.310  0.00  0.00    +0.000 C 
ATOM      2  C   UNL     1       0.720  10.953  18.886  0.00  0.00    +0.000 A 
ATOM      3  S   UNL     1       1.879   9.952  18.079  0.00  0.00    +0.000 S 
ATOM      4  C   UNL     1       1.774   8.813  19.345  0.00  0.00    +0.000 A 
ATOM      5  N   UNL     1       2.531   7.677  19.209  0.00  0.00    +0.000 N 
ATOM      6  C   UNL     1       2.220   6.541  19.951  0.00  0.00    +0.000 C 
ATOM      7  O   UNL     1       1.303   6.417  20.734  0.00  0.00    +0.000 OA
ATOM      8  N   UNL     1       0.981   9.132  20.329  0.00  0.00    +0.000 NA
ATOM      9  C   UNL     1       0.359  10.341  20.078  0.00  0.00    +0.000 A 
ATOM     10  H   UNL     1       3.246   7.682  18.504  0.00  0.00    +0.000 HD
ENDROOT
BRANCH   9  11
ATOM     11  C   UNL     1      -0.597  10.856  21.050  0.00  0.00    +0.000 A 
ATOM     12  C   UNL     1      -0.557  10.480  22.403  0.00  0.00    +0.000 A 
ATOM     13  C   UNL     1      -1.433  11.026  23.342  0.00  0.00    +0.000 A 
ATOM     14  C   UNL     1      -2.318  11.989  22.915  0.00  0.00    +0.000 A 
ATOM     15  C   UNL     1      -2.346  12.408  21.585  0.00  0.00    +0.000 A 
ATOM     16  C   UNL     1      -1.515  11.830  20.640  0.00  0.00    +0.000 A 
ATOM     17  C   UNL     1      -3.308  13.529  21.372  0.00  0.00    +0.000 C 
ATOM     18  C   UNL     1      -3.769  13.856  22.800  0.00  0.00    +0.000 C 
ATOM     19  C   UNL     1      -3.359  12.696  23.721  0.00  0.00    +0.000 C 
ENDBRANCH   9  11
BRANCH   6  20
ATOM     20  C   UNL     1       3.090   5.345  19.736  0.00  0.00    +0.000 A 
ATOM     21  C   UNL     1       2.745   4.082  20.234  0.00  0.00    +0.000 A 
ATOM     22  C   UNL     1       3.465   2.961  19.835  0.00  0.00    +0.000 A 
ATOM     23  C   UNL     1       4.503   3.097  18.917  0.00  0.00    +0.000 A 
ATOM     24  C   UNL     1       4.865   4.345  18.404  0.00  0.00    +0.000 A 
ATOM     25  C   UNL     1       4.186   5.479  18.854  0.00  0.00    +0.000 A 
BRANCH  24  26
ATOM     26  N   UNL     1       5.850   4.409  17.394  0.00  0.00    +0.000 N 
ATOM     27  C   UNL     1       5.633   4.120  16.014  0.00  0.00    +0.000 C 
ATOM     28  C   UNL     1       6.965   4.492  15.397  0.00  0.00    +0.000 C 
ATOM     29  O   UNL     1       7.901   4.492  16.469  0.00  0.00    +0.000 OA
ATOM     30  C   UNL     1       7.202   4.562  17.638  0.00  0.00    +0.000 C 
ATOM     31  O   UNL     1       7.774   4.707  18.713  0.00  0.00    +0.000 OA
ENDBRANCH  24  26
ENDBRANCH   6  20
TORSDOF 3
ENDMDL
MODEL 4
REMARK VINA RESULT:      -8.9      0.927      1.088
REMARK  Name = 
REMARK  4 active torsions:
REMARK  status: ('A' for Active; 'I' for Inactive)
REMARK    1  A    between atoms: C_1  and  C_2
REMARK    2  A    between atoms: C_6  and  C_8
REMARK    3  A    between atoms: C_12  and  N_13
REMARK    4  A    between atoms: C_21  and  C_22
REMARK                            x       y       z     vdW  Elec       q    Type
REMARK                         _______ _______ _______ _____ _____    ______ ____
ROOT
ATOM      1  C   UNL     1       3.867   2.140  18.164  0.00  0.00    +0.000 C 
ATOM      2  C   UNL     1       3.560   3.563  18.478  0.00  0.00    +0.000 A 
ATOM      3  S   UNL     1       2.468   3.991  19.752  0.00  0.00    +0.000 S 
ATOM      4  C   UNL     1       2.724   5.643  19.412  0.00  0.00    +0.000 A 
ATOM      5  N   UNL     1       2.013   6.539  20.171  0.00  0.00    +0.000 N 
ATOM      6  C   UNL     1       1.839   7.846  19.722  0.00  0.00    +0.000 C 
ATOM      7  O   UNL     1       2.245   8.313  18.679  0.00  0.00    +0.000 OA
ATOM      8  N   UNL     1       3.577   5.901  18.462  0.00  0.00    +0.000 NA
ATOM      9  C   UNL     1       4.052   4.727  17.906  0.00  0.00    +0.000 A 
ATOM     10  H   UNL     1       1.566   6.189  20.998  0.00  0.00    +0.000 HD
ENDROOT
BRANCH   9  11
ATOM     11  C   UNL     1       4.997   4.805  16.799  0.00  0.00    +0.000 A 
ATOM     12  C   UNL     1       6.334   5.191  16.988  0.00  0.00    +0.000 A 
ATOM     13  C   UNL     1       7.251   5.201  15.936  0.00  0.00    +0.000 A 
ATOM     14  C   UNL     1       6.820   4.773  14.701  0.00  0.00    +0.000 A 
ATOM     15  C   UNL     1       5.508   4.344  14.500  0.00  0.00    +0.000 A 
ATOM     16  C   UNL     1       4.581   4.384  15.530  0.00  0.00    +0.000 A 
ATOM     17  C   UNL     1       5.293   3.829  13.117  0.00  0.00    +0.000 C 
ATOM     18  C   UNL     1       6.709   3.854  12.523  0.00  0.00    +0.000 C 
ATOM     19  C   UNL     1       7.602   4.715  13.429  0.00  0.00    +0.000 C 
ENDBRANCH   9  11
BRANCH   6  20
ATOM     20  C   UNL     1       1.044   8.753  20.604  0.00  0.00    +0.000 A 
ATOM     21  C   UNL     1       0.760   8.425  21.936  0.00  0.00    +0.000 A 
ATOM     22  C   UNL     1       0.206   9.381  22.780  0.00  0.00    +0.000 A 
ATOM     23  C   UNL     1      -0.031  10.669  22.306  0.00  0.00    +0.000 A 
ATOM     24  C   UNL     1       0.246  11.022  20.983  0.00  0.00    +0.000 A 
ATOM     25  C   UNL     1       0.740  10.044  20.117  0.00  0.00    +0.000 A 
BRANCH  24  26
ATOM     26  N   UNL     1       0.091  12.369  20.588  0.00  0.00    +0.000 N 
ATOM     27  C   UNL     1      -0.979  12.874  19.791  0.00  0.00    +0.000 C 
ATOM     28  C   UNL     1      -0.718  14.365  19.814  0.00  0.00    +0.000 C 
ATOM     29  O   UNL     1       0.648  14.512  20.184  0.00  0.00    +0.000 OA
ATOM     30  C   UNL     1       1.061  13.341  20.749  0.00  0.00    +0.000 C 
ATOM     31  O   UNL     1       2.164  13.242  21.274  0.00  0.00    +0.000 OA
ENDBRANCH  24  26
ENDBRANCH   6  20
TORSDOF 3
ENDMDL
MODEL 5
REMARK VINA RESULT:      -8.8      2.863      9.753
REMARK  Name = 
REMARK  4 active torsions:
REMARK  status: ('A' for Active; 'I' for Inactive)
REMARK    1  A    between atoms: C_1  and  C_2
REMARK    2  A    between atoms: C_6  and  C_8
REMARK    3  A    between atoms: C_12  and  N_13
REMARK    4  A    between atoms: C_21  and  C_22
REMARK                            x       y       z     vdW  Elec       q    Type
REMARK                         _______ _______ _______ _____ _____    ______ ____
ROOT
ATOM      1  C   UNL     1      -0.650  11.593  22.566  0.00  0.00    +0.000 C 
ATOM      2  C   UNL     1       0.018  10.793  21.503  0.00  0.00    +0.000 A 
ATOM      3  S   UNL     1       0.199   9.076  21.644  0.00  0.00    +0.000 S 
ATOM      4  C   UNL     1       0.976   9.037  20.126  0.00  0.00    +0.000 A 
ATOM      5  N   UNL     1       1.415   7.809  19.698  0.00  0.00    +0.000 N 
ATOM      6  C   UNL     1       2.389   7.726  18.706  0.00  0.00    +0.000 C 
ATOM      7  O   UNL     1       2.940   8.654  18.153  0.00  0.00    +0.000 OA
ATOM      8  N   UNL     1       1.078  10.181  19.512  0.00  0.00    +0.000 NA
ATOM      9  C   UNL     1       0.552  11.196  20.288  0.00  0.00    +0.000 A 
ATOM     10  H   UNL     1       1.071   7.001  20.184  0.00  0.00    +0.000 HD
ENDROOT
BRANCH   9  11
ATOM     11  C   UNL     1       0.603  12.564  19.786  0.00  0.00    +0.000 A 
ATOM     12  C   UNL     1      -0.464  13.134  19.073  0.00  0.00    +0.000 A 
ATOM     13  C   UNL     1      -0.437  14.464  18.651  0.00  0.00    +0.000 A 
ATOM     14  C   UNL     1       0.654  15.228  18.997  0.00  0.00    +0.000 A 
ATOM     15  C   UNL     1       1.705  14.695  19.742  0.00  0.00    +0.000 A 
ATOM     16  C   UNL     1       1.706  13.361  20.116  0.00  0.00    +0.000 A 
ATOM     17  C   UNL     1       2.726  15.727  20.088  0.00  0.00    +0.000 C 
ATOM     18  C   UNL     1       2.081  17.024  19.579  0.00  0.00    +0.000 C 
ATOM     19  C   UNL     1       0.918  16.657  18.645  0.00  0.00    +0.000 C 
ENDBRANCH   9  11
BRANCH   6  20
ATOM     20  C   UNL     1       2.817   6.352  18.305  0.00  0.00    +0.000 A 
ATOM     21  C   UNL     1       1.930   5.267  18.322  0.00  0.00    +0.000 A 
ATOM     22  C   UNL     1       2.303   4.060  17.744  0.00  0.00    +0.000 A 
ATOM     23  C   UNL     1       3.544   3.944  17.122  0.00  0.00    +0.000 A 
ATOM     24  C   UNL     1       4.446   5.011  17.090  0.00  0.00    +0.000 A 
ATOM     25  C   UNL     1       4.098   6.204  17.727  0.00  0.00    +0.000 A 
BRANCH  24  26
ATOM     26  N   UNL     1       5.641   4.873  16.350  0.00  0.00    +0.000 N 
ATOM     27  C   UNL     1       5.724   4.784  14.929  0.00  0.00    +0.000 C 
ATOM     28  C   UNL     1       7.219   4.804  14.694  0.00  0.00    +0.000 C 
ATOM     29  O   UNL     1       7.810   4.434  15.935  0.00  0.00    +0.000 OA
ATOM     30  C   UNL     1       6.874   4.602  16.914  0.00  0.00    +0.000 C 
ATOM     31  O   UNL     1       7.164   4.478  18.099  0.00  0.00    +0.000 OA
ENDBRANCH  24  26
ENDBRANCH   6  20
TORSDOF 3
ENDMDL
MODEL 6
REMARK VINA RESULT:      -8.6      2.643      3.198
REMARK  Name = 
REMARK  4 active torsions:
REMARK  status: ('A' for Active; 'I' for Inactive)
REMARK    1  A    between atoms: C_1  and  C_2
REMARK    2  A    between atoms: C_6  and  C_8
REMARK    3  A    between atoms: C_12  and  N_13
REMARK    4  A    between atoms: C_21  and  C_22
REMARK                            x       y       z     vdW  Elec       q    Type
REMARK                         _______ _______ _______ _____ _____    ______ ____
ROOT
ATOM      1  C   UNL     1       4.348   3.580  19.275  0.00  0.00    +0.000 C 
ATOM      2  C   UNL     1       3.798   4.941  19.028  0.00  0.00    +0.000 A 
ATOM      3  S   UNL     1       2.610   5.638  20.078  0.00  0.00    +0.000 S 
ATOM      4  C   UNL     1       2.596   7.050  19.119  0.00  0.00    +0.000 A 
ATOM      5  N   UNL     1       1.721   8.036  19.500  0.00  0.00    +0.000 N 
ATOM      6  C   UNL     1       1.344   9.020  18.589  0.00  0.00    +0.000 C 
ATOM      7  O   UNL     1       1.698   9.110  17.433  0.00  0.00    +0.000 OA
ATOM      8  N   UNL     1       3.422   7.059  18.112  0.00  0.00    +0.000 NA
ATOM      9  C   UNL     1       4.104   5.859  18.034  0.00  0.00    +0.000 A 
ATOM     10  H   UNL     1       1.314   7.964  20.414  0.00  0.00    +0.000 HD
ENDROOT
BRANCH   9  11
ATOM     11  C   UNL     1       5.056   5.660  16.948  0.00  0.00    +0.000 A 
ATOM     12  C   UNL     1       6.417   5.980  17.085  0.00  0.00    +0.000 A 
ATOM     13  C   UNL     1       7.336   5.727  16.065  0.00  0.00    +0.000 A 
ATOM     14  C   UNL     1       6.880   5.105  14.926  0.00  0.00    +0.000 A 
ATOM     15  C   UNL     1       5.541   4.739  14.786  0.00  0.00    +0.000 A 
ATOM     16  C   UNL     1       4.616   5.038  15.774  0.00  0.00    +0.000 A 
ATOM     17  C   UNL     1       5.294   3.989  13.521  0.00  0.00    +0.000 C 
ATOM     18  C   UNL     1       6.711   3.802  12.957  0.00  0.00    +0.000 C 
ATOM     19  C   UNL     1       7.661   4.753  13.701  0.00  0.00    +0.000 C 
ENDBRANCH   9  11
BRANCH   6  20
ATOM     20  C   UNL     1       0.382  10.051  19.083  0.00  0.00    +0.000 A 
ATOM     21  C   UNL     1       0.776  11.070  19.960  0.00  0.00    +0.000 A 
ATOM     22  C   UNL     1      -0.087  12.126  20.227  0.00  0.00    +0.000 A 
ATOM     23  C   UNL     1      -1.327  12.183  19.593  0.00  0.00    +0.000 A 
ATOM     24  C   UNL     1      -1.742  11.182  18.712  0.00  0.00    +0.000 A 
ATOM     25  C   UNL     1      -0.903  10.087  18.495  0.00  0.00    +0.000 A 
BRANCH  24  26
ATOM     26  N   UNL     1      -2.959  11.347  18.014  0.00  0.00    +0.000 N 
ATOM     27  C   UNL     1      -4.223  11.620  18.617  0.00  0.00    +0.000 C 
ATOM     28  C   UNL     1      -5.111  11.842  17.412  0.00  0.00    +0.000 C 
ATOM     29  O   UNL     1      -4.433  11.238  16.316  0.00  0.00    +0.000 OA
ATOM     30  C   UNL     1      -3.126  11.067  16.671  0.00  0.00    +0.000 C 
ATOM     31  O   UNL     1      -2.291  10.683  15.859  0.00  0.00    +0.000 OA
ENDBRANCH  24  26
ENDBRANCH   6  20
TORSDOF 3
ENDMDL
MODEL 7
REMARK VINA RESULT:      -8.5      2.827     10.137
REMARK  Name = 
REMARK  4 active torsions:
REMARK  status: ('A' for Active; 'I' for Inactive)
REMARK    1  A    between atoms: C_1  and  C_2
REMARK    2  A    between atoms: C_6  and  C_8
REMARK    3  A    between atoms: C_12  and  N_13
REMARK    4  A    between atoms: C_21  and  C_22
REMARK                            x       y       z     vdW  Elec       q    Type
REMARK                         _______ _______ _______ _____ _____    ______ ____
ROOT
ATOM      1  C   UNL     1      -0.986  12.477  18.160  0.00  0.00    +0.000 C 
ATOM      2  C   UNL     1      -0.279  11.370  18.861  0.00  0.00    +0.000 A 
ATOM      3  S   UNL     1       0.426  10.052  17.986  0.00  0.00    +0.000 S 
ATOM      4  C   UNL     1       0.958   9.366  19.455  0.00  0.00    +0.000 A 
ATOM      5  N   UNL     1       1.618   8.166  19.363  0.00  0.00    +0.000 N 
ATOM      6  C   UNL     1       1.729   7.347  20.484  0.00  0.00    +0.000 C 
ATOM      7  O   UNL     1       1.275   7.564  21.587  0.00  0.00    +0.000 OA
ATOM      8  N   UNL     1       0.689  10.050  20.530  0.00  0.00    +0.000 NA
ATOM      9  C   UNL     1      -0.031  11.187  20.213  0.00  0.00    +0.000 A 
ATOM     10  H   UNL     1       1.931   7.881  18.454  0.00  0.00    +0.000 HD
ENDROOT
BRANCH   9  11
ATOM     11  C   UNL     1      -0.459  12.072  21.290  0.00  0.00    +0.000 A 
ATOM     12  C   UNL     1       0.189  13.290  21.553  0.00  0.00    +0.000 A 
ATOM     13  C   UNL     1      -0.265  14.164  22.542  0.00  0.00    +0.000 A 
ATOM     14  C   UNL     1      -1.405  13.821  23.232  0.00  0.00    +0.000 A 
ATOM     15  C   UNL     1      -2.089  12.637  22.958  0.00  0.00    +0.000 A 
ATOM     16  C   UNL     1      -1.611  11.742  22.014  0.00  0.00    +0.000 A 
ATOM     17  C   UNL     1      -3.349  12.521  23.749  0.00  0.00    +0.000 C 
ATOM     18  C   UNL     1      -3.433  13.885  24.450  0.00  0.00    +0.000 C 
ATOM     19  C   UNL     1      -2.065  14.575  24.340  0.00  0.00    +0.000 C 
ENDBRANCH   9  11
BRANCH   6  20
ATOM     20  C   UNL     1       2.455   6.055  20.296  0.00  0.00    +0.000 A 
ATOM     21  C   UNL     1       2.002   4.862  20.874  0.00  0.00    +0.000 A 
ATOM     22  C   UNL     1       2.578   3.652  20.506  0.00  0.00    +0.000 A 
ATOM     23  C   UNL     1       3.579   3.629  19.538  0.00  0.00    +0.000 A 
ATOM     24  C   UNL     1       4.047   4.804  18.944  0.00  0.00    +0.000 A 
ATOM     25  C   UNL     1       3.515   6.025  19.362  0.00  0.00    +0.000 A 
BRANCH  24  26
ATOM     26  N   UNL     1       4.983   4.711  17.891  0.00  0.00    +0.000 N 
ATOM     27  C   UNL     1       4.668   4.401  16.534  0.00  0.00    +0.000 C 
ATOM     28  C   UNL     1       6.003   4.586  15.846  0.00  0.00    +0.000 C 
ATOM     29  O   UNL     1       6.983   4.511  16.876  0.00  0.00    +0.000 OA
ATOM     30  C   UNL     1       6.354   4.708  18.071  0.00  0.00    +0.000 C 
ATOM     31  O   UNL     1       6.990   4.822  19.113  0.00  0.00    +0.000 OA
ENDBRANCH  24  26
ENDBRANCH   6  20
TORSDOF 3
ENDMDL
MODEL 8
REMARK VINA RESULT:      -8.5      2.522      3.079
REMARK  Name = 
REMARK  4 active torsions:
REMARK  status: ('A' for Active; 'I' for Inactive)
REMARK    1  A    between atoms: C_1  and  C_2
REMARK    2  A    between atoms: C_6  and  C_8
REMARK    3  A    between atoms: C_12  and  N_13
REMARK    4  A    between atoms: C_21  and  C_22
REMARK                            x       y       z     vdW  Elec       q    Type
REMARK                         _______ _______ _______ _____ _____    ______ ____
ROOT
ATOM      1  C   UNL     1       4.581   3.291  18.790  0.00  0.00    +0.000 C 
ATOM      2  C   UNL     1       4.057   4.670  18.589  0.00  0.00    +0.000 A 
ATOM      3  S   UNL     1       2.974   5.400  19.726  0.00  0.00    +0.000 S 
ATOM      4  C   UNL     1       2.933   6.815  18.774  0.00  0.00    +0.000 A 
ATOM      5  N   UNL     1       2.121   7.827  19.222  0.00  0.00    +0.000 N 
ATOM      6  C   UNL     1       1.709   8.826  18.344  0.00  0.00    +0.000 C 
ATOM      7  O   UNL     1       1.977   8.910  17.165  0.00  0.00    +0.000 OA
ATOM      8  N   UNL     1       3.681   6.803  17.708  0.00  0.00    +0.000 NA
ATOM      9  C   UNL     1       4.317   5.582  17.576  0.00  0.00    +0.000 A 
ATOM     10  H   UNL     1       1.782   7.763  20.164  0.00  0.00    +0.000 HD
ENDROOT
BRANCH   9  11
ATOM     11  C   UNL     1       5.178   5.358  16.421  0.00  0.00    +0.000 A 
ATOM     12  C   UNL     1       6.548   5.664  16.445  0.00  0.00    +0.000 A 
ATOM     13  C   UNL     1       7.381   5.387  15.361  0.00  0.00    +0.000 A 
ATOM     14  C   UNL     1       6.830   4.756  14.269  0.00  0.00    +0.000 A 
ATOM     15  C   UNL     1       5.480   4.404  14.241  0.00  0.00    +0.000 A 
ATOM     16  C   UNL     1       4.640   4.726  15.294  0.00  0.00    +0.000 A 
ATOM     17  C   UNL     1       5.126   3.640  13.009  0.00  0.00    +0.000 C 
ATOM     18  C   UNL     1       6.492   3.430  12.337  0.00  0.00    +0.000 C 
ATOM     19  C   UNL     1       7.507   4.379  12.991  0.00  0.00    +0.000 C 
ENDBRANCH   9  11
BRANCH   6  20
ATOM     20  C   UNL     1       0.819   9.885  18.911  0.00  0.00    +0.000 A 
ATOM     21  C   UNL     1       1.310  10.885  19.761  0.00  0.00    +0.000 A 
ATOM     22  C   UNL     1       0.504  11.967  20.093  0.00  0.00    +0.000 A 
ATOM     23  C   UNL     1      -0.776  12.068  19.553  0.00  0.00    +0.000 A 
ATOM     24  C   UNL     1      -1.288  11.086  18.701  0.00  0.00    +0.000 A 
ATOM     25  C   UNL     1      -0.503   9.966  18.420  0.00  0.00    +0.000 A 
BRANCH  24  26
ATOM     26  N   UNL     1      -2.547  11.295  18.096  0.00  0.00    +0.000 N 
ATOM     27  C   UNL     1      -2.822  11.162  16.702  0.00  0.00    +0.000 C 
ATOM     28  C   UNL     1      -4.323  11.351  16.654  0.00  0.00    +0.000 C 
ATOM     29  O   UNL     1      -4.669  12.011  17.866  0.00  0.00    +0.000 OA
ATOM     30  C   UNL     1      -3.634  11.854  18.742  0.00  0.00    +0.000 C 
ATOM     31  O   UNL     1      -3.728  12.217  19.909  0.00  0.00    +0.000 OA
ENDBRANCH  24  26
ENDBRANCH   6  20
TORSDOF 3
ENDMDL
MODEL 9
REMARK VINA RESULT:      -8.3      3.309      9.827
REMARK  Name = 
REMARK  4 active torsions:
REMARK  status: ('A' for Active; 'I' for Inactive)
REMARK    1  A    between atoms: C_1  and  C_2
REMARK    2  A    between atoms: C_6  and  C_8
REMARK    3  A    between atoms: C_12  and  N_13
REMARK    4  A    between atoms: C_21  and  C_22
REMARK                            x       y       z     vdW  Elec       q    Type
REMARK                         _______ _______ _______ _____ _____    ______ ____
ROOT
ATOM      1  C   UNL     1      -0.780  11.845  21.799  0.00  0.00    +0.000 C 
ATOM      2  C   UNL     1      -0.194  10.728  21.007  0.00  0.00    +0.000 A 
ATOM      3  S   UNL     1       1.154   9.814  21.595  0.00  0.00    +0.000 S 
ATOM      4  C   UNL     1       1.119   8.859  20.182  0.00  0.00    +0.000 A 
ATOM      5  N   UNL     1       2.087   7.892  20.076  0.00  0.00    +0.000 N 
ATOM      6  C   UNL     1       2.395   7.350  18.831  0.00  0.00    +0.000 C 
ATOM      7  O   UNL     1       1.900   7.655  17.766  0.00  0.00    +0.000 OA
ATOM      8  N   UNL     1       0.172   9.138  19.333  0.00  0.00    +0.000 NA
ATOM      9  C   UNL     1      -0.577  10.212  19.778  0.00  0.00    +0.000 A 
ATOM     10  H   UNL     1       2.603   7.664  20.906  0.00  0.00    +0.000 HD
ENDROOT
BRANCH   9  11
ATOM     11  C   UNL     1      -1.670  10.700  18.946  0.00  0.00    +0.000 A 
ATOM     12  C   UNL     1      -1.793  10.343  17.594  0.00  0.00    +0.000 A 
ATOM     13  C   UNL     1      -2.876  10.760  16.820  0.00  0.00    +0.000 A 
ATOM     14  C   UNL     1      -3.859  11.503  17.433  0.00  0.00    +0.000 A 
ATOM     15  C   UNL     1      -3.780  11.833  18.786  0.00  0.00    +0.000 A 
ATOM     16  C   UNL     1      -2.679  11.465  19.544  0.00  0.00    +0.000 A 
ATOM     17  C   UNL     1      -5.000  12.548  19.261  0.00  0.00    +0.000 C 
ATOM     18  C   UNL     1      -5.928  12.482  18.038  0.00  0.00    +0.000 C 
ATOM     19  C   UNL     1      -5.092  12.078  16.814  0.00  0.00    +0.000 C 
ENDBRANCH   9  11
BRANCH   6  20
ATOM     20  C   UNL     1       3.466   6.308  18.803  0.00  0.00    +0.000 A 
ATOM     21  C   UNL     1       3.518   5.277  19.750  0.00  0.00    +0.000 A 
ATOM     22  C   UNL     1       4.395   4.214  19.568  0.00  0.00    +0.000 A 
ATOM     23  C   UNL     1       5.194   4.164  18.428  0.00  0.00    +0.000 A 
ATOM     24  C   UNL     1       5.159   5.179  17.468  0.00  0.00    +0.000 A 
ATOM     25  C   UNL     1       4.326   6.279  17.683  0.00  0.00    +0.000 A 
BRANCH  24  26
ATOM     26  N   UNL     1       5.907   5.021  16.280  0.00  0.00    +0.000 N 
ATOM     27  C   UNL     1       5.719   3.981  15.321  0.00  0.00    +0.000 C 
ATOM     28  C   UNL     1       6.668   4.391  14.216  0.00  0.00    +0.000 C 
ATOM     29  O   UNL     1       7.596   5.288  14.816  0.00  0.00    +0.000 OA
ATOM     30  C   UNL     1       7.055   5.734  15.987  0.00  0.00    +0.000 C 
ATOM     31  O   UNL     1       7.594   6.620  16.640  0.00  0.00    +0.000 OA
ENDBRANCH  24  26
ENDBRANCH   6  20
TORSDOF 3
ENDMDL
