MODEL 1
REMARK VINA RESULT:      -9.4      0.000      0.000
REMARK  Name = 
REMARK  7 active torsions:
REMARK  status: ('A' for Active; 'I' for Inactive)
REMARK    1  A    between atoms: C_1  and  N_2
REMARK    2  A    between atoms: C_6  and  C_7
REMARK    3  A    between atoms: C_7  and  C_8
REMARK    4  A    between atoms: C_8  and  C_9
REMARK    5  A    between atoms: C_11  and  N_12
REMARK    6  A    between atoms: C_17  and  C_18
REMARK    7  A    between atoms: C_18  and  C_19
REMARK                            x       y       z     vdW  Elec       q    Type
REMARK                         _______ _______ _______ _____ _____    ______ ____
ROOT
ATOM      1  C   UNL     1       4.574   5.244  17.294  0.00  0.00    +0.000 A 
ATOM      2  C   UNL     1       3.997   6.443  17.706  0.00  0.00    +0.000 A 
ATOM      3  C   UNL     1       2.691   6.458  18.190  0.00  0.00    +0.000 A 
ATOM      4  C   UNL     1       1.964   5.273  18.187  0.00  0.00    +0.000 A 
ATOM      5  C   UNL     1       2.573   4.138  17.692  0.00  0.00    +0.000 A 
ATOM      6  N   UNL     1       3.857   4.095  17.274  0.00  0.00    +0.000 NA
ENDROOT
BRANCH   3   7
ATOM      7  N   UNL     1       2.140   7.647  18.711  0.00  0.00    +0.000 N 
ATOM      8  C   UNL     1       1.790   8.768  17.849  0.00  0.00    +0.000 C 
ATOM      9  C   UNL     1       1.045   9.674  18.771  0.00  0.00    +0.000 A 
ATOM     10  C   UNL     1       0.444  10.892  18.521  0.00  0.00    +0.000 A 
ATOM     11  C   UNL     1      -0.172  11.553  19.593  0.00  0.00    +0.000 A 
ATOM     12  C   UNL     1      -0.186  11.002  20.897  0.00  0.00    +0.000 A 
ATOM     13  C   UNL     1       0.404   9.749  21.124  0.00  0.00    +0.000 A 
ATOM     14  C   UNL     1       0.999   9.119  20.046  0.00  0.00    +0.000 A 
ATOM     15  C   UNL     1       1.660   7.810  20.008  0.00  0.00    +0.000 C 
ATOM     16  O   UNL     1       1.739   7.077  20.976  0.00  0.00    +0.000 OA
BRANCH  12  17
ATOM     17  C   UNL     1      -0.831  11.751  22.045  0.00  0.00    +0.000 C 
ATOM     18  C   UNL     1      -2.180  12.325  21.647  0.00  0.00    +0.000 C 
ATOM     19  F   UNL     1      -1.021  10.956  23.140  0.00  0.00    +0.000 F 
ATOM     20  F   UNL     1      -0.052  12.784  22.483  0.00  0.00    +0.000 F 
ENDBRANCH  12  17
ENDBRANCH   3   7
BRANCH   1  21
ATOM     21  C   UNL     1       6.074   5.100  16.836  0.00  0.00    +0.000 C 
ATOM     22  C   UNL     1       6.974   6.352  16.763  0.00  0.00    +0.000 C 
ATOM     23  O   UNL     1       7.895   5.834  17.745  0.00  0.00    +0.000 OA
ATOM     24  C   UNL     1       7.057   4.684  17.969  0.00  0.00    +0.000 C 
BRANCH  21  25
ATOM     25  C   UNL     1       6.223   4.162  15.629  0.00  0.00    +0.000 C 
BRANCH  25  31
ATOM     26  C   UNL     1       5.750   3.326  12.475  0.00  0.00    +0.000 C 
ATOM     27  N   UNL     1       6.682   4.249  13.061  0.00  0.00    +0.000 N 
ATOM     28  C   UNL     1       7.514   5.036  12.315  0.00  0.00    +0.000 A 
ATOM     29  N   UNL     1       8.267   5.757  13.104  0.00  0.00    +0.000 NA
ATOM     30  N   UNL     1       7.913   5.456  14.390  0.00  0.00    +0.000 NA
ATOM     31  C   UNL     1       6.936   4.563  14.375  0.00  0.00    +0.000 A 
ENDBRANCH  25  31
ENDBRANCH  21  25
ENDBRANCH   1  21
TORSDOF 5
ENDMDL
MODEL 2
REMARK VINA RESULT:      -9.3      2.547      3.783
REMARK  Name = 
REMARK  7 active torsions:
REMARK  status: ('A' for Active; 'I' for Inactive)
REMARK    1  A    between atoms: C_1  and  N_2
REMARK    2  A    between atoms: C_6  and  C_7
REMARK    3  A    between atoms: C_7  and  C_8
REMARK    4  A    between atoms: C_8  and  C_9
REMARK    5  A    between atoms: C_11  and  N_12
REMARK    6  A    between atoms: C_17  and  C_18
REMARK    7  A    between atoms: C_18  and  C_19
REMARK                            x       y       z     vdW  Elec       q    Type
REMARK                         _______ _______ _______ _____ _____    ______ ____
ROOT
ATOM      1  C   UNL     1       3.133   5.649  18.354  0.00  0.00    +0.000 A 
ATOM      2  C   UNL     1       2.329   6.376  19.228  0.00  0.00    +0.000 A 
ATOM      3  C   UNL     1       2.165   7.748  19.048  0.00  0.00    +0.000 A 
ATOM      4  C   UNL     1       2.871   8.376  18.028  0.00  0.00    +0.000 A 
ATOM      5  C   UNL     1       3.710   7.606  17.249  0.00  0.00    +0.000 A 
ATOM      6  N   UNL     1       3.834   6.267  17.374  0.00  0.00    +0.000 NA
ENDROOT
BRANCH   3   7
ATOM      7  N   UNL     1       1.266   8.469  19.861  0.00  0.00    +0.000 N 
ATOM      8  C   UNL     1       1.128   8.186  21.284  0.00  0.00    +0.000 C 
ATOM      9  C   UNL     1       0.277   9.314  21.763  0.00  0.00    +0.000 A 
ATOM     10  C   UNL     1      -0.175   9.603  23.036  0.00  0.00    +0.000 A 
ATOM     11  C   UNL     1      -0.996  10.727  23.202  0.00  0.00    +0.000 A 
ATOM     12  C   UNL     1      -1.358  11.551  22.109  0.00  0.00    +0.000 A 
ATOM     13  C   UNL     1      -0.863  11.259  20.829  0.00  0.00    +0.000 A 
ATOM     14  C   UNL     1      -0.052  10.146  20.697  0.00  0.00    +0.000 A 
ATOM     15  C   UNL     1       0.605   9.637  19.489  0.00  0.00    +0.000 C 
ATOM     16  O   UNL     1       0.525  10.187  18.407  0.00  0.00    +0.000 OA
BRANCH  12  17
ATOM     17  C   UNL     1      -2.272  12.742  22.310  0.00  0.00    +0.000 C 
ATOM     18  C   UNL     1      -3.120  12.590  23.561  0.00  0.00    +0.000 C 
ATOM     19  F   UNL     1      -1.578  13.915  22.417  0.00  0.00    +0.000 F 
ATOM     20  F   UNL     1      -3.118  12.923  21.253  0.00  0.00    +0.000 F 
ENDBRANCH  12  17
ENDBRANCH   3   7
BRANCH   1  21
ATOM     21  C   UNL     1       3.297   4.083  18.403  0.00  0.00    +0.000 C 
ATOM     22  C   UNL     1       2.130   3.208  18.911  0.00  0.00    +0.000 C 
ATOM     23  O   UNL     1       2.011   2.514  17.651  0.00  0.00    +0.000 OA
ATOM     24  C   UNL     1       3.010   3.362  17.054  0.00  0.00    +0.000 C 
BRANCH  21  25
ATOM     25  C   UNL     1       4.668   3.662  18.952  0.00  0.00    +0.000 C 
BRANCH  25  31
ATOM     26  C   UNL     1       6.469   4.155  16.235  0.00  0.00    +0.000 C 
ATOM     27  N   UNL     1       6.615   4.699  17.556  0.00  0.00    +0.000 N 
ATOM     28  C   UNL     1       7.552   5.643  17.870  0.00  0.00    +0.000 A 
ATOM     29  N   UNL     1       7.476   5.938  19.142  0.00  0.00    +0.000 NA
ATOM     30  N   UNL     1       6.459   5.192  19.671  0.00  0.00    +0.000 NA
ATOM     31  C   UNL     1       5.914   4.457  18.714  0.00  0.00    +0.000 A 
ENDBRANCH  25  31
ENDBRANCH  21  25
ENDBRANCH   1  21
TORSDOF 5
ENDMDL
MODEL 3
REMARK VINA RESULT:      -9.3      1.169      1.743
REMARK  Name = 
REMARK  7 active torsions:
REMARK  status: ('A' for Active; 'I' for Inactive)
REMARK    1  A    between atoms: C_1  and  N_2
REMARK    2  A    between atoms: C_6  and  C_7
REMARK    3  A    between atoms: C_7  and  C_8
REMARK    4  A    between atoms: C_8  and  C_9
REMARK    5  A    between atoms: C_11  and  N_12
REMARK    6  A    between atoms: C_17  and  C_18
REMARK    7  A    between atoms: C_18  and  C_19
REMARK                            x       y       z     vdW  Elec       q    Type
REMARK                         _______ _______ _______ _____ _____    ______ ____
ROOT
ATOM      1  C   UNL     1       4.593   4.938  17.214  0.00  0.00    +0.000 A 
ATOM      2  C   UNL     1       3.959   6.031  17.799  0.00  0.00    +0.000 A 
ATOM      3  C   UNL     1       2.652   5.911  18.266  0.00  0.00    +0.000 A 
ATOM      4  C   UNL     1       1.981   4.708  18.074  0.00  0.00    +0.000 A 
ATOM      5  C   UNL     1       2.646   3.692  17.416  0.00  0.00    +0.000 A 
ATOM      6  N   UNL     1       3.931   3.774  17.011  0.00  0.00    +0.000 NA
ENDROOT
BRANCH   3   7
ATOM      7  N   UNL     1       2.044   6.979  18.958  0.00  0.00    +0.000 N 
ATOM      8  C   UNL     1       1.741   6.894  20.381  0.00  0.00    +0.000 C 
ATOM      9  C   UNL     1       1.344   8.292  20.718  0.00  0.00    +0.000 A 
ATOM     10  C   UNL     1       0.968   8.837  21.931  0.00  0.00    +0.000 A 
ATOM     11  C   UNL     1       0.613  10.193  21.959  0.00  0.00    +0.000 A 
ATOM     12  C   UNL     1       0.635  10.992  20.790  0.00  0.00    +0.000 A 
ATOM     13  C   UNL     1       1.050  10.427  19.575  0.00  0.00    +0.000 A 
ATOM     14  C   UNL     1       1.399   9.089  19.578  0.00  0.00    +0.000 A 
ATOM     15  C   UNL     1       1.881   8.270  18.461  0.00  0.00    +0.000 C 
ATOM     16  O   UNL     1       2.062   8.713  17.343  0.00  0.00    +0.000 OA
BRANCH  12  17
ATOM     17  C   UNL     1       0.217  12.447  20.843  0.00  0.00    +0.000 C 
ATOM     18  C   UNL     1       1.220  13.341  20.135  0.00  0.00    +0.000 C 
ATOM     19  F   UNL     1      -1.006  12.655  20.269  0.00  0.00    +0.000 F 
ATOM     20  F   UNL     1       0.091  12.897  22.126  0.00  0.00    +0.000 F 
ENDBRANCH  12  17
ENDBRANCH   3   7
BRANCH   1  21
ATOM     21  C   UNL     1       6.100   4.935  16.754  0.00  0.00    +0.000 C 
ATOM     22  C   UNL     1       6.886   6.264  16.706  0.00  0.00    +0.000 C 
ATOM     23  O   UNL     1       7.850   5.810  17.679  0.00  0.00    +0.000 OA
ATOM     24  C   UNL     1       7.116   4.586  17.880  0.00  0.00    +0.000 C 
BRANCH  21  25
ATOM     25  C   UNL     1       6.330   4.037  15.529  0.00  0.00    +0.000 C 
BRANCH  25  31
ATOM     26  C   UNL     1       5.886   3.294  12.348  0.00  0.00    +0.000 C 
ATOM     27  N   UNL     1       6.773   4.242  12.965  0.00  0.00    +0.000 N 
ATOM     28  C   UNL     1       7.561   5.097  12.247  0.00  0.00    +0.000 A 
ATOM     29  N   UNL     1       8.280   5.826  13.060  0.00  0.00    +0.000 NA
ATOM     30  N   UNL     1       7.946   5.460  14.335  0.00  0.00    +0.000 NA
ATOM     31  C   UNL     1       7.016   4.519  14.290  0.00  0.00    +0.000 A 
ENDBRANCH  25  31
ENDBRANCH  21  25
ENDBRANCH   1  21
TORSDOF 5
ENDMDL
MODEL 4
REMARK VINA RESULT:      -9.3      1.907      2.443
REMARK  Name = 
REMARK  7 active torsions:
REMARK  status: ('A' for Active; 'I' for Inactive)
REMARK    1  A    between atoms: C_1  and  N_2
REMARK    2  A    between atoms: C_6  and  C_7
REMARK    3  A    between atoms: C_7  and  C_8
REMARK    4  A    between atoms: C_8  and  C_9
REMARK    5  A    between atoms: C_11  and  N_12
REMARK    6  A    between atoms: C_17  and  C_18
REMARK    7  A    between atoms: C_18  and  C_19
REMARK                            x       y       z     vdW  Elec       q    Type
REMARK                         _______ _______ _______ _____ _____    ______ ____
ROOT
ATOM      1  C   UNL     1       5.514   5.412  18.756  0.00  0.00    +0.000 A 
ATOM      2  C   UNL     1       4.536   6.401  18.820  0.00  0.00    +0.000 A 
ATOM      3  C   UNL     1       3.286   6.112  19.363  0.00  0.00    +0.000 A 
ATOM      4  C   UNL     1       3.020   4.810  19.771  0.00  0.00    +0.000 A 
ATOM      5  C   UNL     1       4.011   3.862  19.606  0.00  0.00    +0.000 A 
ATOM      6  N   UNL     1       5.245   4.140  19.137  0.00  0.00    +0.000 NA
ENDROOT
BRANCH   3   7
ATOM      7  N   UNL     1       2.331   7.136  19.532  0.00  0.00    +0.000 N 
ATOM      8  C   UNL     1       1.672   7.362  20.812  0.00  0.00    +0.000 C 
ATOM      9  C   UNL     1       0.953   8.650  20.590  0.00  0.00    +0.000 A 
ATOM     10  C   UNL     1       0.169   9.387  21.456  0.00  0.00    +0.000 A 
ATOM     11  C   UNL     1      -0.418  10.564  20.971  0.00  0.00    +0.000 A 
ATOM     12  C   UNL     1      -0.222  10.998  19.637  0.00  0.00    +0.000 A 
ATOM     13  C   UNL     1       0.603  10.252  18.783  0.00  0.00    +0.000 A 
ATOM     14  C   UNL     1       1.173   9.098  19.290  0.00  0.00    +0.000 A 
ATOM     15  C   UNL     1       2.080   8.160  18.622  0.00  0.00    +0.000 C 
ATOM     16  O   UNL     1       2.477   8.317  17.483  0.00  0.00    +0.000 OA
BRANCH  12  17
ATOM     17  C   UNL     1      -0.893  12.257  19.129  0.00  0.00    +0.000 C 
ATOM     18  C   UNL     1      -1.043  13.292  20.230  0.00  0.00    +0.000 C 
ATOM     19  F   UNL     1      -0.199  12.836  18.104  0.00  0.00    +0.000 F 
ATOM     20  F   UNL     1      -2.136  12.005  18.622  0.00  0.00    +0.000 F 
ENDBRANCH  12  17
ENDBRANCH   3   7
BRANCH   1  21
ATOM     21  C   UNL     1       6.990   5.661  18.264  0.00  0.00    +0.000 C 
ATOM     22  C   UNL     1       7.431   7.087  17.865  0.00  0.00    +0.000 C 
ATOM     23  O   UNL     1       8.446   7.134  18.889  0.00  0.00    +0.000 OA
ATOM     24  C   UNL     1       8.026   5.858  19.408  0.00  0.00    +0.000 C 
BRANCH  21  25
ATOM     25  C   UNL     1       7.467   4.573  17.291  0.00  0.00    +0.000 C 
BRANCH  25  31
ATOM     26  C   UNL     1       4.771   3.303  15.882  0.00  0.00    +0.000 C 
ATOM     27  N   UNL     1       5.865   4.033  15.303  0.00  0.00    +0.000 N 
ATOM     28  C   UNL     1       5.895   4.404  13.988  0.00  0.00    +0.000 A 
ATOM     29  N   UNL     1       7.014   5.031  13.730  0.00  0.00    +0.000 NA
ATOM     30  N   UNL     1       7.723   5.093  14.898  0.00  0.00    +0.000 NA
ATOM     31  C   UNL     1       7.026   4.514  15.862  0.00  0.00    +0.000 A 
ENDBRANCH  25  31
ENDBRANCH  21  25
ENDBRANCH   1  21
TORSDOF 5
ENDMDL
MODEL 5
REMARK VINA RESULT:      -9.1      1.828      2.958
REMARK  Name = 
REMARK  7 active torsions:
REMARK  status: ('A' for Active; 'I' for Inactive)
REMARK    1  A    between atoms: C_1  and  N_2
REMARK    2  A    between atoms: C_6  and  C_7
REMARK    3  A    between atoms: C_7  and  C_8
REMARK    4  A    between atoms: C_8  and  C_9
REMARK    5  A    between atoms: C_11  and  N_12
REMARK    6  A    between atoms: C_17  and  C_18
REMARK    7  A    between atoms: C_18  and  C_19
REMARK                            x       y       z     vdW  Elec       q    Type
REMARK                         _______ _______ _______ _____ _____    ______ ____
ROOT
ATOM      1  C   UNL     1       4.530   4.667  16.881  0.00  0.00    +0.000 A 
ATOM      2  C   UNL     1       3.985   5.879  17.299  0.00  0.00    +0.000 A 
ATOM      3  C   UNL     1       2.873   5.891  18.137  0.00  0.00    +0.000 A 
ATOM      4  C   UNL     1       2.286   4.680  18.486  0.00  0.00    +0.000 A 
ATOM      5  C   UNL     1       2.832   3.522  17.972  0.00  0.00    +0.000 A 
ATOM      6  N   UNL     1       3.944   3.490  17.206  0.00  0.00    +0.000 NA
ENDROOT
BRANCH   3   7
ATOM      7  N   UNL     1       2.384   7.110  18.653  0.00  0.00    +0.000 N 
ATOM      8  C   UNL     1       2.258   8.296  17.816  0.00  0.00    +0.000 C 
ATOM      9  C   UNL     1       1.501   9.238  18.692  0.00  0.00    +0.000 A 
ATOM     10  C   UNL     1       1.059  10.522  18.438  0.00  0.00    +0.000 A 
ATOM     11  C   UNL     1       0.387  11.201  19.464  0.00  0.00    +0.000 A 
ATOM     12  C   UNL     1       0.159  10.601  20.726  0.00  0.00    +0.000 A 
ATOM     13  C   UNL     1       0.587   9.285  20.954  0.00  0.00    +0.000 A 
ATOM     14  C   UNL     1       1.243   8.639  19.922  0.00  0.00    +0.000 A 
ATOM     15  C   UNL     1       1.769   7.270  19.892  0.00  0.00    +0.000 C 
ATOM     16  O   UNL     1       1.655   6.495  20.821  0.00  0.00    +0.000 OA
BRANCH  12  17
ATOM     17  C   UNL     1      -0.543  11.368  21.829  0.00  0.00    +0.000 C 
ATOM     18  C   UNL     1      -0.777  10.497  23.051  0.00  0.00    +0.000 C 
ATOM     19  F   UNL     1       0.166  12.465  22.228  0.00  0.00    +0.000 F 
ATOM     20  F   UNL     1      -1.754  11.852  21.424  0.00  0.00    +0.000 F 
ENDBRANCH  12  17
ENDBRANCH   3   7
BRANCH   1  21
ATOM     21  C   UNL     1       5.846   4.541  16.025  0.00  0.00    +0.000 C 
ATOM     22  C   UNL     1       5.996   3.377  15.021  0.00  0.00    +0.000 C 
ATOM     23  O   UNL     1       6.113   4.271  13.895  0.00  0.00    +0.000 OA
ATOM     24  C   UNL     1       5.862   5.414  14.736  0.00  0.00    +0.000 C 
BRANCH  21  25
ATOM     25  C   UNL     1       7.108   4.802  16.861  0.00  0.00    +0.000 C 
BRANCH  25  31
ATOM     26  C   UNL     1       8.089   5.702  19.877  0.00  0.00    +0.000 C 
ATOM     27  N   UNL     1       7.897   6.489  18.690  0.00  0.00    +0.000 N 
ATOM     28  C   UNL     1       8.204   7.819  18.625  0.00  0.00    +0.000 A 
ATOM     29  N   UNL     1       7.908   8.284  17.439  0.00  0.00    +0.000 NA
ATOM     30  N   UNL     1       7.417   7.240  16.705  0.00  0.00    +0.000 NA
ATOM     31  C   UNL     1       7.429   6.143  17.444  0.00  0.00    +0.000 A 
ENDBRANCH  25  31
ENDBRANCH  21  25
ENDBRANCH   1  21
TORSDOF 5
ENDMDL
MODEL 6
REMARK VINA RESULT:      -9.0      5.113     10.474
REMARK  Name = 
REMARK  7 active torsions:
REMARK  status: ('A' for Active; 'I' for Inactive)
REMARK    1  A    between atoms: C_1  and  N_2
REMARK    2  A    between atoms: C_6  and  C_7
REMARK    3  A    between atoms: C_7  and  C_8
REMARK    4  A    between atoms: C_8  and  C_9
REMARK    5  A    between atoms: C_11  and  N_12
REMARK    6  A    between atoms: C_17  and  C_18
REMARK    7  A    between atoms: C_18  and  C_19
REMARK                            x       y       z     vdW  Elec       q    Type
REMARK                         _______ _______ _______ _____ _____    ______ ____
ROOT
ATOM      1  C   UNL     1      -1.466  10.867  18.959  0.00  0.00    +0.000 A 
ATOM      2  C   UNL     1      -0.479   9.920  18.697  0.00  0.00    +0.000 A 
ATOM      3  C   UNL     1       0.575   9.745  19.591  0.00  0.00    +0.000 A 
ATOM      4  C   UNL     1       0.653  10.578  20.702  0.00  0.00    +0.000 A 
ATOM      5  C   UNL     1      -0.317  11.547  20.857  0.00  0.00    +0.000 A 
ATOM      6  N   UNL     1      -1.376  11.689  20.032  0.00  0.00    +0.000 NA
ENDROOT
BRANCH   3   7
ATOM      7  N   UNL     1       1.515   8.714  19.388  0.00  0.00    +0.000 N 
ATOM      8  C   UNL     1       1.663   7.618  20.337  0.00  0.00    +0.000 C 
ATOM      9  C   UNL     1       2.567   6.676  19.615  0.00  0.00    +0.000 A 
ATOM     10  C   UNL     1       3.050   5.441  20.003  0.00  0.00    +0.000 A 
ATOM     11  C   UNL     1       3.919   4.772  19.130  0.00  0.00    +0.000 A 
ATOM     12  C   UNL     1       4.298   5.332  17.885  0.00  0.00    +0.000 A 
ATOM     13  C   UNL     1       3.772   6.573  17.497  0.00  0.00    +0.000 A 
ATOM     14  C   UNL     1       2.914   7.207  18.377  0.00  0.00    +0.000 A 
ATOM     15  C   UNL     1       2.217   8.486  18.207  0.00  0.00    +0.000 C 
ATOM     16  O   UNL     1       2.304   9.161  17.199  0.00  0.00    +0.000 OA
BRANCH  12  17
ATOM     17  C   UNL     1       5.264   4.603  16.973  0.00  0.00    +0.000 C 
ATOM     18  C   UNL     1       5.551   5.400  15.713  0.00  0.00    +0.000 C 
ATOM     19  F   UNL     1       6.458   4.345  17.585  0.00  0.00    +0.000 F 
ATOM     20  F   UNL     1       4.785   3.382  16.593  0.00  0.00    +0.000 F 
ENDBRANCH  12  17
ENDBRANCH   3   7
BRANCH   1  21
ATOM     21  C   UNL     1      -2.753  11.067  18.073  0.00  0.00    +0.000 C 
ATOM     22  C   UNL     1      -2.611  11.217  16.543  0.00  0.00    +0.000 C 
ATOM     23  O   UNL     1      -3.398  10.035  16.284  0.00  0.00    +0.000 OA
ATOM     24  C   UNL     1      -3.485   9.747  17.692  0.00  0.00    +0.000 C 
BRANCH  21  25
ATOM     25  C   UNL     1      -3.740  12.062  18.702  0.00  0.00    +0.000 C 
BRANCH  25  31
ATOM     26  C   UNL     1      -6.491  11.446  20.411  0.00  0.00    +0.000 C 
ATOM     27  N   UNL     1      -6.321  11.919  19.065  0.00  0.00    +0.000 N 
ATOM     28  C   UNL     1      -7.370  12.290  18.272  0.00  0.00    +0.000 A 
ATOM     29  N   UNL     1      -6.929  12.655  17.096  0.00  0.00    +0.000 NA
ATOM     30  N   UNL     1      -5.566  12.541  17.121  0.00  0.00    +0.000 NA
ATOM     31  C   UNL     1      -5.185  12.121  18.317  0.00  0.00    +0.000 A 
ENDBRANCH  25  31
ENDBRANCH  21  25
ENDBRANCH   1  21
TORSDOF 5
ENDMDL
MODEL 7
REMARK VINA RESULT:      -8.9      4.593      9.538
REMARK  Name = 
REMARK  7 active torsions:
REMARK  status: ('A' for Active; 'I' for Inactive)
REMARK    1  A    between atoms: C_1  and  N_2
REMARK    2  A    between atoms: C_6  and  C_7
REMARK    3  A    between atoms: C_7  and  C_8
REMARK    4  A    between atoms: C_8  and  C_9
REMARK    5  A    between atoms: C_11  and  N_12
REMARK    6  A    between atoms: C_17  and  C_18
REMARK    7  A    between atoms: C_18  and  C_19
REMARK                            x       y       z     vdW  Elec       q    Type
REMARK                         _______ _______ _______ _____ _____    ______ ____
ROOT
ATOM      1  C   UNL     1      -0.308  10.011  20.012  0.00  0.00    +0.000 A 
ATOM      2  C   UNL     1       0.597   9.158  19.386  0.00  0.00    +0.000 A 
ATOM      3  C   UNL     1       1.451   8.366  20.150  0.00  0.00    +0.000 A 
ATOM      4  C   UNL     1       1.425   8.498  21.534  0.00  0.00    +0.000 A 
ATOM      5  C   UNL     1       0.557   9.421  22.082  0.00  0.00    +0.000 A 
ATOM      6  N   UNL     1      -0.318  10.152  21.359  0.00  0.00    +0.000 NA
ENDROOT
BRANCH   3   7
ATOM      7  N   UNL     1       2.292   7.420  19.527  0.00  0.00    +0.000 N 
ATOM      8  C   UNL     1       2.315   6.025  19.947  0.00  0.00    +0.000 C 
ATOM      9  C   UNL     1       3.138   5.375  18.886  0.00  0.00    +0.000 A 
ATOM     10  C   UNL     1       3.493   4.049  18.729  0.00  0.00    +0.000 A 
ATOM     11  C   UNL     1       4.310   3.712  17.642  0.00  0.00    +0.000 A 
ATOM     12  C   UNL     1       4.765   4.689  16.723  0.00  0.00    +0.000 A 
ATOM     13  C   UNL     1       4.368   6.025  16.882  0.00  0.00    +0.000 A 
ATOM     14  C   UNL     1       3.558   6.326  17.961  0.00  0.00    +0.000 A 
ATOM     15  C   UNL     1       2.991   7.625  18.340  0.00  0.00    +0.000 C 
ATOM     16  O   UNL     1       3.162   8.639  17.690  0.00  0.00    +0.000 OA
BRANCH  12  17
ATOM     17  C   UNL     1       5.673   4.303  15.573  0.00  0.00    +0.000 C 
ATOM     18  C   UNL     1       7.007   5.024  15.650  0.00  0.00    +0.000 C 
ATOM     19  F   UNL     1       5.925   2.960  15.541  0.00  0.00    +0.000 F 
ATOM     20  F   UNL     1       5.113   4.590  14.361  0.00  0.00    +0.000 F 
ENDBRANCH  12  17
ENDBRANCH   3   7
BRANCH   1  21
ATOM     21  C   UNL     1      -1.389  10.865  19.246  0.00  0.00    +0.000 C 
ATOM     22  C   UNL     1      -2.075  12.047  19.962  0.00  0.00    +0.000 C 
ATOM     23  O   UNL     1      -1.572  13.008  19.010  0.00  0.00    +0.000 OA
ATOM     24  C   UNL     1      -0.800  11.989  18.345  0.00  0.00    +0.000 C 
BRANCH  21  25
ATOM     25  C   UNL     1      -2.356   9.985  18.439  0.00  0.00    +0.000 C 
BRANCH  25  31
ATOM     26  C   UNL     1      -5.027  11.807  17.798  0.00  0.00    +0.000 C 
ATOM     27  N   UNL     1      -4.052  11.244  16.906  0.00  0.00    +0.000 N 
ATOM     28  C   UNL     1      -4.055  11.481  15.560  0.00  0.00    +0.000 A 
ATOM     29  N   UNL     1      -3.074  10.827  14.993  0.00  0.00    +0.000 NA
ATOM     30  N   UNL     1      -2.402  10.166  15.983  0.00  0.00    +0.000 NA
ATOM     31  C   UNL     1      -2.970  10.431  17.149  0.00  0.00    +0.000 A 
ENDBRANCH  25  31
ENDBRANCH  21  25
ENDBRANCH   1  21
TORSDOF 5
ENDMDL
MODEL 8
REMARK VINA RESULT:      -8.9      2.053      3.043
REMARK  Name = 
REMARK  7 active torsions:
REMARK  status: ('A' for Active; 'I' for Inactive)
REMARK    1  A    between atoms: C_1  and  N_2
REMARK    2  A    between atoms: C_6  and  C_7
REMARK    3  A    between atoms: C_7  and  C_8
REMARK    4  A    between atoms: C_8  and  C_9
REMARK    5  A    between atoms: C_11  and  N_12
REMARK    6  A    between atoms: C_17  and  C_18
REMARK    7  A    between atoms: C_18  and  C_19
REMARK                            x       y       z     vdW  Elec       q    Type
REMARK                         _______ _______ _______ _____ _____    ______ ____
ROOT
ATOM      1  C   UNL     1       4.703   4.524  16.885  0.00  0.00    +0.000 A 
ATOM      2  C   UNL     1       4.078   5.709  17.267  0.00  0.00    +0.000 A 
ATOM      3  C   UNL     1       3.202   5.717  18.349  0.00  0.00    +0.000 A 
ATOM      4  C   UNL     1       2.917   4.515  18.987  0.00  0.00    +0.000 A 
ATOM      5  C   UNL     1       3.512   3.367  18.505  0.00  0.00    +0.000 A 
ATOM      6  N   UNL     1       4.408   3.352  17.495  0.00  0.00    +0.000 NA
ENDROOT
BRANCH   3   7
ATOM      7  N   UNL     1       2.653   6.932  18.810  0.00  0.00    +0.000 N 
ATOM      8  C   UNL     1       2.532   8.094  17.939  0.00  0.00    +0.000 C 
ATOM      9  C   UNL     1       1.705   9.032  18.753  0.00  0.00    +0.000 A 
ATOM     10  C   UNL     1       1.239  10.296  18.446  0.00  0.00    +0.000 A 
ATOM     11  C   UNL     1       0.497  10.977  19.421  0.00  0.00    +0.000 A 
ATOM     12  C   UNL     1       0.225  10.400  20.685  0.00  0.00    +0.000 A 
ATOM     13  C   UNL     1       0.681   9.104  20.966  0.00  0.00    +0.000 A 
ATOM     14  C   UNL     1       1.406   8.455  19.983  0.00  0.00    +0.000 A 
ATOM     15  C   UNL     1       1.972   7.102  20.013  0.00  0.00    +0.000 C 
ATOM     16  O   UNL     1       1.836   6.345  20.955  0.00  0.00    +0.000 OA
BRANCH  12  17
ATOM     17  C   UNL     1      -0.553  11.170  21.733  0.00  0.00    +0.000 C 
ATOM     18  C   UNL     1      -0.776  10.340  22.984  0.00  0.00    +0.000 C 
ATOM     19  F   UNL     1       0.080  12.323  22.104  0.00  0.00    +0.000 F 
ATOM     20  F   UNL     1      -1.776  11.567  21.273  0.00  0.00    +0.000 F 
ENDBRANCH  12  17
ENDBRANCH   3   7
BRANCH   1  21
ATOM     21  C   UNL     1       5.790   4.428  15.748  0.00  0.00    +0.000 C 
ATOM     22  C   UNL     1       5.579   3.451  14.571  0.00  0.00    +0.000 C 
ATOM     23  O   UNL     1       5.581   4.515  13.597  0.00  0.00    +0.000 OA
ATOM     24  C   UNL     1       5.658   5.509  14.637  0.00  0.00    +0.000 C 
BRANCH  21  25
ATOM     25  C   UNL     1       7.218   4.415  16.313  0.00  0.00    +0.000 C 
BRANCH  25  31
ATOM     26  C   UNL     1       7.332   7.602  17.146  0.00  0.00    +0.000 C 
ATOM     27  N   UNL     1       7.569   6.427  17.938  0.00  0.00    +0.000 N 
ATOM     28  C   UNL     1       7.812   6.476  19.282  0.00  0.00    +0.000 A 
ATOM     29  N   UNL     1       8.016   5.267  19.739  0.00  0.00    +0.000 NA
ATOM     30  N   UNL     1       7.884   4.407  18.684  0.00  0.00    +0.000 NA
ATOM     31  C   UNL     1       7.588   5.096  17.594  0.00  0.00    +0.000 A 
ENDBRANCH  25  31
ENDBRANCH  21  25
ENDBRANCH   1  21
TORSDOF 5
ENDMDL
MODEL 9
REMARK VINA RESULT:      -8.9      4.627      9.451
REMARK  Name = 
REMARK  7 active torsions:
REMARK  status: ('A' for Active; 'I' for Inactive)
REMARK    1  A    between atoms: C_1  and  N_2
REMARK    2  A    between atoms: C_6  and  C_7
REMARK    3  A    between atoms: C_7  and  C_8
REMARK    4  A    between atoms: C_8  and  C_9
REMARK    5  A    between atoms: C_11  and  N_12
REMARK    6  A    between atoms: C_17  and  C_18
REMARK    7  A    between atoms: C_18  and  C_19
REMARK                            x       y       z     vdW  Elec       q    Type
REMARK                         _______ _______ _______ _____ _____    ______ ____
ROOT
ATOM      1  C   UNL     1      -0.530  10.990  20.177  0.00  0.00    +0.000 A 
ATOM      2  C   UNL     1       0.454  10.187  19.606  0.00  0.00    +0.000 A 
ATOM      3  C   UNL     1       0.965   9.101  20.314  0.00  0.00    +0.000 A 
ATOM      4  C   UNL     1       0.523   8.883  21.614  0.00  0.00    +0.000 A 
ATOM      5  C   UNL     1      -0.397   9.766  22.144  0.00  0.00    +0.000 A 
ATOM      6  N   UNL     1      -0.944  10.787  21.451  0.00  0.00    +0.000 NA
ENDROOT
BRANCH   3   7
ATOM      7  N   UNL     1       1.880   8.220  19.700  0.00  0.00    +0.000 N 
ATOM      8  C   UNL     1       2.154   6.899  20.251  0.00  0.00    +0.000 C 
ATOM      9  C   UNL     1       2.966   6.256  19.178  0.00  0.00    +0.000 A 
ATOM     10  C   UNL     1       3.503   4.984  19.115  0.00  0.00    +0.000 A 
ATOM     11  C   UNL     1       4.260   4.646  17.985  0.00  0.00    +0.000 A 
ATOM     12  C   UNL     1       4.475   5.567  16.931  0.00  0.00    +0.000 A 
ATOM     13  C   UNL     1       3.895   6.843  16.999  0.00  0.00    +0.000 A 
ATOM     14  C   UNL     1       3.150   7.147  18.124  0.00  0.00    +0.000 A 
ATOM     15  C   UNL     1       2.429   8.386  18.432  0.00  0.00    +0.000 C 
ATOM     16  O   UNL     1       2.383   9.334  17.671  0.00  0.00    +0.000 OA
BRANCH  12  17
ATOM     17  C   UNL     1       5.323   5.186  15.735  0.00  0.00    +0.000 C 
ATOM     18  C   UNL     1       6.762   4.910  16.136  0.00  0.00    +0.000 C 
ATOM     19  F   UNL     1       4.847   4.077  15.096  0.00  0.00    +0.000 F 
ATOM     20  F   UNL     1       5.337   6.168  14.785  0.00  0.00    +0.000 F 
ENDBRANCH  12  17
ENDBRANCH   3   7
BRANCH   1  21
ATOM     21  C   UNL     1      -1.250  12.171  19.423  0.00  0.00    +0.000 C 
ATOM     22  C   UNL     1      -1.133  13.610  19.971  0.00  0.00    +0.000 C 
ATOM     23  O   UNL     1      -0.489  14.089  18.772  0.00  0.00    +0.000 OA
ATOM     24  C   UNL     1      -0.446  12.756  18.226  0.00  0.00    +0.000 C 
BRANCH  21  25
ATOM     25  C   UNL     1      -2.671  11.794  18.979  0.00  0.00    +0.000 C 
BRANCH  25  31
ATOM     26  C   UNL     1      -5.281  12.051  16.981  0.00  0.00    +0.000 C 
ATOM     27  N   UNL     1      -4.037  11.356  16.798  0.00  0.00    +0.000 N 
ATOM     28  C   UNL     1      -3.707  10.722  15.633  0.00  0.00    +0.000 A 
ATOM     29  N   UNL     1      -2.534  10.155  15.754  0.00  0.00    +0.000 NA
ATOM     30  N   UNL     1      -2.075  10.438  17.011  0.00  0.00    +0.000 NA
ATOM     31  C   UNL     1      -2.966  11.185  17.643  0.00  0.00    +0.000 A 
ENDBRANCH  25  31
ENDBRANCH  21  25
ENDBRANCH   1  21
TORSDOF 5
ENDMDL
