MODEL 1
REMARK VINA RESULT:      -8.9      0.000      0.000
REMARK  Name = 
REMARK  5 active torsions:
REMARK  status: ('A' for Active; 'I' for Inactive)
REMARK    1  A    between atoms: C_2  and  C_13
REMARK    2  A    between atoms: N_3  and  C_4
REMARK    3  A    between atoms: C_17  and  O_18
REMARK    4  A    between atoms: O_18  and  C_19
REMARK    5  A    between atoms: C_19  and  C_20
REMARK                            x       y       z     vdW  Elec       q    Type
REMARK                         _______ _______ _______ _____ _____    ______ ____
ROOT
ATOM      1  O   UNL     1       2.577   8.794  17.230  0.00  0.00    +0.000 OA
ATOM      2  C   UNL     1       2.800   7.868  18.000  0.00  0.00    +0.000 C 
ATOM      3  N   UNL     1       2.281   7.705  19.277  0.00  0.00    +0.000 N 
ATOM      4  H   UNL     1       2.723   7.019  19.877  0.00  0.00    +0.000 HD
ENDROOT
BRANCH   3   5
ATOM      5  C   UNL     1       1.385   8.601  19.905  0.00  0.00    +0.000 A 
ATOM      6  C   UNL     1       0.664   9.567  19.188  0.00  0.00    +0.000 A 
ATOM      7  C   UNL     1      -0.115  10.541  19.824  0.00  0.00    +0.000 A 
ATOM      8  C   UNL     1      -0.145  10.487  21.213  0.00  0.00    +0.000 A 
ATOM      9  N   UNL     1      -0.722  11.273  22.166  0.00  0.00    +0.000 N 
ATOM     10  N   UNL     1      -0.480  10.816  23.404  0.00  0.00    +0.000 NA
ATOM     11  N   UNL     1       0.267   9.724  23.287  0.00  0.00    +0.000 NA
ATOM     12  C   UNL     1       0.501   9.509  21.955  0.00  0.00    +0.000 A 
ATOM     13  C   UNL     1       1.261   8.527  21.300  0.00  0.00    +0.000 A 
ATOM     14  H   UNL     1      -1.263  12.121  22.052  0.00  0.00    +0.000 HD
ENDBRANCH   3   5
BRANCH   2  15
ATOM     15  C   UNL     1       3.773   6.839  17.564  0.00  0.00    +0.000 A 
ATOM     16  C   UNL     1       4.574   7.108  16.447  0.00  0.00    +0.000 A 
ATOM     17  C   UNL     1       5.458   6.142  15.976  0.00  0.00    +0.000 A 
ATOM     18  C   UNL     1       5.518   4.898  16.602  0.00  0.00    +0.000 A 
ATOM     19  C   UNL     1       4.688   4.611  17.690  0.00  0.00    +0.000 A 
ATOM     20  C   UNL     1       3.836   5.595  18.193  0.00  0.00    +0.000 A 
BRANCH  19  21
ATOM     21  O   UNL     1       4.771   3.333  18.177  0.00  0.00    +0.000 OA
BRANCH  21  22
ATOM     22  C   UNL     1       3.555   2.583  18.112  0.00  0.00    +0.000 C 
BRANCH  22  23
ATOM     23  C   UNL     1       2.820   2.702  19.410  0.00  0.00    +0.000 A 
ATOM     24  C   UNL     1       1.448   2.959  19.460  0.00  0.00    +0.000 A 
ATOM     25  C   UNL     1       0.799   2.990  20.688  0.00  0.00    +0.000 A 
ATOM     26  C   UNL     1       1.548   2.754  21.832  0.00  0.00    +0.000 A 
ATOM     27  N   UNL     1       2.872   2.497  21.824  0.00  0.00    +0.000 NA
ATOM     28  C   UNL     1       3.479   2.482  20.616  0.00  0.00    +0.000 A 
ENDBRANCH  22  23
ENDBRANCH  21  22
ENDBRANCH  19  21
ENDBRANCH   2  15
TORSDOF 5
ENDMDL
MODEL 2
REMARK VINA RESULT:      -8.7      0.983      1.187
REMARK  Name = 
REMARK  5 active torsions:
REMARK  status: ('A' for Active; 'I' for Inactive)
REMARK    1  A    between atoms: C_2  and  C_13
REMARK    2  A    between atoms: N_3  and  C_4
REMARK    3  A    between atoms: C_17  and  O_18
REMARK    4  A    between atoms: O_18  and  C_19
REMARK    5  A    between atoms: C_19  and  C_20
REMARK                            x       y       z     vdW  Elec       q    Type
REMARK                         _______ _______ _______ _____ _____    ______ ____
ROOT
ATOM      1  O   UNL     1       2.667   8.561  17.462  0.00  0.00    +0.000 OA
ATOM      2  C   UNL     1       2.827   7.703  18.322  0.00  0.00    +0.000 C 
ATOM      3  N   UNL     1       2.235   7.663  19.576  0.00  0.00    +0.000 N 
ATOM      4  H   UNL     1       2.628   7.025  20.258  0.00  0.00    +0.000 HD
ENDROOT
BRANCH   3   5
ATOM      5  C   UNL     1       1.326   8.626  20.071  0.00  0.00    +0.000 A 
ATOM      6  C   UNL     1       0.673   9.542  19.234  0.00  0.00    +0.000 A 
ATOM      7  C   UNL     1      -0.118  10.582  19.738  0.00  0.00    +0.000 A 
ATOM      8  C   UNL     1      -0.232  10.646  21.121  0.00  0.00    +0.000 A 
ATOM      9  N   UNL     1      -0.845  11.520  21.969  0.00  0.00    +0.000 N 
ATOM     10  N   UNL     1      -0.690  11.164  23.253  0.00  0.00    +0.000 NA
ATOM     11  N   UNL     1       0.036  10.052  23.273  0.00  0.00    +0.000 NA
ATOM     12  C   UNL     1       0.343   9.721  21.981  0.00  0.00    +0.000 A 
ATOM     13  C   UNL     1       1.117   8.672  21.458  0.00  0.00    +0.000 A 
ATOM     14  H   UNL     1      -1.357  12.367  21.751  0.00  0.00    +0.000 HD
ENDBRANCH   3   5
BRANCH   2  15
ATOM     15  C   UNL     1       3.799   6.623  18.033  0.00  0.00    +0.000 A 
ATOM     16  C   UNL     1       4.330   6.528  16.740  0.00  0.00    +0.000 A 
ATOM     17  C   UNL     1       5.202   5.493  16.419  0.00  0.00    +0.000 A 
ATOM     18  C   UNL     1       5.519   4.535  17.381  0.00  0.00    +0.000 A 
ATOM     19  C   UNL     1       4.956   4.601  18.660  0.00  0.00    +0.000 A 
ATOM     20  C   UNL     1       4.120   5.666  18.997  0.00  0.00    +0.000 A 
BRANCH  19  21
ATOM     21  O   UNL     1       5.272   3.566  19.500  0.00  0.00    +0.000 OA
BRANCH  21  22
ATOM     22  C   UNL     1       4.574   2.345  19.240  0.00  0.00    +0.000 C 
BRANCH  22  23
ATOM     23  C   UNL     1       3.131   2.502  19.607  0.00  0.00    +0.000 A 
ATOM     24  C   UNL     1       2.729   2.790  20.912  0.00  0.00    +0.000 A 
ATOM     25  C   UNL     1       1.383   2.995  21.186  0.00  0.00    +0.000 A 
ATOM     26  C   UNL     1       0.479   2.912  20.138  0.00  0.00    +0.000 A 
ATOM     27  N   UNL     1       0.830   2.642  18.863  0.00  0.00    +0.000 NA
ATOM     28  C   UNL     1       2.145   2.437  18.626  0.00  0.00    +0.000 A 
ENDBRANCH  22  23
ENDBRANCH  21  22
ENDBRANCH  19  21
ENDBRANCH   2  15
TORSDOF 5
ENDMDL
MODEL 3
REMARK VINA RESULT:      -8.6      0.843      1.111
REMARK  Name = 
REMARK  5 active torsions:
REMARK  status: ('A' for Active; 'I' for Inactive)
REMARK    1  A    between atoms: C_2  and  C_13
REMARK    2  A    between atoms: N_3  and  C_4
REMARK    3  A    between atoms: C_17  and  O_18
REMARK    4  A    between atoms: O_18  and  C_19
REMARK    5  A    between atoms: C_19  and  C_20
REMARK                            x       y       z     vdW  Elec       q    Type
REMARK                         _______ _______ _______ _____ _____    ______ ____
ROOT
ATOM      1  O   UNL     1       2.643   8.800  17.358  0.00  0.00    +0.000 OA
ATOM      2  C   UNL     1       2.689   7.840  18.118  0.00  0.00    +0.000 C 
ATOM      3  N   UNL     1       2.065   7.726  19.352  0.00  0.00    +0.000 N 
ATOM      4  H   UNL     1       2.370   6.978  19.963  0.00  0.00    +0.000 HD
ENDROOT
BRANCH   3   5
ATOM      5  C   UNL     1       1.252   8.721  19.940  0.00  0.00    +0.000 A 
ATOM      6  C   UNL     1       0.706   9.779  19.199  0.00  0.00    +0.000 A 
ATOM      7  C   UNL     1       0.017  10.838  19.804  0.00  0.00    +0.000 A 
ATOM      8  C   UNL     1      -0.109  10.773  21.187  0.00  0.00    +0.000 A 
ATOM      9  N   UNL     1      -0.641  11.614  22.117  0.00  0.00    +0.000 N 
ATOM     10  N   UNL     1      -0.539  11.117  23.359  0.00  0.00    +0.000 NA
ATOM     11  N   UNL     1       0.071   9.940  23.267  0.00  0.00    +0.000 NA
ATOM     12  C   UNL     1       0.360   9.712  21.949  0.00  0.00    +0.000 A 
ATOM     13  C   UNL     1       1.030   8.648  21.324  0.00  0.00    +0.000 A 
ATOM     14  H   UNL     1      -1.062  12.526  21.986  0.00  0.00    +0.000 HD
ENDBRANCH   3   5
BRANCH   2  15
ATOM     15  C   UNL     1       3.548   6.699  17.723  0.00  0.00    +0.000 A 
ATOM     16  C   UNL     1       4.866   6.960  17.326  0.00  0.00    +0.000 A 
ATOM     17  C   UNL     1       5.683   5.920  16.895  0.00  0.00    +0.000 A 
ATOM     18  C   UNL     1       5.172   4.623  16.831  0.00  0.00    +0.000 A 
ATOM     19  C   UNL     1       3.844   4.366  17.184  0.00  0.00    +0.000 A 
ATOM     20  C   UNL     1       3.039   5.401  17.663  0.00  0.00    +0.000 A 
BRANCH  19  21
ATOM     21  O   UNL     1       3.424   3.075  17.007  0.00  0.00    +0.000 OA
BRANCH  21  22
ATOM     22  C   UNL     1       3.800   2.171  18.050  0.00  0.00    +0.000 C 
BRANCH  22  23
ATOM     23  C   UNL     1       2.912   2.377  19.238  0.00  0.00    +0.000 A 
ATOM     24  C   UNL     1       3.430   2.607  20.514  0.00  0.00    +0.000 A 
ATOM     25  C   UNL     1       2.565   2.861  21.570  0.00  0.00    +0.000 A 
ATOM     26  C   UNL     1       1.202   2.885  21.312  0.00  0.00    +0.000 A 
ATOM     27  N   UNL     1       0.665   2.673  20.092  0.00  0.00    +0.000 NA
ATOM     28  C   UNL     1       1.530   2.419  19.085  0.00  0.00    +0.000 A 
ENDBRANCH  22  23
ENDBRANCH  21  22
ENDBRANCH  19  21
ENDBRANCH   2  15
TORSDOF 5
ENDMDL
MODEL 4
REMARK VINA RESULT:      -8.4      2.341      2.534
REMARK  Name = 
REMARK  5 active torsions:
REMARK  status: ('A' for Active; 'I' for Inactive)
REMARK    1  A    between atoms: C_2  and  C_13
REMARK    2  A    between atoms: N_3  and  C_4
REMARK    3  A    between atoms: C_17  and  O_18
REMARK    4  A    between atoms: O_18  and  C_19
REMARK    5  A    between atoms: C_19  and  C_20
REMARK                            x       y       z     vdW  Elec       q    Type
REMARK                         _______ _______ _______ _____ _____    ______ ____
ROOT
ATOM      1  O   UNL     1       1.948   7.805  19.782  0.00  0.00    +0.000 OA
ATOM      2  C   UNL     1       2.312   7.966  18.623  0.00  0.00    +0.000 C 
ATOM      3  N   UNL     1       1.978   9.021  17.786  0.00  0.00    +0.000 N 
ATOM      4  H   UNL     1       2.164   8.909  16.796  0.00  0.00    +0.000 HD
ENDROOT
BRANCH   3   5
ATOM      5  C   UNL     1       1.151  10.108  18.148  0.00  0.00    +0.000 A 
ATOM      6  C   UNL     1      -0.248  10.012  18.172  0.00  0.00    +0.000 A 
ATOM      7  C   UNL     1      -1.069  11.124  18.396  0.00  0.00    +0.000 A 
ATOM      8  C   UNL     1      -0.416  12.332  18.609  0.00  0.00    +0.000 A 
ATOM      9  N   UNL     1      -0.852  13.610  18.796  0.00  0.00    +0.000 N 
ATOM     10  N   UNL     1       0.167  14.465  18.973  0.00  0.00    +0.000 NA
ATOM     11  N   UNL     1       1.292  13.765  18.897  0.00  0.00    +0.000 NA
ATOM     12  C   UNL     1       0.965  12.457  18.659  0.00  0.00    +0.000 A 
ATOM     13  C   UNL     1       1.774  11.328  18.453  0.00  0.00    +0.000 A 
ATOM     14  H   UNL     1      -1.800  13.967  18.798  0.00  0.00    +0.000 HD
ENDBRANCH   3   5
BRANCH   2  15
ATOM     15  C   UNL     1       3.142   6.899  18.016  0.00  0.00    +0.000 A 
ATOM     16  C   UNL     1       4.360   7.256  17.422  0.00  0.00    +0.000 A 
ATOM     17  C   UNL     1       5.137   6.289  16.793  0.00  0.00    +0.000 A 
ATOM     18  C   UNL     1       4.683   4.972  16.730  0.00  0.00    +0.000 A 
ATOM     19  C   UNL     1       3.447   4.621  17.282  0.00  0.00    +0.000 A 
ATOM     20  C   UNL     1       2.689   5.580  17.956  0.00  0.00    +0.000 A 
BRANCH  19  21
ATOM     21  O   UNL     1       3.062   3.321  17.094  0.00  0.00    +0.000 OA
BRANCH  21  22
ATOM     22  C   UNL     1       3.571   2.396  18.058  0.00  0.00    +0.000 C 
BRANCH  22  23
ATOM     23  C   UNL     1       2.836   2.561  19.352  0.00  0.00    +0.000 A 
ATOM     24  C   UNL     1       1.445   2.678  19.400  0.00  0.00    +0.000 A 
ATOM     25  C   UNL     1       0.805   2.759  20.630  0.00  0.00    +0.000 A 
ATOM     26  C   UNL     1       1.582   2.712  21.779  0.00  0.00    +0.000 A 
ATOM     27  N   UNL     1       2.926   2.594  21.773  0.00  0.00    +0.000 NA
ATOM     28  C   UNL     1       3.523   2.526  20.562  0.00  0.00    +0.000 A 
ENDBRANCH  22  23
ENDBRANCH  21  22
ENDBRANCH  19  21
ENDBRANCH   2  15
TORSDOF 5
ENDMDL
MODEL 5
REMARK VINA RESULT:      -8.4      2.194      2.427
REMARK  Name = 
REMARK  5 active torsions:
REMARK  status: ('A' for Active; 'I' for Inactive)
REMARK    1  A    between atoms: C_2  and  C_13
REMARK    2  A    between atoms: N_3  and  C_4
REMARK    3  A    between atoms: C_17  and  O_18
REMARK    4  A    between atoms: O_18  and  C_19
REMARK    5  A    between atoms: C_19  and  C_20
REMARK                            x       y       z     vdW  Elec       q    Type
REMARK                         _______ _______ _______ _____ _____    ______ ____
ROOT
ATOM      1  O   UNL     1       2.024   7.861  19.836  0.00  0.00    +0.000 OA
ATOM      2  C   UNL     1       2.269   7.910  18.636  0.00  0.00    +0.000 C 
ATOM      3  N   UNL     1       1.822   8.865  17.735  0.00  0.00    +0.000 N 
ATOM      4  H   UNL     1       1.916   8.657  16.748  0.00  0.00    +0.000 HD
ENDROOT
BRANCH   3   5
ATOM      5  C   UNL     1       0.996   9.964  18.066  0.00  0.00    +0.000 A 
ATOM      6  C   UNL     1       1.509  11.152  18.606  0.00  0.00    +0.000 A 
ATOM      7  C   UNL     1       0.680  12.185  19.061  0.00  0.00    +0.000 A 
ATOM      8  C   UNL     1      -0.687  11.971  18.932  0.00  0.00    +0.000 A 
ATOM      9  N   UNL     1      -1.784  12.689  19.302  0.00  0.00    +0.000 N 
ATOM     10  N   UNL     1      -2.926  12.075  18.955  0.00  0.00    +0.000 NA
ATOM     11  N   UNL     1      -2.598  10.935  18.357  0.00  0.00    +0.000 NA
ATOM     12  C   UNL     1      -1.233  10.838  18.344  0.00  0.00    +0.000 A 
ATOM     13  C   UNL     1      -0.386   9.822  17.874  0.00  0.00    +0.000 A 
ATOM     14  H   UNL     1      -1.832  13.573  19.796  0.00  0.00    +0.000 HD
ENDBRANCH   3   5
BRANCH   2  15
ATOM     15  C   UNL     1       3.074   6.807  18.060  0.00  0.00    +0.000 A 
ATOM     16  C   UNL     1       4.346   7.102  17.552  0.00  0.00    +0.000 A 
ATOM     17  C   UNL     1       5.105   6.101  16.953  0.00  0.00    +0.000 A 
ATOM     18  C   UNL     1       4.580   4.815  16.834  0.00  0.00    +0.000 A 
ATOM     19  C   UNL     1       3.294   4.528  17.301  0.00  0.00    +0.000 A 
ATOM     20  C   UNL     1       2.551   5.518  17.946  0.00  0.00    +0.000 A 
BRANCH  19  21
ATOM     21  O   UNL     1       2.847   3.255  17.062  0.00  0.00    +0.000 OA
BRANCH  21  22
ATOM     22  C   UNL     1       3.332   2.266  17.973  0.00  0.00    +0.000 C 
BRANCH  22  23
ATOM     23  C   UNL     1       2.720   2.482  19.323  0.00  0.00    +0.000 A 
ATOM     24  C   UNL     1       1.342   2.624  19.494  0.00  0.00    +0.000 A 
ATOM     25  C   UNL     1       0.819   2.752  20.774  0.00  0.00    +0.000 A 
ATOM     26  C   UNL     1       1.697   2.726  21.848  0.00  0.00    +0.000 A 
ATOM     27  N   UNL     1       3.033   2.584  21.723  0.00  0.00    +0.000 NA
ATOM     28  C   UNL     1       3.515   2.471  20.466  0.00  0.00    +0.000 A 
ENDBRANCH  22  23
ENDBRANCH  21  22
ENDBRANCH  19  21
ENDBRANCH   2  15
TORSDOF 5
ENDMDL
MODEL 6
REMARK VINA RESULT:      -8.3      3.518      5.323
REMARK  Name = 
REMARK  5 active torsions:
REMARK  status: ('A' for Active; 'I' for Inactive)
REMARK    1  A    between atoms: C_2  and  C_13
REMARK    2  A    between atoms: N_3  and  C_4
REMARK    3  A    between atoms: C_17  and  O_18
REMARK    4  A    between atoms: O_18  and  C_19
REMARK    5  A    between atoms: C_19  and  C_20
REMARK                            x       y       z     vdW  Elec       q    Type
REMARK                         _______ _______ _______ _____ _____    ______ ____
ROOT
ATOM      1  O   UNL     1       0.003  10.152  23.314  0.00  0.00    +0.000 OA
ATOM      2  C   UNL     1      -0.169  10.665  22.215  0.00  0.00    +0.000 C 
ATOM      3  N   UNL     1      -0.967  11.763  21.925  0.00  0.00    +0.000 N 
ATOM      4  H   UNL     1      -1.190  11.935  20.952  0.00  0.00    +0.000 HD
ENDROOT
BRANCH   3   5
ATOM      5  C   UNL     1      -1.722  12.485  22.877  0.00  0.00    +0.000 A 
ATOM      6  C   UNL     1      -2.969  12.041  23.341  0.00  0.00    +0.000 A 
ATOM      7  C   UNL     1      -3.777  12.821  24.176  0.00  0.00    +0.000 A 
ATOM      8  C   UNL     1      -3.265  14.063  24.534  0.00  0.00    +0.000 A 
ATOM      9  N   UNL     1      -3.760  15.104  25.260  0.00  0.00    +0.000 N 
ATOM     10  N   UNL     1      -2.883  16.116  25.347  0.00  0.00    +0.000 NA
ATOM     11  N   UNL     1      -1.796  15.760  24.672  0.00  0.00    +0.000 NA
ATOM     12  C   UNL     1      -2.009  14.512  24.150  0.00  0.00    +0.000 A 
ATOM     13  C   UNL     1      -1.203  13.708  23.329  0.00  0.00    +0.000 A 
ATOM     14  H   UNL     1      -4.669  15.202  25.698  0.00  0.00    +0.000 HD
ENDBRANCH   3   5
BRANCH   2  15
ATOM     15  C   UNL     1       0.485  10.019  21.052  0.00  0.00    +0.000 A 
ATOM     16  C   UNL     1       0.245  10.542  19.774  0.00  0.00    +0.000 A 
ATOM     17  C   UNL     1       0.797   9.927  18.656  0.00  0.00    +0.000 A 
ATOM     18  C   UNL     1       1.563   8.772  18.811  0.00  0.00    +0.000 A 
ATOM     19  C   UNL     1       1.767   8.222  20.080  0.00  0.00    +0.000 A 
ATOM     20  C   UNL     1       1.255   8.866  21.208  0.00  0.00    +0.000 A 
BRANCH  19  21
ATOM     21  O   UNL     1       2.466   7.044  20.110  0.00  0.00    +0.000 OA
BRANCH  21  22
ATOM     22  C   UNL     1       2.576   6.378  18.850  0.00  0.00    +0.000 C 
BRANCH  22  23
ATOM     23  C   UNL     1       2.023   4.991  18.963  0.00  0.00    +0.000 A 
ATOM     24  C   UNL     1       1.512   4.497  20.165  0.00  0.00    +0.000 A 
ATOM     25  C   UNL     1       0.947   3.229  20.201  0.00  0.00    +0.000 A 
ATOM     26  C   UNL     1       0.906   2.495  19.025  0.00  0.00    +0.000 A 
ATOM     27  N   UNL     1       1.384   2.940  17.844  0.00  0.00    +0.000 NA
ATOM     28  C   UNL     1       1.936   4.173  17.840  0.00  0.00    +0.000 A 
ENDBRANCH  22  23
ENDBRANCH  21  22
ENDBRANCH  19  21
ENDBRANCH   2  15
TORSDOF 5
ENDMDL
MODEL 7
REMARK VINA RESULT:      -8.3      5.809      7.138
REMARK  Name = 
REMARK  5 active torsions:
REMARK  status: ('A' for Active; 'I' for Inactive)
REMARK    1  A    between atoms: C_2  and  C_13
REMARK    2  A    between atoms: N_3  and  C_4
REMARK    3  A    between atoms: C_17  and  O_18
REMARK    4  A    between atoms: O_18  and  C_19
REMARK    5  A    between atoms: C_19  and  C_20
REMARK                            x       y       z     vdW  Elec       q    Type
REMARK                         _______ _______ _______ _____ _____    ______ ____
ROOT
ATOM      1  O   UNL     1       7.494   9.619  17.174  0.00  0.00    +0.000 OA
ATOM      2  C   UNL     1       7.929   8.865  18.037  0.00  0.00    +0.000 C 
ATOM      3  N   UNL     1       8.883   9.165  18.999  0.00  0.00    +0.000 N 
ATOM      4  H   UNL     1       9.306   8.390  19.495  0.00  0.00    +0.000 HD
ENDROOT
BRANCH   3   5
ATOM      5  C   UNL     1       9.515  10.421  19.145  0.00  0.00    +0.000 A 
ATOM      6  C   UNL     1       9.632  11.063  20.387  0.00  0.00    +0.000 A 
ATOM      7  C   UNL     1      10.133  12.364  20.511  0.00  0.00    +0.000 A 
ATOM      8  C   UNL     1      10.524  12.983  19.329  0.00  0.00    +0.000 A 
ATOM      9  N   UNL     1      10.991  14.229  19.037  0.00  0.00    +0.000 N 
ATOM     10  N   UNL     1      11.249  14.373  17.728  0.00  0.00    +0.000 NA
ATOM     11  N   UNL     1      10.947  13.224  17.134  0.00  0.00    +0.000 NA
ATOM     12  C   UNL     1      10.486  12.359  18.090  0.00  0.00    +0.000 A 
ATOM     13  C   UNL     1      10.000  11.046  17.986  0.00  0.00    +0.000 A 
ATOM     14  H   UNL     1      11.138  15.017  19.657  0.00  0.00    +0.000 HD
ENDBRANCH   3   5
BRANCH   2  15
ATOM     15  C   UNL     1       7.445   7.465  18.024  0.00  0.00    +0.000 A 
ATOM     16  C   UNL     1       8.179   6.497  18.723  0.00  0.00    +0.000 A 
ATOM     17  C   UNL     1       7.784   5.164  18.686  0.00  0.00    +0.000 A 
ATOM     18  C   UNL     1       6.675   4.793  17.926  0.00  0.00    +0.000 A 
ATOM     19  C   UNL     1       5.967   5.749  17.193  0.00  0.00    +0.000 A 
ATOM     20  C   UNL     1       6.332   7.094  17.268  0.00  0.00    +0.000 A 
BRANCH  19  21
ATOM     21  O   UNL     1       4.946   5.265  16.419  0.00  0.00    +0.000 OA
BRANCH  21  22
ATOM     22  C   UNL     1       4.786   3.844  16.454  0.00  0.00    +0.000 C 
BRANCH  22  23
ATOM     23  C   UNL     1       3.613   3.490  17.313  0.00  0.00    +0.000 A 
ATOM     24  C   UNL     1       2.503   4.330  17.430  0.00  0.00    +0.000 A 
ATOM     25  C   UNL     1       1.410   3.923  18.185  0.00  0.00    +0.000 A 
ATOM     26  C   UNL     1       1.461   2.679  18.796  0.00  0.00    +0.000 A 
ATOM     27  N   UNL     1       2.512   1.837  18.701  0.00  0.00    +0.000 NA
ATOM     28  C   UNL     1       3.565   2.263  17.968  0.00  0.00    +0.000 A 
ENDBRANCH  22  23
ENDBRANCH  21  22
ENDBRANCH  19  21
ENDBRANCH   2  15
TORSDOF 5
ENDMDL
MODEL 8
REMARK VINA RESULT:      -8.3      3.417      8.724
REMARK  Name = 
REMARK  5 active torsions:
REMARK  status: ('A' for Active; 'I' for Inactive)
REMARK    1  A    between atoms: C_2  and  C_13
REMARK    2  A    between atoms: N_3  and  C_4
REMARK    3  A    between atoms: C_17  and  O_18
REMARK    4  A    between atoms: O_18  and  C_19
REMARK    5  A    between atoms: C_19  and  C_20
REMARK                            x       y       z     vdW  Elec       q    Type
REMARK                         _______ _______ _______ _____ _____    ______ ____
ROOT
ATOM      1  O   UNL     1       2.642   6.264  20.364  0.00  0.00    +0.000 OA
ATOM      2  C   UNL     1       2.307   7.098  19.531  0.00  0.00    +0.000 C 
ATOM      3  N   UNL     1       2.700   7.148  18.201  0.00  0.00    +0.000 N 
ATOM      4  H   UNL     1       2.528   8.009  17.695  0.00  0.00    +0.000 HD
ENDROOT
BRANCH   3   5
ATOM      5  C   UNL     1       3.563   6.218  17.579  0.00  0.00    +0.000 A 
ATOM      6  C   UNL     1       3.242   4.858  17.461  0.00  0.00    +0.000 A 
ATOM      7  C   UNL     1       4.153   3.915  16.969  0.00  0.00    +0.000 A 
ATOM      8  C   UNL     1       5.396   4.409  16.590  0.00  0.00    +0.000 A 
ATOM      9  N   UNL     1       6.537   3.818  16.135  0.00  0.00    +0.000 N 
ATOM     10  N   UNL     1       7.501   4.717  15.885  0.00  0.00    +0.000 NA
ATOM     11  N   UNL     1       7.013   5.916  16.180  0.00  0.00    +0.000 NA
ATOM     12  C   UNL     1       5.730   5.755  16.629  0.00  0.00    +0.000 A 
ATOM     13  C   UNL     1       4.796   6.690  17.105  0.00  0.00    +0.000 A 
ATOM     14  H   UNL     1       6.732   2.834  15.991  0.00  0.00    +0.000 HD
ENDBRANCH   3   5
BRANCH   2  15
ATOM     15  C   UNL     1       1.446   8.213  19.991  0.00  0.00    +0.000 A 
ATOM     16  C   UNL     1       0.923   8.161  21.290  0.00  0.00    +0.000 A 
ATOM     17  C   UNL     1       0.066   9.163  21.735  0.00  0.00    +0.000 A 
ATOM     18  C   UNL     1      -0.293  10.198  20.872  0.00  0.00    +0.000 A 
ATOM     19  C   UNL     1       0.193  10.228  19.562  0.00  0.00    +0.000 A 
ATOM     20  C   UNL     1       1.091   9.252  19.130  0.00  0.00    +0.000 A 
BRANCH  19  21
ATOM     21  O   UNL     1      -0.286  11.244  18.777  0.00  0.00    +0.000 OA
BRANCH  21  22
ATOM     22  C   UNL     1      -1.399  11.955  19.324  0.00  0.00    +0.000 C 
BRANCH  22  23
ATOM     23  C   UNL     1      -2.596  11.772  18.443  0.00  0.00    +0.000 A 
ATOM     24  C   UNL     1      -2.477  11.378  17.109  0.00  0.00    +0.000 A 
ATOM     25  C   UNL     1      -3.621  11.154  16.355  0.00  0.00    +0.000 A 
ATOM     26  C   UNL     1      -4.855  11.325  16.966  0.00  0.00    +0.000 A 
ATOM     27  N   UNL     1      -5.010  11.698  18.253  0.00  0.00    +0.000 NA
ATOM     28  C   UNL     1      -3.880  11.918  18.961  0.00  0.00    +0.000 A 
ENDBRANCH  22  23
ENDBRANCH  21  22
ENDBRANCH  19  21
ENDBRANCH   2  15
TORSDOF 5
ENDMDL
MODEL 9
REMARK VINA RESULT:      -8.3      1.081      1.664
REMARK  Name = 
REMARK  5 active torsions:
REMARK  status: ('A' for Active; 'I' for Inactive)
REMARK    1  A    between atoms: C_2  and  C_13
REMARK    2  A    between atoms: N_3  and  C_4
REMARK    3  A    between atoms: C_17  and  O_18
REMARK    4  A    between atoms: O_18  and  C_19
REMARK    5  A    between atoms: C_19  and  C_20
REMARK                            x       y       z     vdW  Elec       q    Type
REMARK                         _______ _______ _______ _____ _____    ______ ____
ROOT
ATOM      1  O   UNL     1       2.277   8.928  17.948  0.00  0.00    +0.000 OA
ATOM      2  C   UNL     1       2.302   7.903  18.619  0.00  0.00    +0.000 C 
ATOM      3  N   UNL     1       1.792   7.734  19.898  0.00  0.00    +0.000 N 
ATOM      4  H   UNL     1       2.080   6.909  20.411  0.00  0.00    +0.000 HD
ENDROOT
BRANCH   3   5
ATOM      5  C   UNL     1       1.140   8.739  20.647  0.00  0.00    +0.000 A 
ATOM      6  C   UNL     1       1.186   8.781  22.048  0.00  0.00    +0.000 A 
ATOM      7  C   UNL     1       0.429   9.693  22.793  0.00  0.00    +0.000 A 
ATOM      8  C   UNL     1      -0.364  10.570  22.062  0.00  0.00    +0.000 A 
ATOM      9  N   UNL     1      -1.261  11.533  22.414  0.00  0.00    +0.000 N 
ATOM     10  N   UNL     1      -1.789  12.141  21.340  0.00  0.00    +0.000 NA
ATOM     11  N   UNL     1      -1.253  11.581  20.262  0.00  0.00    +0.000 NA
ATOM     12  C   UNL     1      -0.388  10.604  20.675  0.00  0.00    +0.000 A 
ATOM     13  C   UNL     1       0.394   9.696  19.942  0.00  0.00    +0.000 A 
ATOM     14  H   UNL     1      -1.569  11.812  23.338  0.00  0.00    +0.000 HD
ENDBRANCH   3   5
BRANCH   2  15
ATOM     15  C   UNL     1       3.004   6.731  18.044  0.00  0.00    +0.000 A 
ATOM     16  C   UNL     1       4.314   6.900  17.576  0.00  0.00    +0.000 A 
ATOM     17  C   UNL     1       4.983   5.835  16.980  0.00  0.00    +0.000 A 
ATOM     18  C   UNL     1       4.331   4.612  16.824  0.00  0.00    +0.000 A 
ATOM     19  C   UNL     1       3.009   4.454  17.250  0.00  0.00    +0.000 A 
ATOM     20  C   UNL     1       2.354   5.506  17.892  0.00  0.00    +0.000 A 
BRANCH  19  21
ATOM     21  O   UNL     1       2.440   3.238  16.975  0.00  0.00    +0.000 OA
BRANCH  21  22
ATOM     22  C   UNL     1       2.893   2.162  17.800  0.00  0.00    +0.000 C 
BRANCH  22  23
ATOM     23  C   UNL     1       2.546   2.442  19.229  0.00  0.00    +0.000 A 
ATOM     24  C   UNL     1       1.231   2.667  19.638  0.00  0.00    +0.000 A 
ATOM     25  C   UNL     1       0.953   2.853  20.987  0.00  0.00    +0.000 A 
ATOM     26  C   UNL     1       2.007   2.799  21.887  0.00  0.00    +0.000 A 
ATOM     27  N   UNL     1       3.290   2.578  21.531  0.00  0.00    +0.000 NA
ATOM     28  C   UNL     1       3.532   2.410  20.212  0.00  0.00    +0.000 A 
ENDBRANCH  22  23
ENDBRANCH  21  22
ENDBRANCH  19  21
ENDBRANCH   2  15
TORSDOF 5
ENDMDL
