MODEL 1
REMARK VINA RESULT:      -9.4      0.000      0.000
REMARK  Name = 
REMARK  4 active torsions:
REMARK  status: ('A' for Active; 'I' for Inactive)
REMARK    1  A    between atoms: C_1  and  S_2
REMARK    2  A    between atoms: S_2  and  C_5
REMARK    3  A    between atoms: C_8  and  C_9
REMARK    4  A    between atoms: C_12  and  C_14
REMARK                            x       y       z     vdW  Elec       q    Type
REMARK                         _______ _______ _______ _____ _____    ______ ____
ROOT
ATOM      1  C   UNL     1       2.196   6.060  20.002  0.00  0.00    +0.000 C 
ATOM      2  C   UNL     1       2.501   5.361  18.654  0.00  0.00    +0.000 C 
ATOM      3  N   UNL     1       2.922   3.979  18.935  0.00  0.00    +0.000 N 
ATOM      4  C   UNL     1       4.072   3.304  18.520  0.00  0.00    +0.000 C 
ATOM      5  O   UNL     1       4.280   2.135  18.854  0.00  0.00    +0.000 OA
ATOM      6  C   UNL     1       1.892   3.242  19.681  0.00  0.00    +0.000 C 
ATOM      7  C   UNL     1       1.459   4.009  20.940  0.00  0.00    +0.000 C 
ATOM      8  O   UNL     1       1.104   5.375  20.654  0.00  0.00    +0.000 OA
ENDROOT
BRANCH   4   9
ATOM      9  C   UNL     1       5.038   3.899  17.545  0.00  0.00    +0.000 A 
ATOM     10  C   UNL     1       4.860   3.478  16.211  0.00  0.00    +0.000 A 
ATOM     11  C   UNL     1       5.589   4.059  15.179  0.00  0.00    +0.000 A 
ATOM     12  C   UNL     1       6.392   5.151  15.462  0.00  0.00    +0.000 A 
ATOM     13  F   UNL     1       7.046   5.743  14.450  0.00  0.00    +0.000 F 
ATOM     14  C   UNL     1       6.617   5.568  16.778  0.00  0.00    +0.000 A 
ATOM     15  C   UNL     1       7.427   6.683  17.034  0.00  0.00    +0.000 A 
ATOM     16  C   UNL     1       7.944   6.898  18.304  0.00  0.00    +0.000 A 
ATOM     17  C   UNL     1       7.620   6.020  19.330  0.00  0.00    +0.000 A 
ATOM     18  C   UNL     1       6.651   5.031  19.124  0.00  0.00    +0.000 A 
ATOM     19  C   UNL     1       6.073   4.823  17.849  0.00  0.00    +0.000 A 
ENDBRANCH   4   9
BRANCH   1  23
ATOM     20  C   UNL     1       1.118  10.187  19.376  0.00  0.00    +0.000 A 
ATOM     21  C   UNL     1       0.917   9.608  20.631  0.00  0.00    +0.000 A 
ATOM     22  C   UNL     1       1.294   8.283  20.847  0.00  0.00    +0.000 A 
ATOM     23  C   UNL     1       1.867   7.527  19.817  0.00  0.00    +0.000 A 
ATOM     24  C   UNL     1       2.082   8.138  18.568  0.00  0.00    +0.000 A 
ATOM     25  C   UNL     1       1.698   9.459  18.338  0.00  0.00    +0.000 A 
BRANCH  20  27
ATOM     26  C   UNL     1       0.465  12.536  20.713  0.00  0.00    +0.000 C 
ATOM     27  S   UNL     1       0.568  11.853  19.079  0.00  0.00    +0.000 S 
ATOM     28  O   UNL     1      -0.771  11.778  18.543  0.00  0.00    +0.000 OA
ATOM     29  O   UNL     1       1.634  12.539  18.382  0.00  0.00    +0.000 OA
ENDBRANCH  20  27
ENDBRANCH   1  23
TORSDOF 3
ENDMDL
MODEL 2
REMARK VINA RESULT:      -9.2      0.697      1.244
REMARK  Name = 
REMARK  4 active torsions:
REMARK  status: ('A' for Active; 'I' for Inactive)
REMARK    1  A    between atoms: C_1  and  S_2
REMARK    2  A    between atoms: S_2  and  C_5
REMARK    3  A    between atoms: C_8  and  C_9
REMARK    4  A    between atoms: C_12  and  C_14
REMARK                            x       y       z     vdW  Elec       q    Type
REMARK                         _______ _______ _______ _____ _____    ______ ____
ROOT
ATOM      1  C   UNL     1       2.199   6.090  20.051  0.00  0.00    +0.000 C 
ATOM      2  C   UNL     1       2.504   5.346  18.728  0.00  0.00    +0.000 C 
ATOM      3  N   UNL     1       2.999   4.000  19.059  0.00  0.00    +0.000 N 
ATOM      4  C   UNL     1       4.170   3.362  18.643  0.00  0.00    +0.000 C 
ATOM      5  O   UNL     1       4.442   2.221  19.023  0.00  0.00    +0.000 OA
ATOM      6  C   UNL     1       2.025   3.250  19.864  0.00  0.00    +0.000 C 
ATOM      7  C   UNL     1       1.586   4.052  21.098  0.00  0.00    +0.000 C 
ATOM      8  O   UNL     1       1.158   5.385  20.761  0.00  0.00    +0.000 OA
ENDROOT
BRANCH   4   9
ATOM      9  C   UNL     1       5.082   3.957  17.617  0.00  0.00    +0.000 A 
ATOM     10  C   UNL     1       4.854   3.510  16.299  0.00  0.00    +0.000 A 
ATOM     11  C   UNL     1       5.527   4.086  15.227  0.00  0.00    +0.000 A 
ATOM     12  C   UNL     1       6.320   5.197  15.457  0.00  0.00    +0.000 A 
ATOM     13  F   UNL     1       6.919   5.783  14.407  0.00  0.00    +0.000 F 
ATOM     14  C   UNL     1       6.594   5.641  16.754  0.00  0.00    +0.000 A 
ATOM     15  C   UNL     1       7.392   6.775  16.956  0.00  0.00    +0.000 A 
ATOM     16  C   UNL     1       7.960   7.023  18.199  0.00  0.00    +0.000 A 
ATOM     17  C   UNL     1       7.697   6.156  19.252  0.00  0.00    +0.000 A 
ATOM     18  C   UNL     1       6.739   5.147  19.106  0.00  0.00    +0.000 A 
ATOM     19  C   UNL     1       6.111   4.905  17.860  0.00  0.00    +0.000 A 
ENDBRANCH   4   9
BRANCH   1  23
ATOM     20  C   UNL     1       1.191  10.241  19.464  0.00  0.00    +0.000 A 
ATOM     21  C   UNL     1       1.738   9.512  18.407  0.00  0.00    +0.000 A 
ATOM     22  C   UNL     1       2.036   8.160  18.582  0.00  0.00    +0.000 A 
ATOM     23  C   UNL     1       1.795   7.530  19.810  0.00  0.00    +0.000 A 
ATOM     24  C   UNL     1       1.221   8.278  20.853  0.00  0.00    +0.000 A 
ATOM     25  C   UNL     1       0.930   9.633  20.692  0.00  0.00    +0.000 A 
BRANCH  20  27
ATOM     26  C   UNL     1       2.268  12.524  18.299  0.00  0.00    +0.000 C 
ATOM     27  S   UNL     1       0.881  11.982  19.264  0.00  0.00    +0.000 S 
ATOM     28  O   UNL     1       0.981  12.591  20.570  0.00  0.00    +0.000 OA
ATOM     29  O   UNL     1      -0.304  12.116  18.446  0.00  0.00    +0.000 OA
ENDBRANCH  20  27
ENDBRANCH   1  23
TORSDOF 3
ENDMDL
MODEL 3
REMARK VINA RESULT:      -7.8      1.278      2.607
REMARK  Name = 
REMARK  4 active torsions:
REMARK  status: ('A' for Active; 'I' for Inactive)
REMARK    1  A    between atoms: C_1  and  S_2
REMARK    2  A    between atoms: S_2  and  C_5
REMARK    3  A    between atoms: C_8  and  C_9
REMARK    4  A    between atoms: C_12  and  C_14
REMARK                            x       y       z     vdW  Elec       q    Type
REMARK                         _______ _______ _______ _____ _____    ______ ____
ROOT
ATOM      1  C   UNL     1       2.079   5.985  20.564  0.00  0.00    +0.000 C 
ATOM      2  C   UNL     1       2.614   5.551  19.177  0.00  0.00    +0.000 C 
ATOM      3  N   UNL     1       3.317   4.268  19.335  0.00  0.00    +0.000 N 
ATOM      4  C   UNL     1       4.612   3.917  18.948  0.00  0.00    +0.000 C 
ATOM      5  O   UNL     1       5.057   2.786  19.163  0.00  0.00    +0.000 OA
ATOM      6  C   UNL     1       2.436   3.236  19.898  0.00  0.00    +0.000 C 
ATOM      7  C   UNL     1       1.766   3.720  21.193  0.00  0.00    +0.000 C 
ATOM      8  O   UNL     1       1.132   5.003  21.034  0.00  0.00    +0.000 OA
ENDROOT
BRANCH   4   9
ATOM      9  C   UNL     1       5.478   4.828  18.136  0.00  0.00    +0.000 A 
ATOM     10  C   UNL     1       6.091   5.864  18.870  0.00  0.00    +0.000 A 
ATOM     11  C   UNL     1       7.035   6.694  18.276  0.00  0.00    +0.000 A 
ATOM     12  C   UNL     1       7.465   6.403  16.993  0.00  0.00    +0.000 A 
ATOM     13  F   UNL     1       8.420   7.174  16.448  0.00  0.00    +0.000 F 
ATOM     14  C   UNL     1       6.852   5.406  16.227  0.00  0.00    +0.000 A 
ATOM     15  C   UNL     1       7.317   5.126  14.935  0.00  0.00    +0.000 A 
ATOM     16  C   UNL     1       6.525   4.413  14.043  0.00  0.00    +0.000 A 
ATOM     17  C   UNL     1       5.284   3.946  14.457  0.00  0.00    +0.000 A 
ATOM     18  C   UNL     1       4.912   4.045  15.803  0.00  0.00    +0.000 A 
ATOM     19  C   UNL     1       5.725   4.726  16.741  0.00  0.00    +0.000 A 
ENDBRANCH   4   9
BRANCH   1  23
ATOM     20  C   UNL     1       0.383   9.950  20.561  0.00  0.00    +0.000 A 
ATOM     21  C   UNL     1       1.155   9.533  19.475  0.00  0.00    +0.000 A 
ATOM     22  C   UNL     1       1.680   8.240  19.456  0.00  0.00    +0.000 A 
ATOM     23  C   UNL     1       1.441   7.359  20.519  0.00  0.00    +0.000 A 
ATOM     24  C   UNL     1       0.640   7.792  21.591  0.00  0.00    +0.000 A 
ATOM     25  C   UNL     1       0.122   9.086  21.625  0.00  0.00    +0.000 A 
BRANCH  20  27
ATOM     26  C   UNL     1       0.778  12.449  19.409  0.00  0.00    +0.000 C 
ATOM     27  S   UNL     1      -0.222  11.622  20.619  0.00  0.00    +0.000 S 
ATOM     28  O   UNL     1       0.115  12.158  21.917  0.00  0.00    +0.000 OA
ATOM     29  O   UNL     1      -1.582  11.604  20.128  0.00  0.00    +0.000 OA
ENDBRANCH  20  27
ENDBRANCH   1  23
TORSDOF 3
ENDMDL
MODEL 4
REMARK VINA RESULT:      -7.8      1.298      2.545
REMARK  Name = 
REMARK  4 active torsions:
REMARK  status: ('A' for Active; 'I' for Inactive)
REMARK    1  A    between atoms: C_1  and  S_2
REMARK    2  A    between atoms: S_2  and  C_5
REMARK    3  A    between atoms: C_8  and  C_9
REMARK    4  A    between atoms: C_12  and  C_14
REMARK                            x       y       z     vdW  Elec       q    Type
REMARK                         _______ _______ _______ _____ _____    ______ ____
ROOT
ATOM      1  C   UNL     1       1.879   5.929  20.458  0.00  0.00    +0.000 C 
ATOM      2  C   UNL     1       2.402   5.598  19.038  0.00  0.00    +0.000 C 
ATOM      3  N   UNL     1       3.007   4.257  19.070  0.00  0.00    +0.000 N 
ATOM      4  C   UNL     1       4.279   3.851  18.660  0.00  0.00    +0.000 C 
ATOM      5  O   UNL     1       4.636   2.674  18.763  0.00  0.00    +0.000 OA
ATOM      6  C   UNL     1       2.044   3.241  19.518  0.00  0.00    +0.000 C 
ATOM      7  C   UNL     1       1.391   3.641  20.850  0.00  0.00    +0.000 C 
ATOM      8  O   UNL     1       0.855   4.977  20.818  0.00  0.00    +0.000 OA
ENDROOT
BRANCH   4   9
ATOM      9  C   UNL     1       5.221   4.772  17.952  0.00  0.00    +0.000 A 
ATOM     10  C   UNL     1       5.780   5.780  18.766  0.00  0.00    +0.000 A 
ATOM     11  C   UNL     1       6.780   6.613  18.280  0.00  0.00    +0.000 A 
ATOM     12  C   UNL     1       7.317   6.352  17.031  0.00  0.00    +0.000 A 
ATOM     13  F   UNL     1       8.324   7.125  16.593  0.00  0.00    +0.000 F 
ATOM     14  C   UNL     1       6.762   5.384  16.187  0.00  0.00    +0.000 A 
ATOM     15  C   UNL     1       7.334   5.134  14.932  0.00  0.00    +0.000 A 
ATOM     16  C   UNL     1       6.615   4.456  13.955  0.00  0.00    +0.000 A 
ATOM     17  C   UNL     1       5.338   3.994  14.247  0.00  0.00    +0.000 A 
ATOM     18  C   UNL     1       4.852   4.061  15.558  0.00  0.00    +0.000 A 
ATOM     19  C   UNL     1       5.587   4.705  16.582  0.00  0.00    +0.000 A 
ENDBRANCH   4   9
BRANCH   1  23
ATOM     20  C   UNL     1       0.485   9.991  20.837  0.00  0.00    +0.000 A 
ATOM     21  C   UNL     1       1.179   9.609  19.688  0.00  0.00    +0.000 A 
ATOM     22  C   UNL     1       1.604   8.287  19.546  0.00  0.00    +0.000 A 
ATOM     23  C   UNL     1       1.344   7.343  20.548  0.00  0.00    +0.000 A 
ATOM     24  C   UNL     1       0.622   7.745  21.686  0.00  0.00    +0.000 A 
ATOM     25  C   UNL     1       0.203   9.066  21.843  0.00  0.00    +0.000 A 
BRANCH  20  27
ATOM     26  C   UNL     1      -0.949  11.652  22.544  0.00  0.00    +0.000 C 
ATOM     27  S   UNL     1       0.009  11.692  21.052  0.00  0.00    +0.000 S 
ATOM     28  O   UNL     1      -0.876  12.034  19.963  0.00  0.00    +0.000 OA
ATOM     29  O   UNL     1       1.215  12.445  21.322  0.00  0.00    +0.000 OA
ENDBRANCH  20  27
ENDBRANCH   1  23
TORSDOF 3
ENDMDL
MODEL 5
REMARK VINA RESULT:      -7.7      1.288      2.466
REMARK  Name = 
REMARK  4 active torsions:
REMARK  status: ('A' for Active; 'I' for Inactive)
REMARK    1  A    between atoms: C_1  and  S_2
REMARK    2  A    between atoms: S_2  and  C_5
REMARK    3  A    between atoms: C_8  and  C_9
REMARK    4  A    between atoms: C_12  and  C_14
REMARK                            x       y       z     vdW  Elec       q    Type
REMARK                         _______ _______ _______ _____ _____    ______ ____
ROOT
ATOM      1  C   UNL     1       2.104   6.138  20.513  0.00  0.00    +0.000 C 
ATOM      2  C   UNL     1       2.633   5.662  19.137  0.00  0.00    +0.000 C 
ATOM      3  N   UNL     1       3.335   4.383  19.330  0.00  0.00    +0.000 N 
ATOM      4  C   UNL     1       4.628   4.018  18.948  0.00  0.00    +0.000 C 
ATOM      5  O   UNL     1       5.072   2.894  19.195  0.00  0.00    +0.000 OA
ATOM      6  C   UNL     1       2.455   3.369  19.928  0.00  0.00    +0.000 C 
ATOM      7  C   UNL     1       1.792   3.893  21.211  0.00  0.00    +0.000 C 
ATOM      8  O   UNL     1       1.158   5.171  21.017  0.00  0.00    +0.000 OA
ENDROOT
BRANCH   4   9
ATOM      9  C   UNL     1       5.491   4.904  18.105  0.00  0.00    +0.000 A 
ATOM     10  C   UNL     1       6.112   5.958  18.806  0.00  0.00    +0.000 A 
ATOM     11  C   UNL     1       7.054   6.768  18.183  0.00  0.00    +0.000 A 
ATOM     12  C   UNL     1       7.475   6.440  16.905  0.00  0.00    +0.000 A 
ATOM     13  F   UNL     1       8.429   7.193  16.333  0.00  0.00    +0.000 F 
ATOM     14  C   UNL     1       6.854   5.424  16.172  0.00  0.00    +0.000 A 
ATOM     15  C   UNL     1       7.309   5.106  14.885  0.00  0.00    +0.000 A 
ATOM     16  C   UNL     1       6.509   4.372  14.019  0.00  0.00    +0.000 A 
ATOM     17  C   UNL     1       5.270   3.920  14.454  0.00  0.00    +0.000 A 
ATOM     18  C   UNL     1       4.907   4.058  15.799  0.00  0.00    +0.000 A 
ATOM     19  C   UNL     1       5.728   4.762  16.712  0.00  0.00    +0.000 A 
ENDBRANCH   4   9
BRANCH   1  23
ATOM     20  C   UNL     1       0.183   9.981  20.149  0.00  0.00    +0.000 A 
ATOM     21  C   UNL     1      -0.069   9.191  21.272  0.00  0.00    +0.000 A 
ATOM     22  C   UNL     1       0.575   7.962  21.410  0.00  0.00    +0.000 A 
ATOM     23  C   UNL     1       1.468   7.511  20.430  0.00  0.00    +0.000 A 
ATOM     24  C   UNL     1       1.725   8.332  19.318  0.00  0.00    +0.000 A 
ATOM     25  C   UNL     1       1.077   9.558  19.165  0.00  0.00    +0.000 A 
BRANCH  20  27
ATOM     26  C   UNL     1      -1.811  11.152  18.605  0.00  0.00    +0.000 C 
ATOM     27  S   UNL     1      -0.695  11.514  19.936  0.00  0.00    +0.000 S 
ATOM     28  O   UNL     1       0.255  12.495  19.466  0.00  0.00    +0.000 OA
ATOM     29  O   UNL     1      -1.486  11.725  21.128  0.00  0.00    +0.000 OA
ENDBRANCH  20  27
ENDBRANCH   1  23
TORSDOF 3
ENDMDL
MODEL 6
REMARK VINA RESULT:      -7.4      5.054     10.769
REMARK  Name = 
REMARK  4 active torsions:
REMARK  status: ('A' for Active; 'I' for Inactive)
REMARK    1  A    between atoms: C_1  and  S_2
REMARK    2  A    between atoms: S_2  and  C_5
REMARK    3  A    between atoms: C_8  and  C_9
REMARK    4  A    between atoms: C_12  and  C_14
REMARK                            x       y       z     vdW  Elec       q    Type
REMARK                         _______ _______ _______ _____ _____    ______ ____
ROOT
ATOM      1  C   UNL     1       1.006  11.332  19.506  0.00  0.00    +0.000 C 
ATOM      2  C   UNL     1      -0.515  11.623  19.523  0.00  0.00    +0.000 C 
ATOM      3  N   UNL     1      -0.706  13.080  19.592  0.00  0.00    +0.000 N 
ATOM      4  C   UNL     1      -1.461  13.831  20.495  0.00  0.00    +0.000 C 
ATOM      5  O   UNL     1      -1.510  15.061  20.417  0.00  0.00    +0.000 OA
ATOM      6  C   UNL     1      -0.059  13.763  18.463  0.00  0.00    +0.000 C 
ATOM      7  C   UNL     1       1.416  13.353  18.334  0.00  0.00    +0.000 C 
ATOM      8  O   UNL     1       1.588  11.923  18.325  0.00  0.00    +0.000 OA
ENDROOT
BRANCH   4   9
ATOM      9  C   UNL     1      -2.357  13.194  21.511  0.00  0.00    +0.000 A 
ATOM     10  C   UNL     1      -1.734  12.902  22.742  0.00  0.00    +0.000 A 
ATOM     11  C   UNL     1      -2.478  12.444  23.824  0.00  0.00    +0.000 A 
ATOM     12  C   UNL     1      -3.858  12.411  23.718  0.00  0.00    +0.000 A 
ATOM     13  F   UNL     1      -4.572  12.025  24.787  0.00  0.00    +0.000 F 
ATOM     14  C   UNL     1      -4.501  12.660  22.501  0.00  0.00    +0.000 A 
ATOM     15  C   UNL     1      -5.901  12.630  22.427  0.00  0.00    +0.000 A 
ATOM     16  C   UNL     1      -6.536  12.521  21.196  0.00  0.00    +0.000 A 
ATOM     17  C   UNL     1      -5.773  12.482  20.037  0.00  0.00    +0.000 A 
ATOM     18  C   UNL     1      -4.395  12.721  20.097  0.00  0.00    +0.000 A 
ATOM     19  C   UNL     1      -3.731  12.882  21.337  0.00  0.00    +0.000 A 
ENDBRANCH   4   9
BRANCH   1  23
ATOM     20  C   UNL     1       2.015   7.143  19.655  0.00  0.00    +0.000 A 
ATOM     21  C   UNL     1       1.461   7.756  20.781  0.00  0.00    +0.000 A 
ATOM     22  C   UNL     1       1.103   9.103  20.727  0.00  0.00    +0.000 A 
ATOM     23  C   UNL     1       1.298   9.846  19.556  0.00  0.00    +0.000 A 
ATOM     24  C   UNL     1       1.835   9.203  18.427  0.00  0.00    +0.000 A 
ATOM     25  C   UNL     1       2.207   7.860  18.474  0.00  0.00    +0.000 A 
BRANCH  20  27
ATOM     26  C   UNL     1       1.947   4.762  18.221  0.00  0.00    +0.000 C 
ATOM     27  S   UNL     1       2.540   5.445  19.747  0.00  0.00    +0.000 S 
ATOM     28  O   UNL     1       1.809   4.824  20.827  0.00  0.00    +0.000 OA
ATOM     29  O   UNL     1       3.986   5.440  19.700  0.00  0.00    +0.000 OA
ENDBRANCH  20  27
ENDBRANCH   1  23
TORSDOF 3
ENDMDL
MODEL 7
REMARK VINA RESULT:      -7.4      4.218      6.899
REMARK  Name = 
REMARK  4 active torsions:
REMARK  status: ('A' for Active; 'I' for Inactive)
REMARK    1  A    between atoms: C_1  and  S_2
REMARK    2  A    between atoms: S_2  and  C_5
REMARK    3  A    between atoms: C_8  and  C_9
REMARK    4  A    between atoms: C_12  and  C_14
REMARK                            x       y       z     vdW  Elec       q    Type
REMARK                         _______ _______ _______ _____ _____    ______ ____
ROOT
ATOM      1  C   UNL     1       6.945   7.070  16.966  0.00  0.00    +0.000 C 
ATOM      2  C   UNL     1       6.384   6.035  17.972  0.00  0.00    +0.000 C 
ATOM      3  N   UNL     1       5.619   5.028  17.221  0.00  0.00    +0.000 N 
ATOM      4  C   UNL     1       4.306   4.590  17.413  0.00  0.00    +0.000 C 
ATOM      5  O   UNL     1       3.807   3.733  16.681  0.00  0.00    +0.000 OA
ATOM      6  C   UNL     1       6.449   4.367  16.204  0.00  0.00    +0.000 C 
ATOM      7  C   UNL     1       7.146   5.394  15.299  0.00  0.00    +0.000 C 
ATOM      8  O   UNL     1       7.843   6.404  16.053  0.00  0.00    +0.000 OA
ENDROOT
BRANCH   4   9
ATOM      9  C   UNL     1       3.485   5.023  18.587  0.00  0.00    +0.000 A 
ATOM     10  C   UNL     1       3.102   6.380  18.568  0.00  0.00    +0.000 A 
ATOM     11  C   UNL     1       2.218   6.883  19.515  0.00  0.00    +0.000 A 
ATOM     12  C   UNL     1       1.611   6.002  20.394  0.00  0.00    +0.000 A 
ATOM     13  F   UNL     1       0.713   6.487  21.267  0.00  0.00    +0.000 F 
ATOM     14  C   UNL     1       1.995   4.659  20.461  0.00  0.00    +0.000 A 
ATOM     15  C   UNL     1       1.355   3.788  21.354  0.00  0.00    +0.000 A 
ATOM     16  C   UNL     1       1.938   2.573  21.690  0.00  0.00    +0.000 A 
ATOM     17  C   UNL     1       3.144   2.211  21.102  0.00  0.00    +0.000 A 
ATOM     18  C   UNL     1       3.675   2.981  20.061  0.00  0.00    +0.000 A 
ATOM     19  C   UNL     1       3.071   4.201  19.668  0.00  0.00    +0.000 A 
ENDBRANCH   4   9
BRANCH   1  23
ATOM     20  C   UNL     1       9.107  10.272  18.880  0.00  0.00    +0.000 A 
ATOM     21  C   UNL     1       8.255  10.561  17.812  0.00  0.00    +0.000 A 
ATOM     22  C   UNL     1       7.529   9.533  17.210  0.00  0.00    +0.000 A 
ATOM     23  C   UNL     1       7.650   8.214  17.665  0.00  0.00    +0.000 A 
ATOM     24  C   UNL     1       8.495   7.949  18.757  0.00  0.00    +0.000 A 
ATOM     25  C   UNL     1       9.235   8.968  19.358  0.00  0.00    +0.000 A 
BRANCH  20  27
ATOM     26  C   UNL     1       9.410  13.035  18.862  0.00  0.00    +0.000 C 
ATOM     27  S   UNL     1      10.089  11.570  19.597  0.00  0.00    +0.000 S 
ATOM     28  O   UNL     1      11.439  11.411  19.109  0.00  0.00    +0.000 OA
ATOM     29  O   UNL     1       9.787  11.606  21.011  0.00  0.00    +0.000 OA
ENDBRANCH  20  27
ENDBRANCH   1  23
TORSDOF 3
ENDMDL
MODEL 8
REMARK VINA RESULT:      -7.1      4.453      8.993
REMARK  Name = 
REMARK  4 active torsions:
REMARK  status: ('A' for Active; 'I' for Inactive)
REMARK    1  A    between atoms: C_1  and  S_2
REMARK    2  A    between atoms: S_2  and  C_5
REMARK    3  A    between atoms: C_8  and  C_9
REMARK    4  A    between atoms: C_12  and  C_14
REMARK                            x       y       z     vdW  Elec       q    Type
REMARK                         _______ _______ _______ _____ _____    ______ ____
ROOT
ATOM      1  C   UNL     1       0.624  11.070  18.760  0.00  0.00    +0.000 C 
ATOM      2  C   UNL     1       1.226  12.159  19.681  0.00  0.00    +0.000 C 
ATOM      3  N   UNL     1       0.631  13.454  19.315  0.00  0.00    +0.000 N 
ATOM      4  C   UNL     1       1.263  14.655  18.982  0.00  0.00    +0.000 C 
ATOM      5  O   UNL     1       0.609  15.659  18.690  0.00  0.00    +0.000 OA
ATOM      6  C   UNL     1      -0.834  13.428  19.431  0.00  0.00    +0.000 C 
ATOM      7  C   UNL     1      -1.433  12.246  18.654  0.00  0.00    +0.000 C 
ATOM      8  O   UNL     1      -0.801  10.996  18.984  0.00  0.00    +0.000 OA
ENDROOT
BRANCH   4   9
ATOM      9  C   UNL     1       2.744  14.836  19.095  0.00  0.00    +0.000 A 
ATOM     10  C   UNL     1       3.454  14.635  17.893  0.00  0.00    +0.000 A 
ATOM     11  C   UNL     1       4.814  14.912  17.816  0.00  0.00    +0.000 A 
ATOM     12  C   UNL     1       5.433  15.517  18.896  0.00  0.00    +0.000 A 
ATOM     13  F   UNL     1       6.734  15.835  18.792  0.00  0.00    +0.000 F 
ATOM     14  C   UNL     1       4.767  15.695  20.113  0.00  0.00    +0.000 A 
ATOM     15  C   UNL     1       5.416  16.321  21.186  0.00  0.00    +0.000 A 
ATOM     16  C   UNL     1       4.921  16.193  22.477  0.00  0.00    +0.000 A 
ATOM     17  C   UNL     1       3.752  15.473  22.691  0.00  0.00    +0.000 A 
ATOM     18  C   UNL     1       2.996  15.027  21.601  0.00  0.00    +0.000 A 
ATOM     19  C   UNL     1       3.457  15.188  20.272  0.00  0.00    +0.000 A 
ENDBRANCH   4   9
BRANCH   1  23
ATOM     20  C   UNL     1       2.293   7.147  19.404  0.00  0.00    +0.000 A 
ATOM     21  C   UNL     1       2.434   7.756  18.156  0.00  0.00    +0.000 A 
ATOM     22  C   UNL     1       1.924   9.039  17.952  0.00  0.00    +0.000 A 
ATOM     23  C   UNL     1       1.268   9.718  18.987  0.00  0.00    +0.000 A 
ATOM     24  C   UNL     1       1.159   9.095  20.243  0.00  0.00    +0.000 A 
ATOM     25  C   UNL     1       1.655   7.809  20.454  0.00  0.00    +0.000 A 
BRANCH  20  27
ATOM     26  C   UNL     1       2.278   4.642  18.199  0.00  0.00    +0.000 C 
ATOM     27  S   UNL     1       2.877   5.483  19.641  0.00  0.00    +0.000 S 
ATOM     28  O   UNL     1       2.188   4.943  20.790  0.00  0.00    +0.000 OA
ATOM     29  O   UNL     1       4.321   5.519  19.562  0.00  0.00    +0.000 OA
ENDBRANCH  20  27
ENDBRANCH   1  23
TORSDOF 3
ENDMDL
MODEL 9
REMARK VINA RESULT:      -7.1      4.570      9.060
REMARK  Name = 
REMARK  4 active torsions:
REMARK  status: ('A' for Active; 'I' for Inactive)
REMARK    1  A    between atoms: C_1  and  S_2
REMARK    2  A    between atoms: S_2  and  C_5
REMARK    3  A    between atoms: C_8  and  C_9
REMARK    4  A    between atoms: C_12  and  C_14
REMARK                            x       y       z     vdW  Elec       q    Type
REMARK                         _______ _______ _______ _____ _____    ______ ____
ROOT
ATOM      1  C   UNL     1       0.245  10.938  18.990  0.00  0.00    +0.000 C 
ATOM      2  C   UNL     1       0.553  11.879  20.181  0.00  0.00    +0.000 C 
ATOM      3  N   UNL     1      -0.177  13.139  19.975  0.00  0.00    +0.000 N 
ATOM      4  C   UNL     1       0.305  14.450  19.976  0.00  0.00    +0.000 C 
ATOM      5  O   UNL     1      -0.448  15.407  19.777  0.00  0.00    +0.000 OA
ATOM      6  C   UNL     1      -1.624  12.912  19.854  0.00  0.00    +0.000 C 
ATOM      7  C   UNL     1      -1.934  11.853  18.785  0.00  0.00    +0.000 C 
ATOM      8  O   UNL     1      -1.169  10.647  18.971  0.00  0.00    +0.000 OA
ENDROOT
BRANCH   4   9
ATOM      9  C   UNL     1       1.716  14.782  20.351  0.00  0.00    +0.000 A 
ATOM     10  C   UNL     1       1.952  14.856  21.739  0.00  0.00    +0.000 A 
ATOM     11  C   UNL     1       3.242  15.010  22.233  0.00  0.00    +0.000 A 
ATOM     12  C   UNL     1       4.306  14.951  21.349  0.00  0.00    +0.000 A 
ATOM     13  F   UNL     1       5.552  15.042  21.841  0.00  0.00    +0.000 F 
ATOM     14  C   UNL     1       4.103  14.915  19.966  0.00  0.00    +0.000 A 
ATOM     15  C   UNL     1       5.199  14.845  19.095  0.00  0.00    +0.000 A 
ATOM     16  C   UNL     1       5.050  15.161  17.751  0.00  0.00    +0.000 A 
ATOM     17  C   UNL     1       3.794  15.508  17.268  0.00  0.00    +0.000 A 
ATOM     18  C   UNL     1       2.668  15.376  18.089  0.00  0.00    +0.000 A 
ATOM     19  C   UNL     1       2.790  15.009  19.451  0.00  0.00    +0.000 A 
ENDBRANCH   4   9
BRANCH   1  23
ATOM     20  C   UNL     1       2.381   7.198  19.186  0.00  0.00    +0.000 A 
ATOM     21  C   UNL     1       2.357   7.913  17.987  0.00  0.00    +0.000 A 
ATOM     22  C   UNL     1       1.695   9.139  17.927  0.00  0.00    +0.000 A 
ATOM     23  C   UNL     1       1.050   9.657  19.058  0.00  0.00    +0.000 A 
ATOM     24  C   UNL     1       1.107   8.932  20.262  0.00  0.00    +0.000 A 
ATOM     25  C   UNL     1       1.757   7.699  20.329  0.00  0.00    +0.000 A 
BRANCH  20  27
ATOM     26  C   UNL     1       2.408   4.840  20.657  0.00  0.00    +0.000 C 
ATOM     27  S   UNL     1       3.161   5.600  19.242  0.00  0.00    +0.000 S 
ATOM     28  O   UNL     1       4.559   5.812  19.541  0.00  0.00    +0.000 OA
ATOM     29  O   UNL     1       2.732   4.871  18.069  0.00  0.00    +0.000 OA
ENDBRANCH  20  27
ENDBRANCH   1  23
TORSDOF 3
ENDMDL
