MODEL 1
REMARK VINA RESULT:      -9.6      0.000      0.000
REMARK  Name = 
REMARK  3 active torsions:
REMARK  status: ('A' for Active; 'I' for Inactive)
REMARK    1  A    between atoms: N_3  and  C_4
REMARK    2  A    between atoms: C_8  and  C_9
REMARK    3  A    between atoms: C_21  and  N_22
REMARK                            x       y       z     vdW  Elec       q    Type
REMARK                         _______ _______ _______ _____ _____    ______ ____
ROOT
ATOM      1  O   UNL     1       2.682   8.995  17.144  0.00  0.00    +0.000 OA
ATOM      2  C   UNL     1       2.192   8.458  18.134  0.00  0.00    +0.000 C 
ATOM      3  N   UNL     1       1.280   9.057  18.965  0.00  0.00    +0.000 N 
ATOM      4  N   UNL     1       2.565   7.167  18.512  0.00  0.00    +0.000 N 
ATOM      5  C   UNL     1       1.886   6.341  19.514  0.00  0.00    +0.000 C 
ATOM      6  C   UNL     1       2.882   5.510  20.305  0.00  0.00    +0.000 C 
ATOM      7  C   UNL     1       3.871   4.736  19.433  0.00  0.00    +0.000 C 
ATOM      8  C   UNL     1       4.467   5.610  18.327  0.00  0.00    +0.000 C 
ATOM      9  C   UNL     1       3.431   6.439  17.587  0.00  0.00    +0.000 C 
ATOM     10  H   UNL     1       1.144   8.635  19.862  0.00  0.00    +0.000 HD
ENDROOT
BRANCH   7  11
ATOM     11  N   UNL     1       3.357   3.451  18.952  0.00  0.00    +0.000 N 
ATOM     12  C   UNL     1       2.320   3.195  18.084  0.00  0.00    +0.000 A 
ATOM     13  O   UNL     1       1.634   3.969  17.438  0.00  0.00    +0.000 OA
ATOM     14  N   UNL     1       2.186   1.809  17.982  0.00  0.00    +0.000 N 
ATOM     15  N   UNL     1       3.302   1.245  18.574  0.00  0.00    +0.000 N 
ATOM     16  C   UNL     1       3.957   2.251  19.279  0.00  0.00    +0.000 A 
ATOM     17  O   UNL     1       4.866   2.060  20.069  0.00  0.00    +0.000 OA
ATOM     18  H   UNL     1       1.781   1.437  17.131  0.00  0.00    +0.000 HD
ATOM     19  H   UNL     1       3.308   0.299  18.937  0.00  0.00    +0.000 HD
ENDBRANCH   7  11
BRANCH   3  20
ATOM     20  C   UNL     1       0.715  10.335  18.838  0.00  0.00    +0.000 A 
ATOM     21  C   UNL     1       1.447  11.515  18.892  0.00  0.00    +0.000 A 
ATOM     22  C   UNL     1       0.788  12.738  18.857  0.00  0.00    +0.000 A 
ATOM     23  C   UNL     1      -0.600  12.781  18.733  0.00  0.00    +0.000 A 
ATOM     24  C   UNL     1      -1.364  11.609  18.589  0.00  0.00    +0.000 A 
ATOM     25  C   UNL     1      -0.675  10.389  18.656  0.00  0.00    +0.000 A 
BRANCH  24  26
ATOM     26  C   UNL     1      -2.820  11.662  18.331  0.00  0.00    +0.000 A 
ATOM     27  C   UNL     1      -3.334  11.261  17.080  0.00  0.00    +0.000 A 
ATOM     28  C   UNL     1      -4.706  11.259  16.816  0.00  0.00    +0.000 A 
ATOM     29  C   UNL     1      -5.591  11.646  17.810  0.00  0.00    +0.000 A 
ATOM     30  F   UNL     1      -6.908  11.624  17.562  0.00  0.00    +0.000 F 
ATOM     31  C   UNL     1      -5.115  12.045  19.050  0.00  0.00    +0.000 A 
ATOM     32  F   UNL     1      -5.972  12.406  20.016  0.00  0.00    +0.000 F 
ATOM     33  C   UNL     1      -3.745  12.063  19.313  0.00  0.00    +0.000 A 
ENDBRANCH  24  26
ENDBRANCH   3  20
TORSDOF 3
ENDMDL
MODEL 2
REMARK VINA RESULT:      -9.5      0.901      1.424
REMARK  Name = 
REMARK  3 active torsions:
REMARK  status: ('A' for Active; 'I' for Inactive)
REMARK    1  A    between atoms: N_3  and  C_4
REMARK    2  A    between atoms: C_8  and  C_9
REMARK    3  A    between atoms: C_21  and  N_22
REMARK                            x       y       z     vdW  Elec       q    Type
REMARK                         _______ _______ _______ _____ _____    ______ ____
ROOT
ATOM      1  O   UNL     1       2.327   9.059  17.809  0.00  0.00    +0.000 OA
ATOM      2  C   UNL     1       1.972   8.404  18.786  0.00  0.00    +0.000 C 
ATOM      3  N   UNL     1       1.148   8.878  19.774  0.00  0.00    +0.000 N 
ATOM      4  N   UNL     1       2.423   7.098  18.981  0.00  0.00    +0.000 N 
ATOM      5  C   UNL     1       1.890   6.147  19.960  0.00  0.00    +0.000 C 
ATOM      6  C   UNL     1       2.994   5.281  20.541  0.00  0.00    +0.000 C 
ATOM      7  C   UNL     1       3.895   4.640  19.485  0.00  0.00    +0.000 C 
ATOM      8  C   UNL     1       4.333   5.645  18.416  0.00  0.00    +0.000 C 
ATOM      9  C   UNL     1       3.195   6.503  17.891  0.00  0.00    +0.000 C 
ATOM     10  H   UNL     1       1.129   8.362  20.632  0.00  0.00    +0.000 HD
ENDROOT
BRANCH   7  11
ATOM     11  N   UNL     1       3.365   3.391  18.932  0.00  0.00    +0.000 N 
ATOM     12  C   UNL     1       2.334   3.199  18.041  0.00  0.00    +0.000 A 
ATOM     13  O   UNL     1       1.670   4.017  17.429  0.00  0.00    +0.000 OA
ATOM     14  N   UNL     1       2.177   1.823  17.866  0.00  0.00    +0.000 N 
ATOM     15  N   UNL     1       3.276   1.209  18.440  0.00  0.00    +0.000 N 
ATOM     16  C   UNL     1       3.940   2.165  19.203  0.00  0.00    +0.000 A 
ATOM     17  O   UNL     1       4.837   1.917  19.992  0.00  0.00    +0.000 OA
ATOM     18  H   UNL     1       1.775   1.502  16.993  0.00  0.00    +0.000 HD
ATOM     19  H   UNL     1       3.261   0.246  18.754  0.00  0.00    +0.000 HD
ENDBRANCH   7  11
BRANCH   3  20
ATOM     20  C   UNL     1       0.535  10.139  19.848  0.00  0.00    +0.000 A 
ATOM     21  C   UNL     1       1.123  11.252  20.437  0.00  0.00    +0.000 A 
ATOM     22  C   UNL     1       0.401  12.434  20.553  0.00  0.00    +0.000 A 
ATOM     23  C   UNL     1      -0.897  12.512  20.048  0.00  0.00    +0.000 A 
ATOM     24  C   UNL     1      -1.490  11.433  19.371  0.00  0.00    +0.000 A 
ATOM     25  C   UNL     1      -0.749  10.244  19.293  0.00  0.00    +0.000 A 
BRANCH  24  26
ATOM     26  C   UNL     1      -2.817  11.559  18.726  0.00  0.00    +0.000 A 
ATOM     27  C   UNL     1      -3.869  12.224  19.390  0.00  0.00    +0.000 A 
ATOM     28  C   UNL     1      -5.120  12.396  18.796  0.00  0.00    +0.000 A 
ATOM     29  C   UNL     1      -5.337  11.917  17.513  0.00  0.00    +0.000 A 
ATOM     30  F   UNL     1      -6.532  12.102  16.935  0.00  0.00    +0.000 F 
ATOM     31  C   UNL     1      -4.321  11.260  16.835  0.00  0.00    +0.000 A 
ATOM     32  F   UNL     1      -4.526  10.808  15.589  0.00  0.00    +0.000 F 
ATOM     33  C   UNL     1      -3.074  11.071  17.431  0.00  0.00    +0.000 A 
ENDBRANCH  24  26
ENDBRANCH   3  20
TORSDOF 3
ENDMDL
MODEL 3
REMARK VINA RESULT:      -9.3      0.579      1.236
REMARK  Name = 
REMARK  3 active torsions:
REMARK  status: ('A' for Active; 'I' for Inactive)
REMARK    1  A    between atoms: N_3  and  C_4
REMARK    2  A    between atoms: C_8  and  C_9
REMARK    3  A    between atoms: C_21  and  N_22
REMARK                            x       y       z     vdW  Elec       q    Type
REMARK                         _______ _______ _______ _____ _____    ______ ____
ROOT
ATOM      1  O   UNL     1       2.663   9.027  17.136  0.00  0.00    +0.000 OA
ATOM      2  C   UNL     1       2.229   8.510  18.162  0.00  0.00    +0.000 C 
ATOM      3  N   UNL     1       1.394   9.139  19.050  0.00  0.00    +0.000 N 
ATOM      4  N   UNL     1       2.591   7.211  18.524  0.00  0.00    +0.000 N 
ATOM      5  C   UNL     1       1.961   6.410  19.576  0.00  0.00    +0.000 C 
ATOM      6  C   UNL     1       2.986   5.556  20.303  0.00  0.00    +0.000 C 
ATOM      7  C   UNL     1       3.890   4.750  19.371  0.00  0.00    +0.000 C 
ATOM      8  C   UNL     1       4.432   5.600  18.218  0.00  0.00    +0.000 C 
ATOM      9  C   UNL     1       3.371   6.454  17.546  0.00  0.00    +0.000 C 
ATOM     10  H   UNL     1       1.309   8.727  19.958  0.00  0.00    +0.000 HD
ENDROOT
BRANCH   7  11
ATOM     11  N   UNL     1       3.309   3.477  18.936  0.00  0.00    +0.000 N 
ATOM     12  C   UNL     1       2.226   3.245  18.118  0.00  0.00    +0.000 A 
ATOM     13  O   UNL     1       1.544   4.033  17.486  0.00  0.00    +0.000 OA
ATOM     14  N   UNL     1       2.037   1.864  18.048  0.00  0.00    +0.000 N 
ATOM     15  N   UNL     1       3.155   1.268  18.603  0.00  0.00    +0.000 N 
ATOM     16  C   UNL     1       3.877   2.261  19.261  0.00  0.00    +0.000 A 
ATOM     17  O   UNL     1       4.811   2.049  20.016  0.00  0.00    +0.000 OA
ATOM     18  H   UNL     1       1.582   1.492  17.222  0.00  0.00    +0.000 HD
ATOM     19  H   UNL     1       3.141   0.330  18.984  0.00  0.00    +0.000 HD
ENDBRANCH   7  11
BRANCH   3  20
ATOM     20  C   UNL     1       0.857  10.432  18.953  0.00  0.00    +0.000 A 
ATOM     21  C   UNL     1       1.621  11.576  18.761  0.00  0.00    +0.000 A 
ATOM     22  C   UNL     1       1.011  12.825  18.777  0.00  0.00    +0.000 A 
ATOM     23  C   UNL     1      -0.369  12.926  18.950  0.00  0.00    +0.000 A 
ATOM     24  C   UNL     1      -1.183  11.786  19.060  0.00  0.00    +0.000 A 
ATOM     25  C   UNL     1      -0.537  10.540  19.069  0.00  0.00    +0.000 A 
BRANCH  24  26
ATOM     26  C   UNL     1      -2.659  11.891  19.116  0.00  0.00    +0.000 A 
ATOM     27  C   UNL     1      -3.281  12.595  20.168  0.00  0.00    +0.000 A 
ATOM     28  C   UNL     1      -4.668  12.749  20.230  0.00  0.00    +0.000 A 
ATOM     29  C   UNL     1      -5.458  12.209  19.227  0.00  0.00    +0.000 A 
ATOM     30  F   UNL     1      -6.787  12.375  19.277  0.00  0.00    +0.000 F 
ATOM     31  C   UNL     1      -4.875  11.512  18.180  0.00  0.00    +0.000 A 
ATOM     32  F   UNL     1      -5.638  11.002  17.203  0.00  0.00    +0.000 F 
ATOM     33  C   UNL     1      -3.491  11.343  18.122  0.00  0.00    +0.000 A 
ENDBRANCH  24  26
ENDBRANCH   3  20
TORSDOF 3
ENDMDL
MODEL 4
REMARK VINA RESULT:      -9.2      3.463      4.895
REMARK  Name = 
REMARK  3 active torsions:
REMARK  status: ('A' for Active; 'I' for Inactive)
REMARK    1  A    between atoms: N_3  and  C_4
REMARK    2  A    between atoms: C_8  and  C_9
REMARK    3  A    between atoms: C_21  and  N_22
REMARK                            x       y       z     vdW  Elec       q    Type
REMARK                         _______ _______ _______ _____ _____    ______ ____
ROOT
ATOM      1  O   UNL     1       2.577   8.971  17.219  0.00  0.00    +0.000 OA
ATOM      2  C   UNL     1       2.111   8.410  18.207  0.00  0.00    +0.000 C 
ATOM      3  N   UNL     1       1.194   8.978  19.055  0.00  0.00    +0.000 N 
ATOM      4  N   UNL     1       2.517   7.125  18.567  0.00  0.00    +0.000 N 
ATOM      5  C   UNL     1       1.869   6.271  19.566  0.00  0.00    +0.000 C 
ATOM      6  C   UNL     1       2.893   5.455  20.337  0.00  0.00    +0.000 C 
ATOM      7  C   UNL     1       3.890   4.715  19.446  0.00  0.00    +0.000 C 
ATOM      8  C   UNL     1       4.454   5.616  18.343  0.00  0.00    +0.000 C 
ATOM      9  C   UNL     1       3.391   6.428  17.624  0.00  0.00    +0.000 C 
ATOM     10  H   UNL     1       1.077   8.543  19.949  0.00  0.00    +0.000 HD
ENDROOT
BRANCH   7  11
ATOM     11  N   UNL     1       3.402   3.424  18.955  0.00  0.00    +0.000 N 
ATOM     12  C   UNL     1       2.389   3.155  18.063  0.00  0.00    +0.000 A 
ATOM     13  O   UNL     1       1.711   3.921  17.399  0.00  0.00    +0.000 OA
ATOM     14  N   UNL     1       2.272   1.768  17.960  0.00  0.00    +0.000 N 
ATOM     15  N   UNL     1       3.379   1.216  18.581  0.00  0.00    +0.000 N 
ATOM     16  C   UNL     1       4.006   2.231  19.299  0.00  0.00    +0.000 A 
ATOM     17  O   UNL     1       4.898   2.051  20.112  0.00  0.00    +0.000 OA
ATOM     18  H   UNL     1       1.892   1.389  17.101  0.00  0.00    +0.000 HD
ATOM     19  H   UNL     1       3.386   0.272  18.946  0.00  0.00    +0.000 HD
ENDBRANCH   7  11
BRANCH   3  20
ATOM     20  C   UNL     1       0.597  10.244  18.949  0.00  0.00    +0.000 A 
ATOM     21  C   UNL     1      -0.776  10.458  18.976  0.00  0.00    +0.000 A 
ATOM     22  C   UNL     1      -1.280  11.735  18.764  0.00  0.00    +0.000 A 
ATOM     23  C   UNL     1      -0.409  12.804  18.558  0.00  0.00    +0.000 A 
ATOM     24  C   UNL     1       0.985  12.640  18.611  0.00  0.00    +0.000 A 
ATOM     25  C   UNL     1       1.466  11.335  18.799  0.00  0.00    +0.000 A 
BRANCH  24  26
ATOM     26  C   UNL     1       1.906  13.796  18.519  0.00  0.00    +0.000 A 
ATOM     27  C   UNL     1       1.465  15.084  18.886  0.00  0.00    +0.000 A 
ATOM     28  C   UNL     1       2.318  16.190  18.851  0.00  0.00    +0.000 A 
ATOM     29  C   UNL     1       3.637  16.020  18.459  0.00  0.00    +0.000 A 
ATOM     30  F   UNL     1       4.459  17.078  18.446  0.00  0.00    +0.000 F 
ATOM     31  C   UNL     1       4.099  14.765  18.093  0.00  0.00    +0.000 A 
ATOM     32  F   UNL     1       5.378  14.598  17.728  0.00  0.00    +0.000 F 
ATOM     33  C   UNL     1       3.246  13.661  18.112  0.00  0.00    +0.000 A 
ENDBRANCH  24  26
ENDBRANCH   3  20
TORSDOF 3
ENDMDL
MODEL 5
REMARK VINA RESULT:      -9.1      3.098      4.675
REMARK  Name = 
REMARK  3 active torsions:
REMARK  status: ('A' for Active; 'I' for Inactive)
REMARK    1  A    between atoms: N_3  and  C_4
REMARK    2  A    between atoms: C_8  and  C_9
REMARK    3  A    between atoms: C_21  and  N_22
REMARK                            x       y       z     vdW  Elec       q    Type
REMARK                         _______ _______ _______ _____ _____    ______ ____
ROOT
ATOM      1  O   UNL     1       2.577   8.966  17.206  0.00  0.00    +0.000 OA
ATOM      2  C   UNL     1       2.108   8.408  18.194  0.00  0.00    +0.000 C 
ATOM      3  N   UNL     1       1.185   8.976  19.036  0.00  0.00    +0.000 N 
ATOM      4  N   UNL     1       2.515   7.124  18.558  0.00  0.00    +0.000 N 
ATOM      5  C   UNL     1       1.863   6.272  19.557  0.00  0.00    +0.000 C 
ATOM      6  C   UNL     1       2.885   5.460  20.335  0.00  0.00    +0.000 C 
ATOM      7  C   UNL     1       3.888   4.719  19.450  0.00  0.00    +0.000 C 
ATOM      8  C   UNL     1       4.455   5.618  18.348  0.00  0.00    +0.000 C 
ATOM      9  C   UNL     1       3.394   6.427  17.621  0.00  0.00    +0.000 C 
ATOM     10  H   UNL     1       1.065   8.543  19.930  0.00  0.00    +0.000 HD
ENDROOT
BRANCH   7  11
ATOM     11  N   UNL     1       3.404   3.426  18.961  0.00  0.00    +0.000 N 
ATOM     12  C   UNL     1       2.388   3.152  18.073  0.00  0.00    +0.000 A 
ATOM     13  O   UNL     1       1.704   3.915  17.413  0.00  0.00    +0.000 OA
ATOM     14  N   UNL     1       2.279   1.764  17.970  0.00  0.00    +0.000 N 
ATOM     15  N   UNL     1       3.392   1.219  18.584  0.00  0.00    +0.000 N 
ATOM     16  C   UNL     1       4.017   2.235  19.301  0.00  0.00    +0.000 A 
ATOM     17  O   UNL     1       4.914   2.060  20.109  0.00  0.00    +0.000 OA
ATOM     18  H   UNL     1       1.897   1.385  17.111  0.00  0.00    +0.000 HD
ATOM     19  H   UNL     1       3.406   0.273  18.948  0.00  0.00    +0.000 HD
ENDBRANCH   7  11
BRANCH   3  20
ATOM     20  C   UNL     1       0.587  10.240  18.924  0.00  0.00    +0.000 A 
ATOM     21  C   UNL     1      -0.787  10.448  18.909  0.00  0.00    +0.000 A 
ATOM     22  C   UNL     1      -1.290  11.725  18.693  0.00  0.00    +0.000 A 
ATOM     23  C   UNL     1      -0.418  12.801  18.527  0.00  0.00    +0.000 A 
ATOM     24  C   UNL     1       0.975  12.641  18.622  0.00  0.00    +0.000 A 
ATOM     25  C   UNL     1       1.455  11.336  18.813  0.00  0.00    +0.000 A 
BRANCH  24  26
ATOM     26  C   UNL     1       1.893  13.802  18.572  0.00  0.00    +0.000 A 
ATOM     27  C   UNL     1       3.259  13.615  18.274  0.00  0.00    +0.000 A 
ATOM     28  C   UNL     1       4.144  14.690  18.179  0.00  0.00    +0.000 A 
ATOM     29  C   UNL     1       3.671  15.980  18.367  0.00  0.00    +0.000 A 
ATOM     30  F   UNL     1       4.517  17.013  18.254  0.00  0.00    +0.000 F 
ATOM     31  C   UNL     1       2.333  16.195  18.661  0.00  0.00    +0.000 A 
ATOM     32  F   UNL     1       1.872  17.443  18.829  0.00  0.00    +0.000 F 
ATOM     33  C   UNL     1       1.448  15.122  18.772  0.00  0.00    +0.000 A 
ENDBRANCH  24  26
ENDBRANCH   3  20
TORSDOF 3
ENDMDL
MODEL 6
REMARK VINA RESULT:      -9.1      2.429      3.239
REMARK  Name = 
REMARK  3 active torsions:
REMARK  status: ('A' for Active; 'I' for Inactive)
REMARK    1  A    between atoms: N_3  and  C_4
REMARK    2  A    between atoms: C_8  and  C_9
REMARK    3  A    between atoms: C_21  and  N_22
REMARK                            x       y       z     vdW  Elec       q    Type
REMARK                         _______ _______ _______ _____ _____    ______ ____
ROOT
ATOM      1  O   UNL     1       1.393   7.149  20.585  0.00  0.00    +0.000 OA
ATOM      2  C   UNL     1       1.972   7.652  19.625  0.00  0.00    +0.000 C 
ATOM      3  N   UNL     1       1.740   8.922  19.161  0.00  0.00    +0.000 N 
ATOM      4  N   UNL     1       2.919   6.931  18.896  0.00  0.00    +0.000 N 
ATOM      5  C   UNL     1       3.837   7.489  17.900  0.00  0.00    +0.000 C 
ATOM      6  C   UNL     1       4.054   6.520  16.750  0.00  0.00    +0.000 C 
ATOM      7  C   UNL     1       4.414   5.103  17.196  0.00  0.00    +0.000 C 
ATOM      8  C   UNL     1       3.501   4.606  18.320  0.00  0.00    +0.000 C 
ATOM      9  C   UNL     1       3.297   5.623  19.429  0.00  0.00    +0.000 C 
ATOM     10  H   UNL     1       2.072   9.134  18.242  0.00  0.00    +0.000 HD
ENDROOT
BRANCH   7  11
ATOM     11  N   UNL     1       5.840   4.914  17.473  0.00  0.00    +0.000 N 
ATOM     12  C   UNL     1       6.539   5.121  18.641  0.00  0.00    +0.000 A 
ATOM     13  O   UNL     1       6.132   5.426  19.748  0.00  0.00    +0.000 OA
ATOM     14  N   UNL     1       7.884   4.849  18.383  0.00  0.00    +0.000 N 
ATOM     15  N   UNL     1       7.947   4.229  17.147  0.00  0.00    +0.000 N 
ATOM     16  C   UNL     1       6.706   4.384  16.536  0.00  0.00    +0.000 A 
ATOM     17  O   UNL     1       6.477   4.127  15.366  0.00  0.00    +0.000 OA
ATOM     18  H   UNL     1       8.463   4.557  19.162  0.00  0.00    +0.000 HD
ATOM     19  H   UNL     1       8.785   4.232  16.578  0.00  0.00    +0.000 HD
ENDBRANCH   7  11
BRANCH   3  20
ATOM     20  C   UNL     1       0.860   9.879  19.689  0.00  0.00    +0.000 A 
ATOM     21  C   UNL     1       1.110  10.606  20.848  0.00  0.00    +0.000 A 
ATOM     22  C   UNL     1       0.136  11.460  21.350  0.00  0.00    +0.000 A 
ATOM     23  C   UNL     1      -1.075  11.614  20.675  0.00  0.00    +0.000 A 
ATOM     24  C   UNL     1      -1.327  10.961  19.456  0.00  0.00    +0.000 A 
ATOM     25  C   UNL     1      -0.337  10.084  18.987  0.00  0.00    +0.000 A 
BRANCH  24  26
ATOM     26  C   UNL     1      -2.559  11.224  18.678  0.00  0.00    +0.000 A 
ATOM     27  C   UNL     1      -3.639  11.911  19.269  0.00  0.00    +0.000 A 
ATOM     28  C   UNL     1      -4.800  12.211  18.552  0.00  0.00    +0.000 A 
ATOM     29  C   UNL     1      -4.892  11.839  17.220  0.00  0.00    +0.000 A 
ATOM     30  F   UNL     1      -5.998  12.145  16.528  0.00  0.00    +0.000 F 
ATOM     31  C   UNL     1      -3.846  11.162  16.611  0.00  0.00    +0.000 A 
ATOM     32  F   UNL     1      -3.929  10.814  15.319  0.00  0.00    +0.000 F 
ATOM     33  C   UNL     1      -2.691  10.847  17.328  0.00  0.00    +0.000 A 
ENDBRANCH  24  26
ENDBRANCH   3  20
TORSDOF 3
ENDMDL
MODEL 7
REMARK VINA RESULT:      -8.9      2.359      3.004
REMARK  Name = 
REMARK  3 active torsions:
REMARK  status: ('A' for Active; 'I' for Inactive)
REMARK    1  A    between atoms: N_3  and  C_4
REMARK    2  A    between atoms: C_8  and  C_9
REMARK    3  A    between atoms: C_21  and  N_22
REMARK                            x       y       z     vdW  Elec       q    Type
REMARK                         _______ _______ _______ _____ _____    ______ ____
ROOT
ATOM      1  O   UNL     1       1.404   7.047  20.647  0.00  0.00    +0.000 OA
ATOM      2  C   UNL     1       1.982   7.573  19.699  0.00  0.00    +0.000 C 
ATOM      3  N   UNL     1       1.750   8.854  19.267  0.00  0.00    +0.000 N 
ATOM      4  N   UNL     1       2.927   6.869  18.950  0.00  0.00    +0.000 N 
ATOM      5  C   UNL     1       3.844   7.451  17.967  0.00  0.00    +0.000 C 
ATOM      6  C   UNL     1       4.058   6.511  16.793  0.00  0.00    +0.000 C 
ATOM      7  C   UNL     1       4.417   5.083  17.203  0.00  0.00    +0.000 C 
ATOM      8  C   UNL     1       3.506   4.558  18.316  0.00  0.00    +0.000 C 
ATOM      9  C   UNL     1       3.305   5.548  19.451  0.00  0.00    +0.000 C 
ATOM     10  H   UNL     1       2.081   9.088  18.353  0.00  0.00    +0.000 HD
ENDROOT
BRANCH   7  11
ATOM     11  N   UNL     1       5.844   4.885  17.473  0.00  0.00    +0.000 N 
ATOM     12  C   UNL     1       6.540   5.037  18.651  0.00  0.00    +0.000 A 
ATOM     13  O   UNL     1       6.131   5.286  19.771  0.00  0.00    +0.000 OA
ATOM     14  N   UNL     1       7.886   4.783  18.382  0.00  0.00    +0.000 N 
ATOM     15  N   UNL     1       7.954   4.225  17.118  0.00  0.00    +0.000 N 
ATOM     16  C   UNL     1       6.713   4.406  16.513  0.00  0.00    +0.000 A 
ATOM     17  O   UNL     1       6.486   4.205  15.331  0.00  0.00    +0.000 OA
ATOM     18  H   UNL     1       8.465   4.456  19.147  0.00  0.00    +0.000 HD
ATOM     19  H   UNL     1       8.793   4.259  16.551  0.00  0.00    +0.000 HD
ENDBRANCH   7  11
BRANCH   3  20
ATOM     20  C   UNL     1       0.872   9.799  19.821  0.00  0.00    +0.000 A 
ATOM     21  C   UNL     1       1.100  10.457  21.023  0.00  0.00    +0.000 A 
ATOM     22  C   UNL     1       0.127  11.302  21.543  0.00  0.00    +0.000 A 
ATOM     23  C   UNL     1      -1.060  11.516  20.842  0.00  0.00    +0.000 A 
ATOM     24  C   UNL     1      -1.287  10.934  19.583  0.00  0.00    +0.000 A 
ATOM     25  C   UNL     1      -0.300  10.064  19.096  0.00  0.00    +0.000 A 
BRANCH  24  26
ATOM     26  C   UNL     1      -2.490  11.262  18.784  0.00  0.00    +0.000 A 
ATOM     27  C   UNL     1      -2.599  10.817  17.450  0.00  0.00    +0.000 A 
ATOM     28  C   UNL     1      -3.736  11.073  16.681  0.00  0.00    +0.000 A 
ATOM     29  C   UNL     1      -4.795  11.770  17.243  0.00  0.00    +0.000 A 
ATOM     30  F   UNL     1      -5.894  11.996  16.510  0.00  0.00    +0.000 F 
ATOM     31  C   UNL     1      -4.717  12.219  18.552  0.00  0.00    +0.000 A 
ATOM     32  F   UNL     1      -5.746  12.881  19.100  0.00  0.00    +0.000 F 
ATOM     33  C   UNL     1      -3.576  11.979  19.319  0.00  0.00    +0.000 A 
ENDBRANCH  24  26
ENDBRANCH   3  20
TORSDOF 3
ENDMDL
MODEL 8
REMARK VINA RESULT:      -8.8      4.026      5.693
REMARK  Name = 
REMARK  3 active torsions:
REMARK  status: ('A' for Active; 'I' for Inactive)
REMARK    1  A    between atoms: N_3  and  C_4
REMARK    2  A    between atoms: C_8  and  C_9
REMARK    3  A    between atoms: C_21  and  N_22
REMARK                            x       y       z     vdW  Elec       q    Type
REMARK                         _______ _______ _______ _____ _____    ______ ____
ROOT
ATOM      1  O   UNL     1       1.026   9.077  21.005  0.00  0.00    +0.000 OA
ATOM      2  C   UNL     1       1.316   8.755  19.856  0.00  0.00    +0.000 C 
ATOM      3  N   UNL     1       1.201   9.584  18.769  0.00  0.00    +0.000 N 
ATOM      4  N   UNL     1       1.772   7.469  19.560  0.00  0.00    +0.000 N 
ATOM      5  C   UNL     1       2.371   7.045  18.292  0.00  0.00    +0.000 C 
ATOM      6  C   UNL     1       1.961   5.625  17.940  0.00  0.00    +0.000 C 
ATOM      7  C   UNL     1       2.156   4.626  19.080  0.00  0.00    +0.000 C 
ATOM      8  C   UNL     1       1.620   5.161  20.411  0.00  0.00    +0.000 C 
ATOM      9  C   UNL     1       2.038   6.592  20.699  0.00  0.00    +0.000 C 
ATOM     10  H   UNL     1       1.221   9.151  17.867  0.00  0.00    +0.000 HD
ENDROOT
BRANCH   7  11
ATOM     11  N   UNL     1       3.516   4.088  19.170  0.00  0.00    +0.000 N 
ATOM     12  C   UNL     1       4.720   4.755  19.195  0.00  0.00    +0.000 A 
ATOM     13  O   UNL     1       4.947   5.952  19.238  0.00  0.00    +0.000 OA
ATOM     14  N   UNL     1       5.734   3.797  19.234  0.00  0.00    +0.000 N 
ATOM     15  N   UNL     1       5.136   2.577  19.499  0.00  0.00    +0.000 N 
ATOM     16  C   UNL     1       3.763   2.739  19.334  0.00  0.00    +0.000 A 
ATOM     17  O   UNL     1       2.959   1.822  19.302  0.00  0.00    +0.000 OA
ATOM     18  H   UNL     1       6.619   4.064  19.650  0.00  0.00    +0.000 HD
ATOM     19  H   UNL     1       5.566   1.694  19.252  0.00  0.00    +0.000 HD
ENDBRANCH   7  11
BRANCH   3  20
ATOM     20  C   UNL     1       0.783  10.924  18.754  0.00  0.00    +0.000 A 
ATOM     21  C   UNL     1      -0.546  11.322  18.835  0.00  0.00    +0.000 A 
ATOM     22  C   UNL     1      -0.873  12.667  18.711  0.00  0.00    +0.000 A 
ATOM     23  C   UNL     1       0.133  13.618  18.542  0.00  0.00    +0.000 A 
ATOM     24  C   UNL     1       1.493  13.260  18.543  0.00  0.00    +0.000 A 
ATOM     25  C   UNL     1       1.791  11.893  18.641  0.00  0.00    +0.000 A 
BRANCH  24  26
ATOM     26  C   UNL     1       2.562  14.283  18.491  0.00  0.00    +0.000 A 
ATOM     27  C   UNL     1       2.332  15.577  19.002  0.00  0.00    +0.000 A 
ATOM     28  C   UNL     1       3.330  16.554  19.006  0.00  0.00    +0.000 A 
ATOM     29  C   UNL     1       4.587  16.244  18.509  0.00  0.00    +0.000 A 
ATOM     30  F   UNL     1       5.551  17.175  18.533  0.00  0.00    +0.000 F 
ATOM     31  C   UNL     1       4.843  14.979  18.001  0.00  0.00    +0.000 A 
ATOM     32  F   UNL     1       6.063  14.675  17.534  0.00  0.00    +0.000 F 
ATOM     33  C   UNL     1       3.844  14.006  17.981  0.00  0.00    +0.000 A 
ENDBRANCH  24  26
ENDBRANCH   3  20
TORSDOF 3
ENDMDL
MODEL 9
REMARK VINA RESULT:      -8.7      2.400      3.084
REMARK  Name = 
REMARK  3 active torsions:
REMARK  status: ('A' for Active; 'I' for Inactive)
REMARK    1  A    between atoms: N_3  and  C_4
REMARK    2  A    between atoms: C_8  and  C_9
REMARK    3  A    between atoms: C_21  and  N_22
REMARK                            x       y       z     vdW  Elec       q    Type
REMARK                         _______ _______ _______ _____ _____    ______ ____
ROOT
ATOM      1  O   UNL     1       0.895   8.572  21.475  0.00  0.00    +0.000 OA
ATOM      2  C   UNL     1       1.257   8.406  20.313  0.00  0.00    +0.000 C 
ATOM      3  N   UNL     1       1.236   9.384  19.351  0.00  0.00    +0.000 N 
ATOM      4  N   UNL     1       1.701   7.161  19.867  0.00  0.00    +0.000 N 
ATOM      5  C   UNL     1       2.374   6.900  18.592  0.00  0.00    +0.000 C 
ATOM      6  C   UNL     1       1.956   5.558  18.015  0.00  0.00    +0.000 C 
ATOM      7  C   UNL     1       2.049   4.402  19.010  0.00  0.00    +0.000 C 
ATOM      8  C   UNL     1       1.436   4.761  20.367  0.00  0.00    +0.000 C 
ATOM      9  C   UNL     1       1.867   6.123  20.884  0.00  0.00    +0.000 C 
ATOM     10  H   UNL     1       1.307   9.082  18.400  0.00  0.00    +0.000 HD
ENDROOT
BRANCH   7  11
ATOM     11  N   UNL     1       3.386   3.811  19.109  0.00  0.00    +0.000 N 
ATOM     12  C   UNL     1       4.605   4.431  19.266  0.00  0.00    +0.000 A 
ATOM     13  O   UNL     1       4.863   5.608  19.448  0.00  0.00    +0.000 OA
ATOM     14  N   UNL     1       5.588   3.440  19.253  0.00  0.00    +0.000 N 
ATOM     15  N   UNL     1       4.942   2.221  19.355  0.00  0.00    +0.000 N 
ATOM     16  C   UNL     1       3.585   2.445  19.140  0.00  0.00    +0.000 A 
ATOM     17  O   UNL     1       2.758   1.564  18.970  0.00  0.00    +0.000 OA
ATOM     18  H   UNL     1       6.457   3.632  19.739  0.00  0.00    +0.000 HD
ATOM     19  H   UNL     1       5.359   1.354  19.036  0.00  0.00    +0.000 HD
ENDBRANCH   7  11
BRANCH   3  20
ATOM     20  C   UNL     1       0.852  10.725  19.501  0.00  0.00    +0.000 A 
ATOM     21  C   UNL     1       1.590  11.801  19.021  0.00  0.00    +0.000 A 
ATOM     22  C   UNL     1       1.183  13.099  19.304  0.00  0.00    +0.000 A 
ATOM     23  C   UNL     1       0.018  13.321  20.037  0.00  0.00    +0.000 A 
ATOM     24  C   UNL     1      -0.799  12.260  20.464  0.00  0.00    +0.000 A 
ATOM     25  C   UNL     1      -0.348  10.960  20.188  0.00  0.00    +0.000 A 
BRANCH  24  26
ATOM     26  C   UNL     1      -2.098  12.502  21.131  0.00  0.00    +0.000 A 
ATOM     27  C   UNL     1      -3.220  12.902  20.375  0.00  0.00    +0.000 A 
ATOM     28  C   UNL     1      -4.470  13.100  20.966  0.00  0.00    +0.000 A 
ATOM     29  C   UNL     1      -4.622  12.886  22.327  0.00  0.00    +0.000 A 
ATOM     30  F   UNL     1      -5.827  13.056  22.888  0.00  0.00    +0.000 F 
ATOM     31  C   UNL     1      -3.537  12.492  23.095  0.00  0.00    +0.000 A 
ATOM     32  F   UNL     1      -3.686  12.271  24.409  0.00  0.00    +0.000 F 
ATOM     33  C   UNL     1      -2.283  12.308  22.513  0.00  0.00    +0.000 A 
ENDBRANCH  24  26
ENDBRANCH   3  20
TORSDOF 3
ENDMDL
