MODEL 1
REMARK VINA RESULT:      -8.4      0.000      0.000
REMARK  Name = 
REMARK  7 active torsions:
REMARK  status: ('A' for Active; 'I' for Inactive)
REMARK    1  A    between atoms: C_1  and  C_2
REMARK    2  A    between atoms: C_5  and  C_6
REMARK    3  A    between atoms: C_6  and  N_7
REMARK    4  A    between atoms: C_10  and  N_11
REMARK    5  A    between atoms: C_12  and  C_14
REMARK    6  A    between atoms: C_14  and  C_15
REMARK    7  A    between atoms: C_19  and  C_20
REMARK                            x       y       z     vdW  Elec       q    Type
REMARK                         _______ _______ _______ _____ _____    ______ ____
ROOT
ATOM      1  N   UNL     1       2.220   6.953  20.730  0.00  0.00    +0.000 N 
ATOM      2  C   UNL     1       1.931   5.617  20.516  0.00  0.00    +0.000 C 
ATOM      3  O   UNL     1       0.788   5.187  20.464  0.00  0.00    +0.000 OA
ATOM      4  H   UNL     1       3.123   7.305  20.403  0.00  0.00    +0.000 HD
ENDROOT
BRANCH   1   8
ATOM      5  N   UNL     1       0.718  10.136  20.113  0.00  0.00    +0.000 N 
ATOM      6  C   UNL     1       0.420  10.071  21.522  0.00  0.00    +0.000 C 
ATOM      7  C   UNL     1       1.161   8.831  21.990  0.00  0.00    +0.000 C 
ATOM      8  C   UNL     1       1.135   7.919  20.765  0.00  0.00    +0.000 C 
ATOM      9  C   UNL     1       1.178   8.940  19.620  0.00  0.00    +0.000 C 
ATOM     10  O   UNL     1       1.498   8.697  18.462  0.00  0.00    +0.000 OA
BRANCH   5  11
ATOM     11  C   UNL     1       0.337  11.267  19.293  0.00  0.00    +0.000 C 
BRANCH  11  16
ATOM     12  C   UNL     1      -5.248  11.196  17.621  0.00  0.00    +0.000 C 
ATOM     13  C   UNL     1      -3.811  11.232  18.049  0.00  0.00    +0.000 A 
ATOM     14  C   UNL     1      -3.390  12.060  19.094  0.00  0.00    +0.000 A 
ATOM     15  C   UNL     1      -2.052  12.066  19.498  0.00  0.00    +0.000 A 
ATOM     16  C   UNL     1      -1.112  11.241  18.867  0.00  0.00    +0.000 A 
ATOM     17  C   UNL     1      -1.532  10.428  17.805  0.00  0.00    +0.000 A 
ATOM     18  C   UNL     1      -2.870  10.425  17.400  0.00  0.00    +0.000 A 
ENDBRANCH  11  16
ENDBRANCH   5  11
ENDBRANCH   1   8
BRANCH   2  19
ATOM     19  C   UNL     1       3.139   4.719  20.396  0.00  0.00    +0.000 C 
BRANCH  19  20
ATOM     20  C   UNL     1       3.453   4.344  18.990  0.00  0.00    +0.000 A 
ATOM     21  C   UNL     1       3.474   3.041  18.519  0.00  0.00    +0.000 A 
ATOM     22  N   UNL     1       3.648   3.131  17.172  0.00  0.00    +0.000 N 
ATOM     23  C   UNL     1       4.292   4.311  16.901  0.00  0.00    +0.000 A 
ATOM     24  C   UNL     1       5.190   4.668  15.889  0.00  0.00    +0.000 A 
ATOM     25  C   UNL     1       6.020   3.654  15.159  0.00  0.00    +0.000 C 
ATOM     26  C   UNL     1       5.423   6.044  15.746  0.00  0.00    +0.000 A 
ATOM     27  C   UNL     1       4.799   6.979  16.579  0.00  0.00    +0.000 A 
ATOM     28  C   UNL     1       4.034   6.563  17.680  0.00  0.00    +0.000 A 
ATOM     29  C   UNL     1       3.857   5.184  17.894  0.00  0.00    +0.000 A 
ATOM     30  H   UNL     1       3.316   2.476  16.477  0.00  0.00    +0.000 HD
ENDBRANCH  19  20
ENDBRANCH   2  19
TORSDOF 5
ENDMDL
MODEL 2
REMARK VINA RESULT:      -8.3      1.218      1.323
REMARK  Name = 
REMARK  7 active torsions:
REMARK  status: ('A' for Active; 'I' for Inactive)
REMARK    1  A    between atoms: C_1  and  C_2
REMARK    2  A    between atoms: C_5  and  C_6
REMARK    3  A    between atoms: C_6  and  N_7
REMARK    4  A    between atoms: C_10  and  N_11
REMARK    5  A    between atoms: C_12  and  C_14
REMARK    6  A    between atoms: C_14  and  C_15
REMARK    7  A    between atoms: C_19  and  C_20
REMARK                            x       y       z     vdW  Elec       q    Type
REMARK                         _______ _______ _______ _____ _____    ______ ____
ROOT
ATOM      1  N   UNL     1       2.314   6.980  20.492  0.00  0.00    +0.000 N 
ATOM      2  C   UNL     1       2.054   5.621  20.481  0.00  0.00    +0.000 C 
ATOM      3  O   UNL     1       0.936   5.160  20.658  0.00  0.00    +0.000 OA
ATOM      4  H   UNL     1       3.140   7.312  19.990  0.00  0.00    +0.000 HD
ENDROOT
BRANCH   1   8
ATOM      5  N   UNL     1       0.722  10.145  20.028  0.00  0.00    +0.000 N 
ATOM      6  C   UNL     1       0.453  10.018  21.439  0.00  0.00    +0.000 C 
ATOM      7  C   UNL     1       1.233   8.780  21.844  0.00  0.00    +0.000 C 
ATOM      8  C   UNL     1       1.206   7.916  20.585  0.00  0.00    +0.000 C 
ATOM      9  C   UNL     1       1.202   8.981  19.481  0.00  0.00    +0.000 C 
ATOM     10  O   UNL     1       1.506   8.792  18.308  0.00  0.00    +0.000 OA
BRANCH   5  11
ATOM     11  C   UNL     1       0.297  11.297  19.261  0.00  0.00    +0.000 C 
BRANCH  11  16
ATOM     12  C   UNL     1      -5.314  11.145  17.684  0.00  0.00    +0.000 C 
ATOM     13  C   UNL     1      -3.871  11.202  18.087  0.00  0.00    +0.000 A 
ATOM     14  C   UNL     1      -3.437  12.064  19.098  0.00  0.00    +0.000 A 
ATOM     15  C   UNL     1      -2.093  12.089  19.480  0.00  0.00    +0.000 A 
ATOM     16  C   UNL     1      -1.158  11.250  18.859  0.00  0.00    +0.000 A 
ATOM     17  C   UNL     1      -1.591  10.403  17.830  0.00  0.00    +0.000 A 
ATOM     18  C   UNL     1      -2.935  10.380  17.448  0.00  0.00    +0.000 A 
ENDBRANCH  11  16
ENDBRANCH   5  11
ENDBRANCH   1   8
BRANCH   2  19
ATOM     19  C   UNL     1       3.266   4.745  20.278  0.00  0.00    +0.000 C 
BRANCH  19  20
ATOM     20  C   UNL     1       3.868   4.882  18.923  0.00  0.00    +0.000 A 
ATOM     21  C   UNL     1       3.162   4.738  17.741  0.00  0.00    +0.000 A 
ATOM     22  N   UNL     1       4.022   5.085  16.744  0.00  0.00    +0.000 N 
ATOM     23  C   UNL     1       5.300   4.867  17.187  0.00  0.00    +0.000 A 
ATOM     24  C   UNL     1       6.469   4.499  16.508  0.00  0.00    +0.000 A 
ATOM     25  C   UNL     1       6.438   3.782  15.192  0.00  0.00    +0.000 C 
ATOM     26  C   UNL     1       7.661   4.651  17.232  0.00  0.00    +0.000 A 
ATOM     27  C   UNL     1       7.659   5.127  18.547  0.00  0.00    +0.000 A 
ATOM     28  C   UNL     1       6.453   5.329  19.237  0.00  0.00    +0.000 A 
ATOM     29  C   UNL     1       5.243   5.101  18.557  0.00  0.00    +0.000 A 
ATOM     30  H   UNL     1       3.775   5.489  15.850  0.00  0.00    +0.000 HD
ENDBRANCH  19  20
ENDBRANCH   2  19
TORSDOF 5
ENDMDL
MODEL 3
REMARK VINA RESULT:      -8.2      6.098      9.369
REMARK  Name = 
REMARK  7 active torsions:
REMARK  status: ('A' for Active; 'I' for Inactive)
REMARK    1  A    between atoms: C_1  and  C_2
REMARK    2  A    between atoms: C_5  and  C_6
REMARK    3  A    between atoms: C_6  and  N_7
REMARK    4  A    between atoms: C_10  and  N_11
REMARK    5  A    between atoms: C_12  and  C_14
REMARK    6  A    between atoms: C_14  and  C_15
REMARK    7  A    between atoms: C_19  and  C_20
REMARK                            x       y       z     vdW  Elec       q    Type
REMARK                         _______ _______ _______ _____ _____    ______ ____
ROOT
ATOM      1  N   UNL     1       7.416   8.320  17.286  0.00  0.00    +0.000 N 
ATOM      2  C   UNL     1       8.276   9.015  18.117  0.00  0.00    +0.000 C 
ATOM      3  O   UNL     1       9.055   8.460  18.878  0.00  0.00    +0.000 OA
ATOM      4  H   UNL     1       7.077   8.793  16.446  0.00  0.00    +0.000 HD
ENDROOT
BRANCH   1   8
ATOM      5  N   UNL     1       6.109   5.001  17.085  0.00  0.00    +0.000 N 
ATOM      6  C   UNL     1       6.965   4.784  18.225  0.00  0.00    +0.000 C 
ATOM      7  C   UNL     1       7.475   6.174  18.561  0.00  0.00    +0.000 C 
ATOM      8  C   UNL     1       7.520   6.873  17.204  0.00  0.00    +0.000 C 
ATOM      9  C   UNL     1       6.346   6.208  16.475  0.00  0.00    +0.000 C 
ATOM     10  O   UNL     1       5.779   6.653  15.483  0.00  0.00    +0.000 OA
BRANCH   5  11
ATOM     11  C   UNL     1       5.280   3.951  16.530  0.00  0.00    +0.000 C 
BRANCH  11  16
ATOM     12  C   UNL     1       0.410   3.006  19.592  0.00  0.00    +0.000 C 
ATOM     13  C   UNL     1       1.672   3.240  18.817  0.00  0.00    +0.000 A 
ATOM     14  C   UNL     1       2.493   2.175  18.436  0.00  0.00    +0.000 A 
ATOM     15  C   UNL     1       3.654   2.406  17.693  0.00  0.00    +0.000 A 
ATOM     16  C   UNL     1       4.013   3.705  17.314  0.00  0.00    +0.000 A 
ATOM     17  C   UNL     1       3.200   4.774  17.716  0.00  0.00    +0.000 A 
ATOM     18  C   UNL     1       2.041   4.543  18.461  0.00  0.00    +0.000 A 
ENDBRANCH  11  16
ENDBRANCH   5  11
ENDBRANCH   1   8
BRANCH   2  19
ATOM     19  C   UNL     1       8.148  10.518  18.047  0.00  0.00    +0.000 C 
BRANCH  19  20
ATOM     20  C   UNL     1       9.197  11.232  18.827  0.00  0.00    +0.000 A 
ATOM     21  C   UNL     1       9.200  11.340  20.208  0.00  0.00    +0.000 A 
ATOM     22  N   UNL     1      10.386  11.922  20.537  0.00  0.00    +0.000 N 
ATOM     23  C   UNL     1      10.808  12.668  19.467  0.00  0.00    +0.000 A 
ATOM     24  C   UNL     1      11.558  13.848  19.395  0.00  0.00    +0.000 A 
ATOM     25  C   UNL     1      11.639  14.817  20.537  0.00  0.00    +0.000 C 
ATOM     26  C   UNL     1      12.052  14.172  18.122  0.00  0.00    +0.000 A 
ATOM     27  C   UNL     1      11.790  13.364  17.011  0.00  0.00    +0.000 A 
ATOM     28  C   UNL     1      10.902  12.282  17.104  0.00  0.00    +0.000 A 
ATOM     29  C   UNL     1      10.326  11.988  18.353  0.00  0.00    +0.000 A 
ATOM     30  H   UNL     1      10.903  11.791  21.396  0.00  0.00    +0.000 HD
ENDBRANCH  19  20
ENDBRANCH   2  19
TORSDOF 5
ENDMDL
MODEL 4
REMARK VINA RESULT:      -7.7      1.899      3.336
REMARK  Name = 
REMARK  7 active torsions:
REMARK  status: ('A' for Active; 'I' for Inactive)
REMARK    1  A    between atoms: C_1  and  C_2
REMARK    2  A    between atoms: C_5  and  C_6
REMARK    3  A    between atoms: C_6  and  N_7
REMARK    4  A    between atoms: C_10  and  N_11
REMARK    5  A    between atoms: C_12  and  C_14
REMARK    6  A    between atoms: C_14  and  C_15
REMARK    7  A    between atoms: C_19  and  C_20
REMARK                            x       y       z     vdW  Elec       q    Type
REMARK                         _______ _______ _______ _____ _____    ______ ____
ROOT
ATOM      1  N   UNL     1       2.299   7.026  20.561  0.00  0.00    +0.000 N 
ATOM      2  C   UNL     1       2.049   5.668  20.468  0.00  0.00    +0.000 C 
ATOM      3  O   UNL     1       0.924   5.195  20.542  0.00  0.00    +0.000 OA
ATOM      4  H   UNL     1       3.157   7.383  20.137  0.00  0.00    +0.000 HD
ENDROOT
BRANCH   1   8
ATOM      5  N   UNL     1       0.717  10.197  20.106  0.00  0.00    +0.000 N 
ATOM      6  C   UNL     1       0.364  10.021  21.493  0.00  0.00    +0.000 C 
ATOM      7  C   UNL     1       1.126   8.774  21.903  0.00  0.00    +0.000 C 
ATOM      8  C   UNL     1       1.181   7.953  20.617  0.00  0.00    +0.000 C 
ATOM      9  C   UNL     1       1.237   9.054  19.551  0.00  0.00    +0.000 C 
ATOM     10  O   UNL     1       1.613   8.906  18.393  0.00  0.00    +0.000 OA
BRANCH   5  11
ATOM     11  C   UNL     1       0.332  11.372  19.352  0.00  0.00    +0.000 C 
BRANCH  11  16
ATOM     12  C   UNL     1       4.384  15.564  19.426  0.00  0.00    +0.000 C 
ATOM     13  C   UNL     1       3.348  14.480  19.423  0.00  0.00    +0.000 A 
ATOM     14  C   UNL     1       2.437  14.350  20.476  0.00  0.00    +0.000 A 
ATOM     15  C   UNL     1       1.461  13.350  20.448  0.00  0.00    +0.000 A 
ATOM     16  C   UNL     1       1.375  12.464  19.366  0.00  0.00    +0.000 A 
ATOM     17  C   UNL     1       2.304  12.583  18.323  0.00  0.00    +0.000 A 
ATOM     18  C   UNL     1       3.281  13.581  18.352  0.00  0.00    +0.000 A 
ENDBRANCH  11  16
ENDBRANCH   5  11
ENDBRANCH   1   8
BRANCH   2  19
ATOM     19  C   UNL     1       3.279   4.806  20.313  0.00  0.00    +0.000 C 
BRANCH  19  20
ATOM     20  C   UNL     1       3.546   4.415  18.902  0.00  0.00    +0.000 A 
ATOM     21  C   UNL     1       3.531   3.109  18.441  0.00  0.00    +0.000 A 
ATOM     22  N   UNL     1       3.668   3.185  17.089  0.00  0.00    +0.000 N 
ATOM     23  C   UNL     1       4.324   4.351  16.790  0.00  0.00    +0.000 A 
ATOM     24  C   UNL     1       5.199   4.685  15.749  0.00  0.00    +0.000 A 
ATOM     25  C   UNL     1       5.990   3.651  15.004  0.00  0.00    +0.000 C 
ATOM     26  C   UNL     1       5.451   6.056  15.589  0.00  0.00    +0.000 A 
ATOM     27  C   UNL     1       4.868   7.008  16.432  0.00  0.00    +0.000 A 
ATOM     28  C   UNL     1       4.128   6.614  17.557  0.00  0.00    +0.000 A 
ATOM     29  C   UNL     1       3.933   5.240  17.787  0.00  0.00    +0.000 A 
ATOM     30  H   UNL     1       3.304   2.531  16.409  0.00  0.00    +0.000 HD
ENDBRANCH  19  20
ENDBRANCH   2  19
TORSDOF 5
ENDMDL
MODEL 5
REMARK VINA RESULT:      -7.6      2.300      3.670
REMARK  Name = 
REMARK  7 active torsions:
REMARK  status: ('A' for Active; 'I' for Inactive)
REMARK    1  A    between atoms: C_1  and  C_2
REMARK    2  A    between atoms: C_5  and  C_6
REMARK    3  A    between atoms: C_6  and  N_7
REMARK    4  A    between atoms: C_10  and  N_11
REMARK    5  A    between atoms: C_12  and  C_14
REMARK    6  A    between atoms: C_14  and  C_15
REMARK    7  A    between atoms: C_19  and  C_20
REMARK                            x       y       z     vdW  Elec       q    Type
REMARK                         _______ _______ _______ _____ _____    ______ ____
ROOT
ATOM      1  N   UNL     1       2.305   7.049  20.587  0.00  0.00    +0.000 N 
ATOM      2  C   UNL     1       2.009   5.700  20.503  0.00  0.00    +0.000 C 
ATOM      3  O   UNL     1       0.875   5.261  20.626  0.00  0.00    +0.000 OA
ATOM      4  H   UNL     1       3.154   7.381  20.125  0.00  0.00    +0.000 HD
ENDROOT
BRANCH   1   8
ATOM      5  N   UNL     1       0.808  10.273  20.226  0.00  0.00    +0.000 N 
ATOM      6  C   UNL     1       0.499  10.091  21.621  0.00  0.00    +0.000 C 
ATOM      7  C   UNL     1       1.234   8.815  21.990  0.00  0.00    +0.000 C 
ATOM      8  C   UNL     1       1.219   8.010  20.693  0.00  0.00    +0.000 C 
ATOM      9  C   UNL     1       1.273   9.122  19.638  0.00  0.00    +0.000 C 
ATOM     10  O   UNL     1       1.603   8.978  18.466  0.00  0.00    +0.000 OA
BRANCH   5  11
ATOM     11  C   UNL     1       0.435  11.470  19.500  0.00  0.00    +0.000 C 
BRANCH  11  16
ATOM     12  C   UNL     1       4.663  15.482  19.369  0.00  0.00    +0.000 C 
ATOM     13  C   UNL     1       3.585  14.441  19.416  0.00  0.00    +0.000 A 
ATOM     14  C   UNL     1       2.924  14.140  20.611  0.00  0.00    +0.000 A 
ATOM     15  C   UNL     1       1.904  13.185  20.634  0.00  0.00    +0.000 A 
ATOM     16  C   UNL     1       1.523  12.516  19.464  0.00  0.00    +0.000 A 
ATOM     17  C   UNL     1       2.202  12.804  18.272  0.00  0.00    +0.000 A 
ATOM     18  C   UNL     1       3.223  13.757  18.249  0.00  0.00    +0.000 A 
ENDBRANCH  11  16
ENDBRANCH   5  11
ENDBRANCH   1   8
BRANCH   2  19
ATOM     19  C   UNL     1       3.204   4.801  20.293  0.00  0.00    +0.000 C 
BRANCH  19  20
ATOM     20  C   UNL     1       3.808   4.936  18.939  0.00  0.00    +0.000 A 
ATOM     21  C   UNL     1       3.101   4.799  17.755  0.00  0.00    +0.000 A 
ATOM     22  N   UNL     1       3.964   5.142  16.760  0.00  0.00    +0.000 N 
ATOM     23  C   UNL     1       5.241   4.915  17.203  0.00  0.00    +0.000 A 
ATOM     24  C   UNL     1       6.408   4.541  16.525  0.00  0.00    +0.000 A 
ATOM     25  C   UNL     1       6.374   3.826  15.207  0.00  0.00    +0.000 C 
ATOM     26  C   UNL     1       7.600   4.684  17.250  0.00  0.00    +0.000 A 
ATOM     27  C   UNL     1       7.600   5.158  18.566  0.00  0.00    +0.000 A 
ATOM     28  C   UNL     1       6.396   5.366  19.254  0.00  0.00    +0.000 A 
ATOM     29  C   UNL     1       5.184   5.147  18.574  0.00  0.00    +0.000 A 
ATOM     30  H   UNL     1       3.721   5.549  15.866  0.00  0.00    +0.000 HD
ENDBRANCH  19  20
ENDBRANCH   2  19
TORSDOF 5
ENDMDL
MODEL 6
REMARK VINA RESULT:      -7.5      6.140      9.473
REMARK  Name = 
REMARK  7 active torsions:
REMARK  status: ('A' for Active; 'I' for Inactive)
REMARK    1  A    between atoms: C_1  and  C_2
REMARK    2  A    between atoms: C_5  and  C_6
REMARK    3  A    between atoms: C_6  and  N_7
REMARK    4  A    between atoms: C_10  and  N_11
REMARK    5  A    between atoms: C_12  and  C_14
REMARK    6  A    between atoms: C_14  and  C_15
REMARK    7  A    between atoms: C_19  and  C_20
REMARK                            x       y       z     vdW  Elec       q    Type
REMARK                         _______ _______ _______ _____ _____    ______ ____
ROOT
ATOM      1  N   UNL     1       8.518   8.052  18.792  0.00  0.00    +0.000 N 
ATOM      2  C   UNL     1       8.668   9.421  18.661  0.00  0.00    +0.000 C 
ATOM      3  O   UNL     1       7.956  10.099  17.935  0.00  0.00    +0.000 OA
ATOM      4  H   UNL     1       8.865   7.613  19.647  0.00  0.00    +0.000 HD
ENDROOT
BRANCH   1   8
ATOM      5  N   UNL     1       6.689   5.226  17.595  0.00  0.00    +0.000 N 
ATOM      6  C   UNL     1       6.675   5.977  16.365  0.00  0.00    +0.000 C 
ATOM      7  C   UNL     1       7.584   7.159  16.655  0.00  0.00    +0.000 C 
ATOM      8  C   UNL     1       7.390   7.396  18.152  0.00  0.00    +0.000 C 
ATOM      9  C   UNL     1       7.134   5.971  18.659  0.00  0.00    +0.000 C 
ATOM     10  O   UNL     1       7.241   5.599  19.822  0.00  0.00    +0.000 OA
BRANCH   5  11
ATOM     11  C   UNL     1       6.072   3.920  17.711  0.00  0.00    +0.000 C 
BRANCH  11  16
ATOM     12  C   UNL     1       0.843   4.007  20.289  0.00  0.00    +0.000 C 
ATOM     13  C   UNL     1       2.180   3.981  19.610  0.00  0.00    +0.000 A 
ATOM     14  C   UNL     1       2.427   4.755  18.472  0.00  0.00    +0.000 A 
ATOM     15  C   UNL     1       3.686   4.738  17.864  0.00  0.00    +0.000 A 
ATOM     16  C   UNL     1       4.721   3.950  18.385  0.00  0.00    +0.000 A 
ATOM     17  C   UNL     1       4.464   3.158  19.512  0.00  0.00    +0.000 A 
ATOM     18  C   UNL     1       3.205   3.173  20.118  0.00  0.00    +0.000 A 
ENDBRANCH  11  16
ENDBRANCH   5  11
ENDBRANCH   1   8
BRANCH   2  19
ATOM     19  C   UNL     1       9.812  10.011  19.450  0.00  0.00    +0.000 C 
BRANCH  19  20
ATOM     20  C   UNL     1       9.831  11.500  19.431  0.00  0.00    +0.000 A 
ATOM     21  C   UNL     1       8.997  12.297  20.197  0.00  0.00    +0.000 A 
ATOM     22  N   UNL     1       9.425  13.576  20.011  0.00  0.00    +0.000 N 
ATOM     23  C   UNL     1      10.045  13.647  18.791  0.00  0.00    +0.000 A 
ATOM     24  C   UNL     1      10.155  14.690  17.863  0.00  0.00    +0.000 A 
ATOM     25  C   UNL     1       9.173  15.822  17.811  0.00  0.00    +0.000 C 
ATOM     26  C   UNL     1      11.111  14.502  16.854  0.00  0.00    +0.000 A 
ATOM     27  C   UNL     1      11.883  13.338  16.789  0.00  0.00    +0.000 A 
ATOM     28  C   UNL     1      11.624  12.256  17.644  0.00  0.00    +0.000 A 
ATOM     29  C   UNL     1      10.611  12.388  18.611  0.00  0.00    +0.000 A 
ATOM     30  H   UNL     1       9.354  14.337  20.674  0.00  0.00    +0.000 HD
ENDBRANCH  19  20
ENDBRANCH   2  19
TORSDOF 5
ENDMDL
MODEL 7
REMARK VINA RESULT:      -7.5      2.338      4.111
REMARK  Name = 
REMARK  7 active torsions:
REMARK  status: ('A' for Active; 'I' for Inactive)
REMARK    1  A    between atoms: C_1  and  C_2
REMARK    2  A    between atoms: C_5  and  C_6
REMARK    3  A    between atoms: C_6  and  N_7
REMARK    4  A    between atoms: C_10  and  N_11
REMARK    5  A    between atoms: C_12  and  C_14
REMARK    6  A    between atoms: C_14  and  C_15
REMARK    7  A    between atoms: C_19  and  C_20
REMARK                            x       y       z     vdW  Elec       q    Type
REMARK                         _______ _______ _______ _____ _____    ______ ____
ROOT
ATOM      1  N   UNL     1       1.510   9.539  18.386  0.00  0.00    +0.000 N 
ATOM      2  C   UNL     1       1.878   8.354  18.998  0.00  0.00    +0.000 C 
ATOM      3  O   UNL     1       1.884   8.209  20.212  0.00  0.00    +0.000 OA
ATOM      4  H   UNL     1       1.174   9.495  17.422  0.00  0.00    +0.000 HD
ENDROOT
BRANCH   1   8
ATOM      5  N   UNL     1      -0.731  12.228  19.101  0.00  0.00    +0.000 N 
ATOM      6  C   UNL     1       0.493  12.961  19.305  0.00  0.00    +0.000 C 
ATOM      7  C   UNL     1       1.572  11.990  18.860  0.00  0.00    +0.000 C 
ATOM      8  C   UNL     1       0.979  10.623  19.196  0.00  0.00    +0.000 C 
ATOM      9  C   UNL     1      -0.519  10.877  18.985  0.00  0.00    +0.000 C 
ATOM     10  O   UNL     1      -1.371  10.011  18.816  0.00  0.00    +0.000 OA
BRANCH   5  11
ATOM     11  C   UNL     1      -2.035  12.842  19.250  0.00  0.00    +0.000 C 
BRANCH  11  16
ATOM     12  C   UNL     1      -4.190  12.423  24.651  0.00  0.00    +0.000 C 
ATOM     13  C   UNL     1      -3.649  12.520  23.255  0.00  0.00    +0.000 A 
ATOM     14  C   UNL     1      -4.467  12.903  22.189  0.00  0.00    +0.000 A 
ATOM     15  C   UNL     1      -3.943  13.012  20.898  0.00  0.00    +0.000 A 
ATOM     16  C   UNL     1      -2.591  12.744  20.651  0.00  0.00    +0.000 A 
ATOM     17  C   UNL     1      -1.778  12.338  21.718  0.00  0.00    +0.000 A 
ATOM     18  C   UNL     1      -2.303  12.227  23.008  0.00  0.00    +0.000 A 
ENDBRANCH  11  16
ENDBRANCH   5  11
ENDBRANCH   1   8
BRANCH   2  19
ATOM     19  C   UNL     1       2.319   7.263  18.052  0.00  0.00    +0.000 C 
BRANCH  19  20
ATOM     20  C   UNL     1       3.073   6.171  18.728  0.00  0.00    +0.000 A 
ATOM     21  C   UNL     1       4.416   5.908  18.516  0.00  0.00    +0.000 A 
ATOM     22  N   UNL     1       4.758   4.950  19.420  0.00  0.00    +0.000 N 
ATOM     23  C   UNL     1       3.631   4.239  19.739  0.00  0.00    +0.000 A 
ATOM     24  C   UNL     1       3.449   2.900  20.107  0.00  0.00    +0.000 A 
ATOM     25  C   UNL     1       4.434   1.829  19.744  0.00  0.00    +0.000 C 
ATOM     26  C   UNL     1       2.192   2.588  20.646  0.00  0.00    +0.000 A 
ATOM     27  C   UNL     1       1.197   3.561  20.786  0.00  0.00    +0.000 A 
ATOM     28  C   UNL     1       1.371   4.848  20.256  0.00  0.00    +0.000 A 
ATOM     29  C   UNL     1       2.593   5.160  19.633  0.00  0.00    +0.000 A 
ATOM     30  H   UNL     1       5.671   4.812  19.835  0.00  0.00    +0.000 HD
ENDBRANCH  19  20
ENDBRANCH   2  19
TORSDOF 5
ENDMDL
MODEL 8
REMARK VINA RESULT:      -7.5      5.978      9.271
REMARK  Name = 
REMARK  7 active torsions:
REMARK  status: ('A' for Active; 'I' for Inactive)
REMARK    1  A    between atoms: C_1  and  C_2
REMARK    2  A    between atoms: C_5  and  C_6
REMARK    3  A    between atoms: C_6  and  N_7
REMARK    4  A    between atoms: C_10  and  N_11
REMARK    5  A    between atoms: C_12  and  C_14
REMARK    6  A    between atoms: C_14  and  C_15
REMARK    7  A    between atoms: C_19  and  C_20
REMARK                            x       y       z     vdW  Elec       q    Type
REMARK                         _______ _______ _______ _____ _____    ______ ____
ROOT
ATOM      1  N   UNL     1       7.539   8.135  17.102  0.00  0.00    +0.000 N 
ATOM      2  C   UNL     1       8.373   8.752  18.017  0.00  0.00    +0.000 C 
ATOM      3  O   UNL     1       8.846   8.168  18.981  0.00  0.00    +0.000 OA
ATOM      4  H   UNL     1       7.481   8.534  16.163  0.00  0.00    +0.000 HD
ENDROOT
BRANCH   1   8
ATOM      5  N   UNL     1       5.516   5.209  17.440  0.00  0.00    +0.000 N 
ATOM      6  C   UNL     1       6.420   4.924  18.525  0.00  0.00    +0.000 C 
ATOM      7  C   UNL     1       7.259   6.184  18.636  0.00  0.00    +0.000 C 
ATOM      8  C   UNL     1       7.311   6.703  17.200  0.00  0.00    +0.000 C 
ATOM      9  C   UNL     1       5.947   6.255  16.661  0.00  0.00    +0.000 C 
ATOM     10  O   UNL     1       5.389   6.710  15.669  0.00  0.00    +0.000 OA
BRANCH   5  11
ATOM     11  C   UNL     1       4.420   4.327  17.093  0.00  0.00    +0.000 C 
BRANCH  11  16
ATOM     12  C   UNL     1       1.235   2.716  21.703  0.00  0.00    +0.000 C 
ATOM     13  C   UNL     1       2.070   3.128  20.527  0.00  0.00    +0.000 A 
ATOM     14  C   UNL     1       3.092   2.306  20.044  0.00  0.00    +0.000 A 
ATOM     15  C   UNL     1       3.845   2.692  18.932  0.00  0.00    +0.000 A 
ATOM     16  C   UNL     1       3.588   3.905  18.281  0.00  0.00    +0.000 A 
ATOM     17  C   UNL     1       2.578   4.738  18.781  0.00  0.00    +0.000 A 
ATOM     18  C   UNL     1       1.826   4.353  19.894  0.00  0.00    +0.000 A 
ENDBRANCH  11  16
ENDBRANCH   5  11
ENDBRANCH   1   8
BRANCH   2  19
ATOM     19  C   UNL     1       8.620  10.219  17.761  0.00  0.00    +0.000 C 
BRANCH  19  20
ATOM     20  C   UNL     1       9.252  10.917  18.914  0.00  0.00    +0.000 A 
ATOM     21  C   UNL     1       8.907  10.700  20.238  0.00  0.00    +0.000 A 
ATOM     22  N   UNL     1       9.805  11.404  20.980  0.00  0.00    +0.000 N 
ATOM     23  C   UNL     1      10.269  12.444  20.218  0.00  0.00    +0.000 A 
ATOM     24  C   UNL     1      10.705  13.729  20.565  0.00  0.00    +0.000 A 
ATOM     25  C   UNL     1      10.280  14.403  21.836  0.00  0.00    +0.000 C 
ATOM     26  C   UNL     1      11.387  14.428  19.558  0.00  0.00    +0.000 A 
ATOM     27  C   UNL     1      11.596  13.865  18.294  0.00  0.00    +0.000 A 
ATOM     28  C   UNL     1      11.002  12.643  17.945  0.00  0.00    +0.000 A 
ATOM     29  C   UNL     1      10.241  11.963  18.913  0.00  0.00    +0.000 A 
ATOM     30  H   UNL     1      10.125  11.176  21.913  0.00  0.00    +0.000 HD
ENDBRANCH  19  20
ENDBRANCH   2  19
TORSDOF 5
ENDMDL
MODEL 9
REMARK VINA RESULT:      -7.5      2.259      3.499
REMARK  Name = 
REMARK  7 active torsions:
REMARK  status: ('A' for Active; 'I' for Inactive)
REMARK    1  A    between atoms: C_1  and  C_2
REMARK    2  A    between atoms: C_5  and  C_6
REMARK    3  A    between atoms: C_6  and  N_7
REMARK    4  A    between atoms: C_10  and  N_11
REMARK    5  A    between atoms: C_12  and  C_14
REMARK    6  A    between atoms: C_14  and  C_15
REMARK    7  A    between atoms: C_19  and  C_20
REMARK                            x       y       z     vdW  Elec       q    Type
REMARK                         _______ _______ _______ _____ _____    ______ ____
ROOT
ATOM      1  N   UNL     1       2.198   7.414  20.581  0.00  0.00    +0.000 N 
ATOM      2  C   UNL     1       1.983   6.049  20.514  0.00  0.00    +0.000 C 
ATOM      3  O   UNL     1       0.872   5.548  20.607  0.00  0.00    +0.000 OA
ATOM      4  H   UNL     1       3.042   7.786  20.142  0.00  0.00    +0.000 HD
ENDROOT
BRANCH   1   8
ATOM      5  N   UNL     1       0.454  10.451  19.873  0.00  0.00    +0.000 N 
ATOM      6  C   UNL     1       0.254  10.462  21.300  0.00  0.00    +0.000 C 
ATOM      7  C   UNL     1       1.103   9.303  21.792  0.00  0.00    +0.000 C 
ATOM      8  C   UNL     1       1.056   8.312  20.631  0.00  0.00    +0.000 C 
ATOM      9  C   UNL     1       0.958   9.255  19.425  0.00  0.00    +0.000 C 
ATOM     10  O   UNL     1       1.217   8.956  18.264  0.00  0.00    +0.000 OA
BRANCH   5  11
ATOM     11  C   UNL     1      -0.052  11.500  19.012  0.00  0.00    +0.000 C 
BRANCH  11  16
ATOM     12  C   UNL     1       3.619  15.981  18.353  0.00  0.00    +0.000 C 
ATOM     13  C   UNL     1       2.678  14.823  18.505  0.00  0.00    +0.000 A 
ATOM     14  C   UNL     1       3.094  13.516  18.238  0.00  0.00    +0.000 A 
ATOM     15  C   UNL     1       2.213  12.444  18.408  0.00  0.00    +0.000 A 
ATOM     16  C   UNL     1       0.901  12.660  18.851  0.00  0.00    +0.000 A 
ATOM     17  C   UNL     1       0.481  13.974  19.097  0.00  0.00    +0.000 A 
ATOM     18  C   UNL     1       1.361  15.045  18.925  0.00  0.00    +0.000 A 
ENDBRANCH  11  16
ENDBRANCH   5  11
ENDBRANCH   1   8
BRANCH   2  19
ATOM     19  C   UNL     1       3.234   5.217  20.363  0.00  0.00    +0.000 C 
BRANCH  19  20
ATOM     20  C   UNL     1       3.833   5.302  19.003  0.00  0.00    +0.000 A 
ATOM     21  C   UNL     1       3.102   5.272  17.827  0.00  0.00    +0.000 A 
ATOM     22  N   UNL     1       3.988   5.526  16.826  0.00  0.00    +0.000 N 
ATOM     23  C   UNL     1       5.233   5.138  17.248  0.00  0.00    +0.000 A 
ATOM     24  C   UNL     1       6.338   4.638  16.547  0.00  0.00    +0.000 A 
ATOM     25  C   UNL     1       6.202   3.956  15.219  0.00  0.00    +0.000 C 
ATOM     26  C   UNL     1       7.547   4.623  17.258  0.00  0.00    +0.000 A 
ATOM     27  C   UNL     1       7.620   5.070  18.582  0.00  0.00    +0.000 A 
ATOM     28  C   UNL     1       6.458   5.410  19.290  0.00  0.00    +0.000 A 
ATOM     29  C   UNL     1       5.221   5.351  18.623  0.00  0.00    +0.000 A 
ATOM     30  H   UNL     1       3.786   5.975  15.943  0.00  0.00    +0.000 HD
ENDBRANCH  19  20
ENDBRANCH   2  19
TORSDOF 5
ENDMDL
