MODEL 1
REMARK VINA RESULT:      -8.3      0.000      0.000
REMARK  Name = 
REMARK  6 active torsions:
REMARK  status: ('A' for Active; 'I' for Inactive)
REMARK    1  A    between atoms: C_1  and  O_2
REMARK    2  A    between atoms: O_2  and  C_3
REMARK    3  A    between atoms: C_6  and  C_7
REMARK    4  A    between atoms: C_12  and  C_13
REMARK    5  A    between atoms: C_22  and  C_23
REMARK    6  A    between atoms: C_26  and  C_27
REMARK                            x       y       z     vdW  Elec       q    Type
REMARK                         _______ _______ _______ _____ _____    ______ ____
ROOT
ATOM      1  C   UNL     1       2.156   7.206  19.856  0.00  0.00    +0.000 A 
ATOM      2  N   UNL     1       1.363   6.369  20.623  0.00  0.00    +0.000 NA
ATOM      3  C   UNL     1       2.042   5.252  20.660  0.00  0.00    +0.000 A 
ATOM      4  N   UNL     1       3.198   5.400  19.960  0.00  0.00    +0.000 N 
ATOM      5  N   UNL     1       3.331   6.657  19.491  0.00  0.00    +0.000 NA
ATOM      6  C   UNL     1       4.180   4.328  19.753  0.00  0.00    +0.000 C 
ATOM      7  C   UNL     1       3.719   2.984  20.324  0.00  0.00    +0.000 C 
ATOM      8  C   UNL     1       2.550   2.911  21.027  0.00  0.00    +0.000 C 
ATOM      9  C   UNL     1       1.941   1.677  21.652  0.00  0.00    +0.000 C 
ATOM     10  N   UNL     1       1.777   4.061  21.221  0.00  0.00    +0.000 N 
ATOM     11  H   UNL     1       0.899   3.948  21.725  0.00  0.00    +0.000 HD
ENDROOT
BRANCH   6  12
ATOM     12  C   UNL     1       4.568   4.301  18.276  0.00  0.00    +0.000 A 
ATOM     13  C   UNL     1       3.617   4.031  17.261  0.00  0.00    +0.000 A 
ATOM     14  C   UNL     1       3.987   4.020  15.915  0.00  0.00    +0.000 A 
ATOM     15  C   UNL     1       5.296   4.307  15.604  0.00  0.00    +0.000 A 
ATOM     16  C   UNL     1       6.225   4.588  16.578  0.00  0.00    +0.000 A 
ATOM     17  C   UNL     1       5.896   4.585  17.916  0.00  0.00    +0.000 A 
ATOM     18  O   UNL     1       7.452   4.862  16.063  0.00  0.00    +0.000 OA
ATOM     19  C   UNL     1       7.167   4.808  14.650  0.00  0.00    +0.000 C 
ATOM     20  O   UNL     1       5.827   4.364  14.354  0.00  0.00    +0.000 OA
ENDBRANCH   6  12
BRANCH   1  24
ATOM     21  C   UNL     1       0.968  11.175  18.728  0.00  0.00    +0.000 A 
ATOM     22  C   UNL     1       1.714  10.388  17.851  0.00  0.00    +0.000 A 
ATOM     23  C   UNL     1       2.107   9.089  18.220  0.00  0.00    +0.000 A 
ATOM     24  C   UNL     1       1.747   8.555  19.465  0.00  0.00    +0.000 A 
ATOM     25  C   UNL     1       0.999   9.357  20.340  0.00  0.00    +0.000 A 
ATOM     26  C   UNL     1       0.613  10.651  19.971  0.00  0.00    +0.000 A 
BRANCH  21  28
ATOM     27  C   UNL     1      -0.853  12.632  18.261  0.00  0.00    +0.000 C 
ATOM     28  O   UNL     1       0.535  12.450  18.501  0.00  0.00    +0.000 OA
ENDBRANCH  21  28
ENDBRANCH   1  24
BRANCH   7  29
ATOM     29  C   UNL     1       4.558   1.773  20.049  0.00  0.00    +0.000 C 
ATOM     30  N   UNL     1       4.302   1.050  18.929  0.00  0.00    +0.000 N 
ATOM     31  O   UNL     1       5.432   1.367  20.809  0.00  0.00    +0.000 OA
ATOM     32  H   UNL     1       3.504   1.151  18.321  0.00  0.00    +0.000 HD
ATOM     33  H   UNL     1       4.818   0.181  18.851  0.00  0.00    +0.000 HD
ENDBRANCH   7  29
TORSDOF 4
ENDMDL
MODEL 2
REMARK VINA RESULT:      -7.8      0.831      1.384
REMARK  Name = 
REMARK  6 active torsions:
REMARK  status: ('A' for Active; 'I' for Inactive)
REMARK    1  A    between atoms: C_1  and  O_2
REMARK    2  A    between atoms: O_2  and  C_3
REMARK    3  A    between atoms: C_6  and  C_7
REMARK    4  A    between atoms: C_12  and  C_13
REMARK    5  A    between atoms: C_22  and  C_23
REMARK    6  A    between atoms: C_26  and  C_27
REMARK                            x       y       z     vdW  Elec       q    Type
REMARK                         _______ _______ _______ _____ _____    ______ ____
ROOT
ATOM      1  C   UNL     1       2.056   7.346  19.482  0.00  0.00    +0.000 A 
ATOM      2  N   UNL     1       1.052   6.406  19.650  0.00  0.00    +0.000 NA
ATOM      3  C   UNL     1       1.703   5.277  19.751  0.00  0.00    +0.000 A 
ATOM      4  N   UNL     1       3.039   5.513  19.658  0.00  0.00    +0.000 N 
ATOM      5  N   UNL     1       3.298   6.831  19.554  0.00  0.00    +0.000 NA
ATOM      6  C   UNL     1       4.066   4.463  19.683  0.00  0.00    +0.000 C 
ATOM      7  C   UNL     1       3.470   3.053  19.720  0.00  0.00    +0.000 C 
ATOM      8  C   UNL     1       2.118   2.890  19.823  0.00  0.00    +0.000 C 
ATOM      9  C   UNL     1       1.361   1.583  19.867  0.00  0.00    +0.000 C 
ATOM     10  N   UNL     1       1.282   4.009  19.893  0.00  0.00    +0.000 N 
ATOM     11  H   UNL     1       0.279   3.836  19.939  0.00  0.00    +0.000 HD
ENDROOT
BRANCH   6  12
ATOM     12  C   UNL     1       5.049   4.717  18.542  0.00  0.00    +0.000 A 
ATOM     13  C   UNL     1       6.369   5.170  18.783  0.00  0.00    +0.000 A 
ATOM     14  C   UNL     1       7.257   5.388  17.728  0.00  0.00    +0.000 A 
ATOM     15  C   UNL     1       6.820   5.119  16.451  0.00  0.00    +0.000 A 
ATOM     16  C   UNL     1       5.547   4.662  16.205  0.00  0.00    +0.000 A 
ATOM     17  C   UNL     1       4.640   4.459  17.222  0.00  0.00    +0.000 A 
ATOM     18  O   UNL     1       5.320   4.441  14.883  0.00  0.00    +0.000 OA
ATOM     19  C   UNL     1       6.624   4.729  14.337  0.00  0.00    +0.000 C 
ATOM     20  O   UNL     1       7.551   5.250  15.312  0.00  0.00    +0.000 OA
ENDBRANCH   6  12
BRANCH   1  24
ATOM     21  C   UNL     1       1.284  11.508  18.768  0.00  0.00    +0.000 A 
ATOM     22  C   UNL     1       2.032  10.766  17.856  0.00  0.00    +0.000 A 
ATOM     23  C   UNL     1       2.288   9.403  18.089  0.00  0.00    +0.000 A 
ATOM     24  C   UNL     1       1.789   8.762  19.231  0.00  0.00    +0.000 A 
ATOM     25  C   UNL     1       1.039   9.521  20.143  0.00  0.00    +0.000 A 
ATOM     26  C   UNL     1       0.790  10.878  19.910  0.00  0.00    +0.000 A 
BRANCH  21  28
ATOM     27  C   UNL     1      -0.382  13.169  18.406  0.00  0.00    +0.000 C 
ATOM     28  O   UNL     1       0.974  12.835  18.670  0.00  0.00    +0.000 OA
ENDBRANCH  21  28
ENDBRANCH   1  24
BRANCH   7  29
ATOM     29  C   UNL     1       4.404   1.887  19.595  0.00  0.00    +0.000 C 
ATOM     30  N   UNL     1       4.248   1.045  18.542  0.00  0.00    +0.000 N 
ATOM     31  O   UNL     1       5.270   1.622  20.422  0.00  0.00    +0.000 OA
ATOM     32  H   UNL     1       3.473   1.028  17.898  0.00  0.00    +0.000 HD
ATOM     33  H   UNL     1       4.828   0.213  18.568  0.00  0.00    +0.000 HD
ENDBRANCH   7  29
TORSDOF 4
ENDMDL
MODEL 3
REMARK VINA RESULT:      -7.8      0.947      1.729
REMARK  Name = 
REMARK  6 active torsions:
REMARK  status: ('A' for Active; 'I' for Inactive)
REMARK    1  A    between atoms: C_1  and  O_2
REMARK    2  A    between atoms: O_2  and  C_3
REMARK    3  A    between atoms: C_6  and  C_7
REMARK    4  A    between atoms: C_12  and  C_13
REMARK    5  A    between atoms: C_22  and  C_23
REMARK    6  A    between atoms: C_26  and  C_27
REMARK                            x       y       z     vdW  Elec       q    Type
REMARK                         _______ _______ _______ _____ _____    ______ ____
ROOT
ATOM      1  C   UNL     1       2.075   7.284  19.528  0.00  0.00    +0.000 A 
ATOM      2  N   UNL     1       1.070   6.345  19.691  0.00  0.00    +0.000 NA
ATOM      3  C   UNL     1       1.720   5.213  19.777  0.00  0.00    +0.000 A 
ATOM      4  N   UNL     1       3.055   5.448  19.680  0.00  0.00    +0.000 N 
ATOM      5  N   UNL     1       3.317   6.767  19.589  0.00  0.00    +0.000 NA
ATOM      6  C   UNL     1       4.080   4.396  19.689  0.00  0.00    +0.000 C 
ATOM      7  C   UNL     1       3.482   2.986  19.713  0.00  0.00    +0.000 C 
ATOM      8  C   UNL     1       2.130   2.825  19.821  0.00  0.00    +0.000 C 
ATOM      9  C   UNL     1       1.371   1.519  19.855  0.00  0.00    +0.000 C 
ATOM     10  N   UNL     1       1.296   3.945  19.908  0.00  0.00    +0.000 N 
ATOM     11  H   UNL     1       0.294   3.772  19.956  0.00  0.00    +0.000 HD
ENDROOT
BRANCH   6  12
ATOM     12  C   UNL     1       5.059   4.660  18.545  0.00  0.00    +0.000 A 
ATOM     13  C   UNL     1       6.377   5.121  18.785  0.00  0.00    +0.000 A 
ATOM     14  C   UNL     1       7.260   5.348  17.728  0.00  0.00    +0.000 A 
ATOM     15  C   UNL     1       6.821   5.082  16.451  0.00  0.00    +0.000 A 
ATOM     16  C   UNL     1       5.550   4.617  16.207  0.00  0.00    +0.000 A 
ATOM     17  C   UNL     1       4.648   4.404  17.226  0.00  0.00    +0.000 A 
ATOM     18  O   UNL     1       5.321   4.400  14.885  0.00  0.00    +0.000 OA
ATOM     19  C   UNL     1       6.621   4.698  14.336  0.00  0.00    +0.000 C 
ATOM     20  O   UNL     1       7.547   5.222  15.310  0.00  0.00    +0.000 OA
ENDBRANCH   6  12
BRANCH   1  24
ATOM     21  C   UNL     1       1.282  11.443  18.818  0.00  0.00    +0.000 A 
ATOM     22  C   UNL     1       0.831  10.832  19.987  0.00  0.00    +0.000 A 
ATOM     23  C   UNL     1       1.087   9.469  20.220  0.00  0.00    +0.000 A 
ATOM     24  C   UNL     1       1.809   8.704  19.294  0.00  0.00    +0.000 A 
ATOM     25  C   UNL     1       2.255   9.330  18.120  0.00  0.00    +0.000 A 
ATOM     26  C   UNL     1       1.995  10.685  17.889  0.00  0.00    +0.000 A 
BRANCH  21  28
ATOM     27  C   UNL     1       2.247  13.509  18.137  0.00  0.00    +0.000 C 
ATOM     28  O   UNL     1       1.092  12.748  18.464  0.00  0.00    +0.000 OA
ENDBRANCH  21  28
ENDBRANCH   1  24
BRANCH   7  29
ATOM     29  C   UNL     1       4.413   1.820  19.571  0.00  0.00    +0.000 C 
ATOM     30  N   UNL     1       4.244   0.983  18.516  0.00  0.00    +0.000 N 
ATOM     31  O   UNL     1       5.290   1.550  20.387  0.00  0.00    +0.000 OA
ATOM     32  H   UNL     1       3.461   0.970  17.882  0.00  0.00    +0.000 HD
ATOM     33  H   UNL     1       4.823   0.151  18.531  0.00  0.00    +0.000 HD
ENDBRANCH   7  29
TORSDOF 4
ENDMDL
MODEL 4
REMARK VINA RESULT:      -7.4      2.150      2.493
REMARK  Name = 
REMARK  6 active torsions:
REMARK  status: ('A' for Active; 'I' for Inactive)
REMARK    1  A    between atoms: C_1  and  O_2
REMARK    2  A    between atoms: O_2  and  C_3
REMARK    3  A    between atoms: C_6  and  C_7
REMARK    4  A    between atoms: C_12  and  C_13
REMARK    5  A    between atoms: C_22  and  C_23
REMARK    6  A    between atoms: C_26  and  C_27
REMARK                            x       y       z     vdW  Elec       q    Type
REMARK                         _______ _______ _______ _____ _____    ______ ____
ROOT
ATOM      1  C   UNL     1       1.155   7.121  20.903  0.00  0.00    +0.000 A 
ATOM      2  N   UNL     1       0.222   6.110  20.738  0.00  0.00    +0.000 NA
ATOM      3  C   UNL     1       0.947   5.076  20.398  0.00  0.00    +0.000 A 
ATOM      4  N   UNL     1       2.258   5.432  20.365  0.00  0.00    +0.000 N 
ATOM      5  N   UNL     1       2.429   6.713  20.748  0.00  0.00    +0.000 NA
ATOM      6  C   UNL     1       3.348   4.529  19.975  0.00  0.00    +0.000 C 
ATOM      7  C   UNL     1       2.845   3.162  19.504  0.00  0.00    +0.000 C 
ATOM      8  C   UNL     1       1.512   2.869  19.574  0.00  0.00    +0.000 C 
ATOM      9  C   UNL     1       0.842   1.582  19.152  0.00  0.00    +0.000 C 
ATOM     10  N   UNL     1       0.613   3.816  20.073  0.00  0.00    +0.000 N 
ATOM     11  H   UNL     1      -0.373   3.561  20.077  0.00  0.00    +0.000 HD
ENDROOT
BRANCH   6  12
ATOM     12  C   UNL     1       4.253   5.259  18.983  0.00  0.00    +0.000 A 
ATOM     13  C   UNL     1       3.767   5.730  17.739  0.00  0.00    +0.000 A 
ATOM     14  C   UNL     1       4.606   6.403  16.849  0.00  0.00    +0.000 A 
ATOM     15  C   UNL     1       5.911   6.620  17.231  0.00  0.00    +0.000 A 
ATOM     16  C   UNL     1       6.390   6.182  18.443  0.00  0.00    +0.000 A 
ATOM     17  C   UNL     1       5.593   5.496  19.333  0.00  0.00    +0.000 A 
ATOM     18  O   UNL     1       7.694   6.511  18.635  0.00  0.00    +0.000 OA
ATOM     19  C   UNL     1       7.954   7.281  17.443  0.00  0.00    +0.000 C 
ATOM     20  O   UNL     1       6.857   7.273  16.506  0.00  0.00    +0.000 OA
ENDBRANCH   6  12
BRANCH   1  24
ATOM     21  C   UNL     1       0.090  11.183  21.795  0.00  0.00    +0.000 A 
ATOM     22  C   UNL     1       0.753  10.875  20.608  0.00  0.00    +0.000 A 
ATOM     23  C   UNL     1       1.105   9.545  20.316  0.00  0.00    +0.000 A 
ATOM     24  C   UNL     1       0.787   8.505  21.200  0.00  0.00    +0.000 A 
ATOM     25  C   UNL     1       0.122   8.829  22.392  0.00  0.00    +0.000 A 
ATOM     26  C   UNL     1      -0.223  10.153  22.683  0.00  0.00    +0.000 A 
BRANCH  21  28
ATOM     27  C   UNL     1      -1.407  12.505  23.089  0.00  0.00    +0.000 C 
ATOM     28  O   UNL     1      -0.296  12.427  22.206  0.00  0.00    +0.000 OA
ENDBRANCH  21  28
ENDBRANCH   1  24
BRANCH   7  29
ATOM     29  C   UNL     1       3.841   2.199  18.933  0.00  0.00    +0.000 C 
ATOM     30  N   UNL     1       4.868   1.790  19.720  0.00  0.00    +0.000 N 
ATOM     31  O   UNL     1       3.810   1.799  17.773  0.00  0.00    +0.000 OA
ATOM     32  H   UNL     1       5.126   2.174  20.616  0.00  0.00    +0.000 HD
ATOM     33  H   UNL     1       5.574   1.232  19.252  0.00  0.00    +0.000 HD
ENDBRANCH   7  29
TORSDOF 4
ENDMDL
MODEL 5
REMARK VINA RESULT:      -7.2      4.151      9.630
REMARK  Name = 
REMARK  6 active torsions:
REMARK  status: ('A' for Active; 'I' for Inactive)
REMARK    1  A    between atoms: C_1  and  O_2
REMARK    2  A    between atoms: O_2  and  C_3
REMARK    3  A    between atoms: C_6  and  C_7
REMARK    4  A    between atoms: C_12  and  C_13
REMARK    5  A    between atoms: C_22  and  C_23
REMARK    6  A    between atoms: C_26  and  C_27
REMARK                            x       y       z     vdW  Elec       q    Type
REMARK                         _______ _______ _______ _____ _____    ______ ____
ROOT
ATOM      1  C   UNL     1       1.067   9.816  19.080  0.00  0.00    +0.000 A 
ATOM      2  N   UNL     1      -0.166   9.911  19.703  0.00  0.00    +0.000 NA
ATOM      3  C   UNL     1      -0.440  11.189  19.648  0.00  0.00    +0.000 A 
ATOM      4  N   UNL     1       0.571  11.843  19.017  0.00  0.00    +0.000 N 
ATOM      5  N   UNL     1       1.515  10.985  18.583  0.00  0.00    +0.000 NA
ATOM      6  C   UNL     1       0.617  13.297  18.822  0.00  0.00    +0.000 C 
ATOM      7  C   UNL     1      -0.549  14.023  19.500  0.00  0.00    +0.000 C 
ATOM      8  C   UNL     1      -1.535  13.301  20.109  0.00  0.00    +0.000 C 
ATOM      9  C   UNL     1      -2.748  13.845  20.827  0.00  0.00    +0.000 C 
ATOM     10  N   UNL     1      -1.478  11.903  20.114  0.00  0.00    +0.000 N 
ATOM     11  H   UNL     1      -2.221  11.411  20.606  0.00  0.00    +0.000 HD
ENDROOT
BRANCH   6  12
ATOM     12  C   UNL     1       2.005  13.798  19.219  0.00  0.00    +0.000 A 
ATOM     13  C   UNL     1       2.436  13.807  20.568  0.00  0.00    +0.000 A 
ATOM     14  C   UNL     1       3.711  14.259  20.912  0.00  0.00    +0.000 A 
ATOM     15  C   UNL     1       4.546  14.667  19.896  0.00  0.00    +0.000 A 
ATOM     16  C   UNL     1       4.146  14.646  18.580  0.00  0.00    +0.000 A 
ATOM     17  C   UNL     1       2.887  14.227  18.212  0.00  0.00    +0.000 A 
ATOM     18  O   UNL     1       5.121  15.070  17.734  0.00  0.00    +0.000 OA
ATOM     19  C   UNL     1       6.208  15.276  18.661  0.00  0.00    +0.000 C 
ATOM     20  O   UNL     1       5.822  15.114  20.041  0.00  0.00    +0.000 OA
ENDBRANCH   6  12
BRANCH   1  24
ATOM     21  C   UNL     1       3.300   6.159  18.810  0.00  0.00    +0.000 A 
ATOM     22  C   UNL     1       2.535   6.433  19.942  0.00  0.00    +0.000 A 
ATOM     23  C   UNL     1       1.805   7.632  20.034  0.00  0.00    +0.000 A 
ATOM     24  C   UNL     1       1.821   8.565  18.989  0.00  0.00    +0.000 A 
ATOM     25  C   UNL     1       2.597   8.279  17.856  0.00  0.00    +0.000 A 
ATOM     26  C   UNL     1       3.326   7.088  17.769  0.00  0.00    +0.000 A 
BRANCH  21  28
ATOM     27  C   UNL     1       5.392   5.063  19.098  0.00  0.00    +0.000 C 
ATOM     28  O   UNL     1       4.062   5.046  18.599  0.00  0.00    +0.000 OA
ENDBRANCH  21  28
ENDBRANCH   1  24
BRANCH   7  29
ATOM     29  C   UNL     1      -0.540  15.522  19.508  0.00  0.00    +0.000 C 
ATOM     30  N   UNL     1      -0.763  16.176  18.340  0.00  0.00    +0.000 N 
ATOM     31  O   UNL     1      -0.290  16.192  20.505  0.00  0.00    +0.000 OA
ATOM     32  H   UNL     1      -0.793  15.765  17.420  0.00  0.00    +0.000 HD
ATOM     33  H   UNL     1      -0.633  17.181  18.378  0.00  0.00    +0.000 HD
ENDBRANCH   7  29
TORSDOF 4
ENDMDL
MODEL 6
REMARK VINA RESULT:      -7.2      4.167      9.768
REMARK  Name = 
REMARK  6 active torsions:
REMARK  status: ('A' for Active; 'I' for Inactive)
REMARK    1  A    between atoms: C_1  and  O_2
REMARK    2  A    between atoms: O_2  and  C_3
REMARK    3  A    between atoms: C_6  and  C_7
REMARK    4  A    between atoms: C_12  and  C_13
REMARK    5  A    between atoms: C_22  and  C_23
REMARK    6  A    between atoms: C_26  and  C_27
REMARK                            x       y       z     vdW  Elec       q    Type
REMARK                         _______ _______ _______ _____ _____    ______ ____
ROOT
ATOM      1  C   UNL     1       1.073   9.824  19.065  0.00  0.00    +0.000 A 
ATOM      2  N   UNL     1      -0.183   9.898  19.645  0.00  0.00    +0.000 NA
ATOM      3  C   UNL     1      -0.460  11.175  19.613  0.00  0.00    +0.000 A 
ATOM      4  N   UNL     1       0.569  11.849  19.035  0.00  0.00    +0.000 N 
ATOM      5  N   UNL     1       1.533  11.007  18.614  0.00  0.00    +0.000 NA
ATOM      6  C   UNL     1       0.615  13.309  18.879  0.00  0.00    +0.000 C 
ATOM      7  C   UNL     1      -0.578  14.012  19.533  0.00  0.00    +0.000 C 
ATOM      8  C   UNL     1      -1.582  13.271  20.087  0.00  0.00    +0.000 C 
ATOM      9  C   UNL     1      -2.823  13.792  20.774  0.00  0.00    +0.000 C 
ATOM     10  N   UNL     1      -1.518  11.874  20.059  0.00  0.00    +0.000 N 
ATOM     11  H   UNL     1      -2.276  11.366  20.512  0.00  0.00    +0.000 HD
ENDROOT
BRANCH   6  12
ATOM     12  C   UNL     1       1.985  13.805  19.338  0.00  0.00    +0.000 A 
ATOM     13  C   UNL     1       2.878  14.454  18.451  0.00  0.00    +0.000 A 
ATOM     14  C   UNL     1       4.122  14.910  18.890  0.00  0.00    +0.000 A 
ATOM     15  C   UNL     1       4.441  14.735  20.218  0.00  0.00    +0.000 A 
ATOM     16  C   UNL     1       3.576  14.122  21.093  0.00  0.00    +0.000 A 
ATOM     17  C   UNL     1       2.350  13.642  20.685  0.00  0.00    +0.000 A 
ATOM     18  O   UNL     1       4.070  14.064  22.357  0.00  0.00    +0.000 OA
ATOM     19  C   UNL     1       5.307  14.789  22.194  0.00  0.00    +0.000 C 
ATOM     20  O   UNL     1       5.591  15.133  20.822  0.00  0.00    +0.000 OA
ENDBRANCH   6  12
BRANCH   1  24
ATOM     21  C   UNL     1       3.332   6.184  18.782  0.00  0.00    +0.000 A 
ATOM     22  C   UNL     1       2.557   6.444  19.911  0.00  0.00    +0.000 A 
ATOM     23  C   UNL     1       1.818   7.637  20.007  0.00  0.00    +0.000 A 
ATOM     24  C   UNL     1       1.835   8.579  18.970  0.00  0.00    +0.000 A 
ATOM     25  C   UNL     1       2.622   8.307  17.840  0.00  0.00    +0.000 A 
ATOM     26  C   UNL     1       3.359   7.122  17.749  0.00  0.00    +0.000 A 
BRANCH  21  28
ATOM     27  C   UNL     1       5.420   5.089  19.100  0.00  0.00    +0.000 C 
ATOM     28  O   UNL     1       4.103   5.078  18.568  0.00  0.00    +0.000 OA
ENDBRANCH  21  28
ENDBRANCH   1  24
BRANCH   7  29
ATOM     29  C   UNL     1      -0.578  15.510  19.579  0.00  0.00    +0.000 C 
ATOM     30  N   UNL     1      -0.734  16.193  18.417  0.00  0.00    +0.000 N 
ATOM     31  O   UNL     1      -0.390  16.156  20.606  0.00  0.00    +0.000 OA
ATOM     32  H   UNL     1      -0.708  15.806  17.486  0.00  0.00    +0.000 HD
ATOM     33  H   UNL     1      -0.611  17.197  18.488  0.00  0.00    +0.000 HD
ENDBRANCH   7  29
TORSDOF 4
ENDMDL
MODEL 7
REMARK VINA RESULT:      -7.1      3.658      9.179
REMARK  Name = 
REMARK  6 active torsions:
REMARK  status: ('A' for Active; 'I' for Inactive)
REMARK    1  A    between atoms: C_1  and  O_2
REMARK    2  A    between atoms: O_2  and  C_3
REMARK    3  A    between atoms: C_6  and  C_7
REMARK    4  A    between atoms: C_12  and  C_13
REMARK    5  A    between atoms: C_22  and  C_23
REMARK    6  A    between atoms: C_26  and  C_27
REMARK                            x       y       z     vdW  Elec       q    Type
REMARK                         _______ _______ _______ _____ _____    ______ ____
ROOT
ATOM      1  C   UNL     1       1.316   8.949  19.609  0.00  0.00    +0.000 A 
ATOM      2  N   UNL     1       0.515   8.793  20.729  0.00  0.00    +0.000 NA
ATOM      3  C   UNL     1      -0.025   9.973  20.886  0.00  0.00    +0.000 A 
ATOM      4  N   UNL     1       0.415  10.808  19.907  0.00  0.00    +0.000 N 
ATOM      5  N   UNL     1       1.219  10.164  19.038  0.00  0.00    +0.000 NA
ATOM      6  C   UNL     1       0.047  12.226  19.806  0.00  0.00    +0.000 C 
ATOM      7  C   UNL     1      -0.808  12.702  20.984  0.00  0.00    +0.000 C 
ATOM      8  C   UNL     1      -1.222  11.805  21.927  0.00  0.00    +0.000 C 
ATOM      9  C   UNL     1      -2.060  12.096  23.151  0.00  0.00    +0.000 C 
ATOM     10  N   UNL     1      -0.865  10.458  21.816  0.00  0.00    +0.000 N 
ATOM     11  H   UNL     1      -1.173   9.834  22.561  0.00  0.00    +0.000 HD
ENDROOT
BRANCH   6  12
ATOM     12  C   UNL     1       1.316  13.042  19.560  0.00  0.00    +0.000 A 
ATOM     13  C   UNL     1       1.584  13.642  18.305  0.00  0.00    +0.000 A 
ATOM     14  C   UNL     1       2.744  14.391  18.102  0.00  0.00    +0.000 A 
ATOM     15  C   UNL     1       3.602  14.554  19.166  0.00  0.00    +0.000 A 
ATOM     16  C   UNL     1       3.344  13.992  20.394  0.00  0.00    +0.000 A 
ATOM     17  C   UNL     1       2.220  13.228  20.620  0.00  0.00    +0.000 A 
ATOM     18  O   UNL     1       4.302  14.286  21.311  0.00  0.00    +0.000 OA
ATOM     19  C   UNL     1       5.146  15.168  20.544  0.00  0.00    +0.000 C 
ATOM     20  O   UNL     1       4.760  15.266  19.157  0.00  0.00    +0.000 OA
ENDBRANCH   6  12
BRANCH   1  24
ATOM     21  C   UNL     1       3.924   5.874  18.134  0.00  0.00    +0.000 A 
ATOM     22  C   UNL     1       3.229   5.693  19.329  0.00  0.00    +0.000 A 
ATOM     23  C   UNL     1       2.377   6.700  19.816  0.00  0.00    +0.000 A 
ATOM     24  C   UNL     1       2.198   7.895  19.107  0.00  0.00    +0.000 A 
ATOM     25  C   UNL     1       2.904   8.067  17.906  0.00  0.00    +0.000 A 
ATOM     26  C   UNL     1       3.756   7.065  17.428  0.00  0.00    +0.000 A 
BRANCH  21  28
ATOM     27  C   UNL     1       4.247   3.760  17.092  0.00  0.00    +0.000 C 
ATOM     28  O   UNL     1       4.789   4.987  17.559  0.00  0.00    +0.000 OA
ENDBRANCH  21  28
ENDBRANCH   1  24
BRANCH   7  29
ATOM     29  C   UNL     1      -1.125  14.164  21.083  0.00  0.00    +0.000 C 
ATOM     30  N   UNL     1      -1.970  14.705  20.170  0.00  0.00    +0.000 N 
ATOM     31  O   UNL     1      -0.619  14.912  21.914  0.00  0.00    +0.000 OA
ATOM     32  H   UNL     1      -2.307  14.262  19.329  0.00  0.00    +0.000 HD
ATOM     33  H   UNL     1      -2.060  15.714  20.211  0.00  0.00    +0.000 HD
ENDBRANCH   7  29
TORSDOF 4
ENDMDL
MODEL 8
REMARK VINA RESULT:      -7.0      2.380      4.791
REMARK  Name = 
REMARK  6 active torsions:
REMARK  status: ('A' for Active; 'I' for Inactive)
REMARK    1  A    between atoms: C_1  and  O_2
REMARK    2  A    between atoms: O_2  and  C_3
REMARK    3  A    between atoms: C_6  and  C_7
REMARK    4  A    between atoms: C_12  and  C_13
REMARK    5  A    between atoms: C_22  and  C_23
REMARK    6  A    between atoms: C_26  and  C_27
REMARK                            x       y       z     vdW  Elec       q    Type
REMARK                         _______ _______ _______ _____ _____    ______ ____
ROOT
ATOM      1  C   UNL     1       1.694   8.803  17.911  0.00  0.00    +0.000 A 
ATOM      2  N   UNL     1       2.988   9.295  17.870  0.00  0.00    +0.000 NA
ATOM      3  C   UNL     1       3.710   8.237  17.606  0.00  0.00    +0.000 A 
ATOM      4  N   UNL     1       2.899   7.153  17.484  0.00  0.00    +0.000 N 
ATOM      5  N   UNL     1       1.601   7.495  17.606  0.00  0.00    +0.000 NA
ATOM      6  C   UNL     1       3.379   5.787  17.235  0.00  0.00    +0.000 C 
ATOM      7  C   UNL     1       4.907   5.688  17.232  0.00  0.00    +0.000 C 
ATOM      8  C   UNL     1       5.661   6.821  17.350  0.00  0.00    +0.000 C 
ATOM      9  C   UNL     1       7.169   6.911  17.372  0.00  0.00    +0.000 C 
ATOM     10  N   UNL     1       5.037   8.067  17.476  0.00  0.00    +0.000 N 
ATOM     11  H   UNL     1       5.642   8.878  17.592  0.00  0.00    +0.000 HD
ENDROOT
BRANCH   6  12
ATOM     12  C   UNL     1       2.675   4.840  18.206  0.00  0.00    +0.000 A 
ATOM     13  C   UNL     1       1.785   3.836  17.752  0.00  0.00    +0.000 A 
ATOM     14  C   UNL     1       1.157   2.973  18.652  0.00  0.00    +0.000 A 
ATOM     15  C   UNL     1       1.454   3.108  19.989  0.00  0.00    +0.000 A 
ATOM     16  C   UNL     1       2.331   4.067  20.441  0.00  0.00    +0.000 A 
ATOM     17  C   UNL     1       2.948   4.948  19.580  0.00  0.00    +0.000 A 
ATOM     18  O   UNL     1       2.500   4.023  21.788  0.00  0.00    +0.000 OA
ATOM     19  C   UNL     1       1.698   2.870  22.121  0.00  0.00    +0.000 C 
ATOM     20  O   UNL     1       0.958   2.345  20.999  0.00  0.00    +0.000 OA
ENDBRANCH   6  12
BRANCH   1  24
ATOM     21  C   UNL     1      -1.709  11.196  18.971  0.00  0.00    +0.000 A 
ATOM     22  C   UNL     1      -0.553  11.236  19.748  0.00  0.00    +0.000 A 
ATOM     23  C   UNL     1       0.562  10.451  19.404  0.00  0.00    +0.000 A 
ATOM     24  C   UNL     1       0.539   9.626  18.272  0.00  0.00    +0.000 A 
ATOM     25  C   UNL     1      -0.632   9.591  17.499  0.00  0.00    +0.000 A 
ATOM     26  C   UNL     1      -1.741  10.370  17.847  0.00  0.00    +0.000 A 
BRANCH  21  28
ATOM     27  C   UNL     1      -3.980  11.587  18.378  0.00  0.00    +0.000 C 
ATOM     28  O   UNL     1      -2.861  11.893  19.198  0.00  0.00    +0.000 OA
ENDBRANCH  21  28
ENDBRANCH   1  24
BRANCH   7  29
ATOM     29  C   UNL     1       5.528   4.327  17.141  0.00  0.00    +0.000 C 
ATOM     30  N   UNL     1       6.090   3.797  18.257  0.00  0.00    +0.000 N 
ATOM     31  O   UNL     1       5.602   3.684  16.098  0.00  0.00    +0.000 OA
ATOM     32  H   UNL     1       6.270   4.280  19.123  0.00  0.00    +0.000 HD
ATOM     33  H   UNL     1       6.594   2.929  18.114  0.00  0.00    +0.000 HD
ENDBRANCH   7  29
TORSDOF 4
ENDMDL
MODEL 9
REMARK VINA RESULT:      -7.0      3.815      9.297
REMARK  Name = 
REMARK  6 active torsions:
REMARK  status: ('A' for Active; 'I' for Inactive)
REMARK    1  A    between atoms: C_1  and  O_2
REMARK    2  A    between atoms: O_2  and  C_3
REMARK    3  A    between atoms: C_6  and  C_7
REMARK    4  A    between atoms: C_12  and  C_13
REMARK    5  A    between atoms: C_22  and  C_23
REMARK    6  A    between atoms: C_26  and  C_27
REMARK                            x       y       z     vdW  Elec       q    Type
REMARK                         _______ _______ _______ _____ _____    ______ ____
ROOT
ATOM      1  C   UNL     1       1.176   9.179  19.721  0.00  0.00    +0.000 A 
ATOM      2  N   UNL     1       0.347   9.071  20.825  0.00  0.00    +0.000 NA
ATOM      3  C   UNL     1      -0.149  10.274  20.955  0.00  0.00    +0.000 A 
ATOM      4  N   UNL     1       0.344  11.076  19.975  0.00  0.00    +0.000 N 
ATOM      5  N   UNL     1       1.140  10.389  19.132  0.00  0.00    +0.000 NA
ATOM      6  C   UNL     1       0.035  12.506  19.846  0.00  0.00    +0.000 C 
ATOM      7  C   UNL     1      -0.824  13.032  21.000  0.00  0.00    +0.000 C 
ATOM      8  C   UNL     1      -1.294  12.166  21.946  0.00  0.00    +0.000 C 
ATOM      9  C   UNL     1      -2.144  12.507  23.147  0.00  0.00    +0.000 C 
ATOM     10  N   UNL     1      -0.988  10.804  21.861  0.00  0.00    +0.000 N 
ATOM     11  H   UNL     1      -1.336  10.204  22.607  0.00  0.00    +0.000 HD
ENDROOT
BRANCH   6  12
ATOM     12  C   UNL     1       1.340  13.268  19.617  0.00  0.00    +0.000 A 
ATOM     13  C   UNL     1       1.625  13.902  18.383  0.00  0.00    +0.000 A 
ATOM     14  C   UNL     1       2.818  14.601  18.194  0.00  0.00    +0.000 A 
ATOM     15  C   UNL     1       3.694  14.681  19.253  0.00  0.00    +0.000 A 
ATOM     16  C   UNL     1       3.421  14.084  20.462  0.00  0.00    +0.000 A 
ATOM     17  C   UNL     1       2.263  13.368  20.672  0.00  0.00    +0.000 A 
ATOM     18  O   UNL     1       4.402  14.295  21.378  0.00  0.00    +0.000 OA
ATOM     19  C   UNL     1       5.280  15.165  20.635  0.00  0.00    +0.000 C 
ATOM     20  O   UNL     1       4.885  15.335  19.257  0.00  0.00    +0.000 OA
ENDBRANCH   6  12
BRANCH   1  24
ATOM     21  C   UNL     1       3.649   5.951  18.343  0.00  0.00    +0.000 A 
ATOM     22  C   UNL     1       3.525   7.115  17.585  0.00  0.00    +0.000 A 
ATOM     23  C   UNL     1       2.713   8.171  18.033  0.00  0.00    +0.000 A 
ATOM     24  C   UNL     1       2.026   8.084  19.251  0.00  0.00    +0.000 A 
ATOM     25  C   UNL     1       2.156   6.907  20.004  0.00  0.00    +0.000 A 
ATOM     26  C   UNL     1       2.961   5.855  19.553  0.00  0.00    +0.000 A 
BRANCH  21  28
ATOM     27  C   UNL     1       5.537   4.582  18.812  0.00  0.00    +0.000 C 
ATOM     28  O   UNL     1       4.389   4.850  18.019  0.00  0.00    +0.000 OA
ENDBRANCH  21  28
ENDBRANCH   1  24
BRANCH   7  29
ATOM     29  C   UNL     1      -1.085  14.506  21.072  0.00  0.00    +0.000 C 
ATOM     30  N   UNL     1      -1.926  15.060  20.162  0.00  0.00    +0.000 N 
ATOM     31  O   UNL     1      -0.538  15.252  21.879  0.00  0.00    +0.000 OA
ATOM     32  H   UNL     1      -2.293  14.612  19.336  0.00  0.00    +0.000 HD
ATOM     33  H   UNL     1      -1.977  16.072  20.183  0.00  0.00    +0.000 HD
ENDBRANCH   7  29
TORSDOF 4
ENDMDL
