MODEL 1
REMARK VINA RESULT:      -8.3      0.000      0.000
REMARK  Name = 
REMARK  3 active torsions:
REMARK  status: ('A' for Active; 'I' for Inactive)
REMARK    1  A    between atoms: C_2  and  C_12
REMARK    2  A    between atoms: N_3  and  C_4
REMARK    3  A    between atoms: N_14  and  C_15
REMARK                            x       y       z     vdW  Elec       q    Type
REMARK                         _______ _______ _______ _____ _____    ______ ____
ROOT
ATOM      1  C   UNL     1       2.625   5.509  19.647  0.00  0.00    +0.000 A 
ATOM      2  N   UNL     1       3.805   6.021  19.454  0.00  0.00    +0.000 NA
ATOM      3  N   UNL     1       4.698   5.361  18.627  0.00  0.00    +0.000 N 
ATOM      4  C   UNL     1       4.412   4.144  17.993  0.00  0.00    +0.000 A 
ATOM      5  O   UNL     1       5.145   3.531  17.219  0.00  0.00    +0.000 OA
ATOM      6  C   UNL     1       3.125   3.514  18.332  0.00  0.00    +0.000 A 
ATOM      7  C   UNL     1       2.835   2.228  17.846  0.00  0.00    +0.000 A 
ATOM      8  C   UNL     1       1.625   1.614  18.161  0.00  0.00    +0.000 A 
ATOM      9  C   UNL     1       0.700   2.288  18.950  0.00  0.00    +0.000 A 
ATOM     10  C   UNL     1       0.993   3.565  19.443  0.00  0.00    +0.000 A 
ATOM     11  C   UNL     1       2.214   4.183  19.137  0.00  0.00    +0.000 A 
ENDROOT
BRANCH   3  12
ATOM     12  C   UNL     1       5.910   6.085  18.388  0.00  0.00    +0.000 A 
ATOM     13  C   UNL     1       7.077   5.840  19.127  0.00  0.00    +0.000 A 
ATOM     14  C   UNL     1       8.253   6.558  18.890  0.00  0.00    +0.000 A 
ATOM     15  C   UNL     1       8.277   7.550  17.916  0.00  0.00    +0.000 A 
ATOM     16  C   UNL     1       7.133   7.810  17.168  0.00  0.00    +0.000 A 
ATOM     17  C   UNL     1       5.964   7.073  17.390  0.00  0.00    +0.000 A 
ENDBRANCH   3  12
BRANCH   1  19
ATOM     18  O   UNL     1       0.740   5.809  21.051  0.00  0.00    +0.000 OA
ATOM     19  C   UNL     1       1.632   6.368  20.426  0.00  0.00    +0.000 C 
ATOM     20  N   UNL     1       1.804   7.732  20.282  0.00  0.00    +0.000 N 
ATOM     21  H   UNL     1       2.408   8.037  19.521  0.00  0.00    +0.000 HD
BRANCH  20  22
ATOM     22  C   UNL     1       1.050   8.720  20.960  0.00  0.00    +0.000 A 
ATOM     23  C   UNL     1       1.002   8.810  22.357  0.00  0.00    +0.000 A 
ATOM     24  C   UNL     1       0.235   9.798  22.983  0.00  0.00    +0.000 A 
ATOM     25  C   UNL     1      -0.483  10.710  22.217  0.00  0.00    +0.000 A 
ATOM     26 CL   UNL     1      -1.422  11.920  22.999  0.00  0.00    +0.000 Cl
ATOM     27  C   UNL     1      -0.440  10.648  20.828  0.00  0.00    +0.000 A 
ATOM     28  C   UNL     1       0.334   9.663  20.213  0.00  0.00    +0.000 A 
ATOM     29  F   UNL     1       0.362   9.610  18.873  0.00  0.00    +0.000 F 
ENDBRANCH  20  22
ENDBRANCH   1  19
TORSDOF 3
ENDMDL
MODEL 2
REMARK VINA RESULT:      -8.2      2.279      2.779
REMARK  Name = 
REMARK  3 active torsions:
REMARK  status: ('A' for Active; 'I' for Inactive)
REMARK    1  A    between atoms: C_2  and  C_12
REMARK    2  A    between atoms: N_3  and  C_4
REMARK    3  A    between atoms: N_14  and  C_15
REMARK                            x       y       z     vdW  Elec       q    Type
REMARK                         _______ _______ _______ _____ _____    ______ ____
ROOT
ATOM      1  C   UNL     1       2.989   6.109  18.290  0.00  0.00    +0.000 A 
ATOM      2  N   UNL     1       3.939   5.972  17.411  0.00  0.00    +0.000 NA
ATOM      3  N   UNL     1       4.386   4.701  17.096  0.00  0.00    +0.000 N 
ATOM      4  C   UNL     1       3.886   3.534  17.691  0.00  0.00    +0.000 A 
ATOM      5  O   UNL     1       4.212   2.378  17.427  0.00  0.00    +0.000 OA
ATOM      6  C   UNL     1       2.911   3.719  18.779  0.00  0.00    +0.000 A 
ATOM      7  C   UNL     1       2.477   2.604  19.516  0.00  0.00    +0.000 A 
ATOM      8  C   UNL     1       1.558   2.760  20.551  0.00  0.00    +0.000 A 
ATOM      9  C   UNL     1       1.065   4.026  20.844  0.00  0.00    +0.000 A 
ATOM     10  C   UNL     1       1.505   5.138  20.118  0.00  0.00    +0.000 A 
ATOM     11  C   UNL     1       2.437   4.987  19.080  0.00  0.00    +0.000 A 
ENDROOT
BRANCH   3  12
ATOM     12  C   UNL     1       5.335   4.670  16.025  0.00  0.00    +0.000 A 
ATOM     13  C   UNL     1       6.629   5.195  16.167  0.00  0.00    +0.000 A 
ATOM     14  C   UNL     1       7.546   5.166  15.112  0.00  0.00    +0.000 A 
ATOM     15  C   UNL     1       7.179   4.623  13.886  0.00  0.00    +0.000 A 
ATOM     16  C   UNL     1       5.902   4.093  13.721  0.00  0.00    +0.000 A 
ATOM     17  C   UNL     1       4.994   4.101  14.786  0.00  0.00    +0.000 A 
ENDBRANCH   3  12
BRANCH   1  19
ATOM     18  O   UNL     1       2.593   8.329  17.565  0.00  0.00    +0.000 OA
ATOM     19  C   UNL     1       2.424   7.516  18.464  0.00  0.00    +0.000 C 
ATOM     20  N   UNL     1       1.823   7.756  19.686  0.00  0.00    +0.000 N 
ATOM     21  H   UNL     1       2.002   7.075  20.422  0.00  0.00    +0.000 HD
BRANCH  20  22
ATOM     22  C   UNL     1       1.170   8.959  20.045  0.00  0.00    +0.000 A 
ATOM     23  C   UNL     1       0.676   9.865  19.098  0.00  0.00    +0.000 A 
ATOM     24  C   UNL     1       0.046  11.048  19.501  0.00  0.00    +0.000 A 
ATOM     25  C   UNL     1      -0.104  11.328  20.856  0.00  0.00    +0.000 A 
ATOM     26 CL   UNL     1      -0.880  12.785  21.338  0.00  0.00    +0.000 Cl
ATOM     27  C   UNL     1       0.368  10.437  21.814  0.00  0.00    +0.000 A 
ATOM     28  C   UNL     1       0.988   9.258  21.401  0.00  0.00    +0.000 A 
ATOM     29  F   UNL     1       1.444   8.409  22.335  0.00  0.00    +0.000 F 
ENDBRANCH  20  22
ENDBRANCH   1  19
TORSDOF 3
ENDMDL
MODEL 3
REMARK VINA RESULT:      -8.0      4.398      8.060
REMARK  Name = 
REMARK  3 active torsions:
REMARK  status: ('A' for Active; 'I' for Inactive)
REMARK    1  A    between atoms: C_2  and  C_12
REMARK    2  A    between atoms: N_3  and  C_4
REMARK    3  A    between atoms: N_14  and  C_15
REMARK                            x       y       z     vdW  Elec       q    Type
REMARK                         _______ _______ _______ _____ _____    ______ ____
ROOT
ATOM      1  C   UNL     1       1.193  10.451  19.376  0.00  0.00    +0.000 A 
ATOM      2  N   UNL     1       1.519  11.597  18.852  0.00  0.00    +0.000 NA
ATOM      3  N   UNL     1       1.307  12.754  19.582  0.00  0.00    +0.000 N 
ATOM      4  C   UNL     1       0.734  12.770  20.860  0.00  0.00    +0.000 A 
ATOM      5  O   UNL     1       0.557  13.756  21.573  0.00  0.00    +0.000 OA
ATOM      6  C   UNL     1       0.248  11.479  21.377  0.00  0.00    +0.000 A 
ATOM      7  C   UNL     1      -0.465  11.443  22.587  0.00  0.00    +0.000 A 
ATOM      8  C   UNL     1      -0.937  10.232  23.089  0.00  0.00    +0.000 A 
ATOM      9  C   UNL     1      -0.687   9.057  22.390  0.00  0.00    +0.000 A 
ATOM     10  C   UNL     1       0.014   9.094  21.179  0.00  0.00    +0.000 A 
ATOM     11  C   UNL     1       0.483  10.312  20.665  0.00  0.00    +0.000 A 
ENDROOT
BRANCH   3  12
ATOM     12  C   UNL     1       1.825  13.934  18.958  0.00  0.00    +0.000 A 
ATOM     13  C   UNL     1       3.102  13.964  18.375  0.00  0.00    +0.000 A 
ATOM     14  C   UNL     1       3.599  15.124  17.774  0.00  0.00    +0.000 A 
ATOM     15  C   UNL     1       2.834  16.284  17.761  0.00  0.00    +0.000 A 
ATOM     16  C   UNL     1       1.564  16.279  18.330  0.00  0.00    +0.000 A 
ATOM     17  C   UNL     1       1.057  15.110  18.909  0.00  0.00    +0.000 A 
ENDBRANCH   3  12
BRANCH   1  19
ATOM     18  O   UNL     1       1.401   9.175  17.390  0.00  0.00    +0.000 OA
ATOM     19  C   UNL     1       1.610   9.206  18.596  0.00  0.00    +0.000 C 
ATOM     20  N   UNL     1       2.132   8.184  19.366  0.00  0.00    +0.000 N 
ATOM     21  H   UNL     1       1.988   8.254  20.372  0.00  0.00    +0.000 HD
BRANCH  20  22
ATOM     22  C   UNL     1       2.647   6.968  18.857  0.00  0.00    +0.000 A 
ATOM     23  C   UNL     1       3.550   6.917  17.787  0.00  0.00    +0.000 A 
ATOM     24  C   UNL     1       4.026   5.691  17.311  0.00  0.00    +0.000 A 
ATOM     25  C   UNL     1       3.609   4.505  17.908  0.00  0.00    +0.000 A 
ATOM     26 CL   UNL     1       4.202   3.003  17.314  0.00  0.00    +0.000 Cl
ATOM     27  C   UNL     1       2.723   4.532  18.980  0.00  0.00    +0.000 A 
ATOM     28  C   UNL     1       2.260   5.761  19.451  0.00  0.00    +0.000 A 
ATOM     29  F   UNL     1       1.401   5.773  20.482  0.00  0.00    +0.000 F 
ENDBRANCH  20  22
ENDBRANCH   1  19
TORSDOF 3
ENDMDL
MODEL 4
REMARK VINA RESULT:      -7.8      4.589      9.776
REMARK  Name = 
REMARK  3 active torsions:
REMARK  status: ('A' for Active; 'I' for Inactive)
REMARK    1  A    between atoms: C_2  and  C_12
REMARK    2  A    between atoms: N_3  and  C_4
REMARK    3  A    between atoms: N_14  and  C_15
REMARK                            x       y       z     vdW  Elec       q    Type
REMARK                         _______ _______ _______ _____ _____    ______ ____
ROOT
ATOM      1  C   UNL     1       0.035  11.536  19.184  0.00  0.00    +0.000 A 
ATOM      2  N   UNL     1      -1.094  11.606  19.826  0.00  0.00    +0.000 NA
ATOM      3  N   UNL     1      -1.600  12.850  20.163  0.00  0.00    +0.000 N 
ATOM      4  C   UNL     1      -0.949  14.057  19.870  0.00  0.00    +0.000 A 
ATOM      5  O   UNL     1      -1.364  15.190  20.106  0.00  0.00    +0.000 OA
ATOM      6  C   UNL     1       0.390  13.950  19.267  0.00  0.00    +0.000 A 
ATOM      7  C   UNL     1       1.159  15.111  19.078  0.00  0.00    +0.000 A 
ATOM      8  C   UNL     1       2.429  15.028  18.513  0.00  0.00    +0.000 A 
ATOM      9  C   UNL     1       2.927  13.790  18.126  0.00  0.00    +0.000 A 
ATOM     10  C   UNL     1       2.167  12.632  18.322  0.00  0.00    +0.000 A 
ATOM     11  C   UNL     1       0.890  12.709  18.900  0.00  0.00    +0.000 A 
ENDROOT
BRANCH   3  12
ATOM     12  C   UNL     1      -2.907  12.805  20.747  0.00  0.00    +0.000 A 
ATOM     13  C   UNL     1      -3.103  12.916  22.132  0.00  0.00    +0.000 A 
ATOM     14  C   UNL     1      -4.383  12.864  22.692  0.00  0.00    +0.000 A 
ATOM     15  C   UNL     1      -5.492  12.682  21.875  0.00  0.00    +0.000 A 
ATOM     16  C   UNL     1      -5.324  12.573  20.497  0.00  0.00    +0.000 A 
ATOM     17  C   UNL     1      -4.044  12.650  19.936  0.00  0.00    +0.000 A 
ENDBRANCH   3  12
BRANCH   1  19
ATOM     18  O   UNL     1      -0.134   9.676  17.726  0.00  0.00    +0.000 OA
ATOM     19  C   UNL     1       0.450  10.152  18.691  0.00  0.00    +0.000 C 
ATOM     20  N   UNL     1       1.423   9.530  19.452  0.00  0.00    +0.000 N 
ATOM     21  H   UNL     1       1.610   9.933  20.368  0.00  0.00    +0.000 HD
BRANCH  20  22
ATOM     22  C   UNL     1       2.011   8.279  19.149  0.00  0.00    +0.000 A 
ATOM     23  C   UNL     1       2.737   8.048  17.974  0.00  0.00    +0.000 A 
ATOM     24  C   UNL     1       3.293   6.790  17.712  0.00  0.00    +0.000 A 
ATOM     25  C   UNL     1       3.134   5.757  18.630  0.00  0.00    +0.000 A 
ATOM     26 CL   UNL     1       3.822   4.216  18.297  0.00  0.00    +0.000 Cl
ATOM     27  C   UNL     1       2.428   5.967  19.809  0.00  0.00    +0.000 A 
ATOM     28  C   UNL     1       1.884   7.226  20.063  0.00  0.00    +0.000 A 
ATOM     29  F   UNL     1       1.199   7.415  21.202  0.00  0.00    +0.000 F 
ENDBRANCH  20  22
ENDBRANCH   1  19
TORSDOF 3
ENDMDL
MODEL 5
REMARK VINA RESULT:      -7.8      2.223      2.699
REMARK  Name = 
REMARK  3 active torsions:
REMARK  status: ('A' for Active; 'I' for Inactive)
REMARK    1  A    between atoms: C_2  and  C_12
REMARK    2  A    between atoms: N_3  and  C_4
REMARK    3  A    between atoms: N_14  and  C_15
REMARK                            x       y       z     vdW  Elec       q    Type
REMARK                         _______ _______ _______ _____ _____    ______ ____
ROOT
ATOM      1  C   UNL     1       3.085   6.187  18.337  0.00  0.00    +0.000 A 
ATOM      2  N   UNL     1       4.005   6.021  17.432  0.00  0.00    +0.000 NA
ATOM      3  N   UNL     1       4.361   4.734  17.065  0.00  0.00    +0.000 N 
ATOM      4  C   UNL     1       3.801   3.582  17.634  0.00  0.00    +0.000 A 
ATOM      5  O   UNL     1       4.045   2.418  17.324  0.00  0.00    +0.000 OA
ATOM      6  C   UNL     1       2.863   3.792  18.750  0.00  0.00    +0.000 A 
ATOM      7  C   UNL     1       2.373   2.683  19.460  0.00  0.00    +0.000 A 
ATOM      8  C   UNL     1       1.489   2.862  20.522  0.00  0.00    +0.000 A 
ATOM      9  C   UNL     1       1.085   4.146  20.867  0.00  0.00    +0.000 A 
ATOM     10  C   UNL     1       1.581   5.252  20.167  0.00  0.00    +0.000 A 
ATOM     11  C   UNL     1       2.479   5.077  19.103  0.00  0.00    +0.000 A 
ENDROOT
BRANCH   3  12
ATOM     12  C   UNL     1       5.284   4.679  15.972  0.00  0.00    +0.000 A 
ATOM     13  C   UNL     1       4.923   4.145  14.725  0.00  0.00    +0.000 A 
ATOM     14  C   UNL     1       5.834   4.091  13.666  0.00  0.00    +0.000 A 
ATOM     15  C   UNL     1       7.133   4.556  13.841  0.00  0.00    +0.000 A 
ATOM     16  C   UNL     1       7.514   5.093  15.067  0.00  0.00    +0.000 A 
ATOM     17  C   UNL     1       6.593   5.169  16.118  0.00  0.00    +0.000 A 
ENDBRANCH   3  12
BRANCH   1  19
ATOM     18  O   UNL     1       3.125   8.518  17.910  0.00  0.00    +0.000 OA
ATOM     19  C   UNL     1       2.616   7.622  18.571  0.00  0.00    +0.000 C 
ATOM     20  N   UNL     1       1.687   7.773  19.584  0.00  0.00    +0.000 N 
ATOM     21  H   UNL     1       1.570   6.983  20.215  0.00  0.00    +0.000 HD
BRANCH  20  22
ATOM     22  C   UNL     1       1.060   8.994  19.932  0.00  0.00    +0.000 A 
ATOM     23  C   UNL     1       1.106   9.526  21.226  0.00  0.00    +0.000 A 
ATOM     24  C   UNL     1       0.462  10.732  21.526  0.00  0.00    +0.000 A 
ATOM     25  C   UNL     1      -0.224  11.420  20.530  0.00  0.00    +0.000 A 
ATOM     26 CL   UNL     1      -1.010  12.901  20.911  0.00  0.00    +0.000 Cl
ATOM     27  C   UNL     1      -0.272  10.916  19.234  0.00  0.00    +0.000 A 
ATOM     28  C   UNL     1       0.379   9.716  18.945  0.00  0.00    +0.000 A 
ATOM     29  F   UNL     1       0.320   9.238  17.692  0.00  0.00    +0.000 F 
ENDBRANCH  20  22
ENDBRANCH   1  19
TORSDOF 3
ENDMDL
MODEL 6
REMARK VINA RESULT:      -7.7      2.432      3.041
REMARK  Name = 
REMARK  3 active torsions:
REMARK  status: ('A' for Active; 'I' for Inactive)
REMARK    1  A    between atoms: C_2  and  C_12
REMARK    2  A    between atoms: N_3  and  C_4
REMARK    3  A    between atoms: N_14  and  C_15
REMARK                            x       y       z     vdW  Elec       q    Type
REMARK                         _______ _______ _______ _____ _____    ______ ____
ROOT
ATOM      1  C   UNL     1       2.916   6.042  18.817  0.00  0.00    +0.000 A 
ATOM      2  N   UNL     1       3.864   5.995  17.928  0.00  0.00    +0.000 NA
ATOM      3  N   UNL     1       4.251   4.766  17.422  0.00  0.00    +0.000 N 
ATOM      4  C   UNL     1       3.691   3.548  17.833  0.00  0.00    +0.000 A 
ATOM      5  O   UNL     1       3.962   2.431  17.395  0.00  0.00    +0.000 OA
ATOM      6  C   UNL     1       2.717   3.613  18.936  0.00  0.00    +0.000 A 
ATOM      7  C   UNL     1       2.223   2.421  19.494  0.00  0.00    +0.000 A 
ATOM      8  C   UNL     1       1.306   2.463  20.541  0.00  0.00    +0.000 A 
ATOM      9  C   UNL     1       0.873   3.692  21.023  0.00  0.00    +0.000 A 
ATOM     10  C   UNL     1       1.372   4.879  20.475  0.00  0.00    +0.000 A 
ATOM     11  C   UNL     1       2.304   4.843  19.427  0.00  0.00    +0.000 A 
ENDROOT
BRANCH   3  12
ATOM     12  C   UNL     1       5.206   4.852  16.359  0.00  0.00    +0.000 A 
ATOM     13  C   UNL     1       4.881   4.495  15.041  0.00  0.00    +0.000 A 
ATOM     14  C   UNL     1       5.824   4.577  14.012  0.00  0.00    +0.000 A 
ATOM     15  C   UNL     1       7.119   5.002  14.287  0.00  0.00    +0.000 A 
ATOM     16  C   UNL     1       7.464   5.365  15.586  0.00  0.00    +0.000 A 
ATOM     17  C   UNL     1       6.512   5.306  16.610  0.00  0.00    +0.000 A 
ENDBRANCH   3  12
BRANCH   1  19
ATOM     18  O   UNL     1       2.219   7.674  20.388  0.00  0.00    +0.000 OA
ATOM     19  C   UNL     1       2.418   7.434  19.204  0.00  0.00    +0.000 C 
ATOM     20  N   UNL     1       2.169   8.280  18.140  0.00  0.00    +0.000 N 
ATOM     21  H   UNL     1       2.121   7.850  17.218  0.00  0.00    +0.000 HD
BRANCH  20  22
ATOM     22  C   UNL     1       1.770   9.633  18.257  0.00  0.00    +0.000 A 
ATOM     23  C   UNL     1       2.604  10.702  17.905  0.00  0.00    +0.000 A 
ATOM     24  C   UNL     1       2.170  12.024  18.048  0.00  0.00    +0.000 A 
ATOM     25  C   UNL     1       0.894  12.288  18.535  0.00  0.00    +0.000 A 
ATOM     26 CL   UNL     1       0.371  13.918  18.705  0.00  0.00    +0.000 Cl
ATOM     27  C   UNL     1       0.044  11.242  18.879  0.00  0.00    +0.000 A 
ATOM     28  C   UNL     1       0.484   9.927  18.726  0.00  0.00    +0.000 A 
ATOM     29  F   UNL     1      -0.343   8.927  19.067  0.00  0.00    +0.000 F 
ENDBRANCH  20  22
ENDBRANCH   1  19
TORSDOF 3
ENDMDL
MODEL 7
REMARK VINA RESULT:      -7.7      4.535      7.802
REMARK  Name = 
REMARK  3 active torsions:
REMARK  status: ('A' for Active; 'I' for Inactive)
REMARK    1  A    between atoms: C_2  and  C_12
REMARK    2  A    between atoms: N_3  and  C_4
REMARK    3  A    between atoms: N_14  and  C_15
REMARK                            x       y       z     vdW  Elec       q    Type
REMARK                         _______ _______ _______ _____ _____    ______ ____
ROOT
ATOM      1  C   UNL     1       1.277  10.444  18.375  0.00  0.00    +0.000 A 
ATOM      2  N   UNL     1       2.108  11.400  18.670  0.00  0.00    +0.000 NA
ATOM      3  N   UNL     1       1.607  12.640  19.026  0.00  0.00    +0.000 N 
ATOM      4  C   UNL     1       0.238  12.940  19.065  0.00  0.00    +0.000 A 
ATOM      5  O   UNL     1      -0.269  14.006  19.411  0.00  0.00    +0.000 OA
ATOM      6  C   UNL     1      -0.678  11.887  18.597  0.00  0.00    +0.000 A 
ATOM      7  C   UNL     1      -2.050  12.168  18.474  0.00  0.00    +0.000 A 
ATOM      8  C   UNL     1      -2.931  11.185  18.028  0.00  0.00    +0.000 A 
ATOM      9  C   UNL     1      -2.445   9.921  17.715  0.00  0.00    +0.000 A 
ATOM     10  C   UNL     1      -1.078   9.644  17.827  0.00  0.00    +0.000 A 
ATOM     11  C   UNL     1      -0.185  10.633  18.267  0.00  0.00    +0.000 A 
ENDROOT
BRANCH   3  12
ATOM     12  C   UNL     1       2.609  13.568  19.455  0.00  0.00    +0.000 A 
ATOM     13  C   UNL     1       3.342  14.342  18.542  0.00  0.00    +0.000 A 
ATOM     14  C   UNL     1       4.323  15.240  18.972  0.00  0.00    +0.000 A 
ATOM     15  C   UNL     1       4.601  15.369  20.328  0.00  0.00    +0.000 A 
ATOM     16  C   UNL     1       3.885  14.615  21.254  0.00  0.00    +0.000 A 
ATOM     17  C   UNL     1       2.887  13.735  20.823  0.00  0.00    +0.000 A 
ENDBRANCH   3  12
BRANCH   1  19
ATOM     18  O   UNL     1       2.245   8.746  17.034  0.00  0.00    +0.000 OA
ATOM     19  C   UNL     1       1.885   9.059  18.161  0.00  0.00    +0.000 C 
ATOM     20  N   UNL     1       1.902   8.251  19.283  0.00  0.00    +0.000 N 
ATOM     21  H   UNL     1       1.325   8.549  20.067  0.00  0.00    +0.000 HD
BRANCH  20  22
ATOM     22  C   UNL     1       2.477   6.959  19.342  0.00  0.00    +0.000 A 
ATOM     23  C   UNL     1       3.533   6.561  18.512  0.00  0.00    +0.000 A 
ATOM     24  C   UNL     1       4.064   5.270  18.599  0.00  0.00    +0.000 A 
ATOM     25  C   UNL     1       3.548   4.368  19.525  0.00  0.00    +0.000 A 
ATOM     26 CL   UNL     1       4.209   2.783  19.623  0.00  0.00    +0.000 Cl
ATOM     27  C   UNL     1       2.508   4.745  20.369  0.00  0.00    +0.000 A 
ATOM     28  C   UNL     1       1.992   6.038  20.277  0.00  0.00    +0.000 A 
ATOM     29  F   UNL     1       0.985   6.388  21.093  0.00  0.00    +0.000 F 
ENDBRANCH  20  22
ENDBRANCH   1  19
TORSDOF 3
ENDMDL
MODEL 8
REMARK VINA RESULT:      -7.7      4.854     10.547
REMARK  Name = 
REMARK  3 active torsions:
REMARK  status: ('A' for Active; 'I' for Inactive)
REMARK    1  A    between atoms: C_2  and  C_12
REMARK    2  A    between atoms: N_3  and  C_4
REMARK    3  A    between atoms: N_14  and  C_15
REMARK                            x       y       z     vdW  Elec       q    Type
REMARK                         _______ _______ _______ _____ _____    ______ ____
ROOT
ATOM      1  C   UNL     1      -1.047  12.234  20.273  0.00  0.00    +0.000 A 
ATOM      2  N   UNL     1      -1.998  12.114  21.153  0.00  0.00    +0.000 NA
ATOM      3  N   UNL     1      -2.569  13.258  21.685  0.00  0.00    +0.000 N 
ATOM      4  C   UNL     1      -2.164  14.556  21.345  0.00  0.00    +0.000 A 
ATOM      5  O   UNL     1      -2.656  15.607  21.751  0.00  0.00    +0.000 OA
ATOM      6  C   UNL     1      -0.998  14.667  20.453  0.00  0.00    +0.000 A 
ATOM      7  C   UNL     1      -0.449  15.933  20.186  0.00  0.00    +0.000 A 
ATOM      8  C   UNL     1       0.657  16.057  19.348  0.00  0.00    +0.000 A 
ATOM      9  C   UNL     1       1.208  14.920  18.769  0.00  0.00    +0.000 A 
ATOM     10  C   UNL     1       0.669  13.658  19.043  0.00  0.00    +0.000 A 
ATOM     11  C   UNL     1      -0.439  13.527  19.894  0.00  0.00    +0.000 A 
ENDROOT
BRANCH   3  12
ATOM     12  C   UNL     1      -3.689  13.001  22.539  0.00  0.00    +0.000 A 
ATOM     13  C   UNL     1      -5.011  13.107  22.079  0.00  0.00    +0.000 A 
ATOM     14  C   UNL     1      -6.097  12.861  22.924  0.00  0.00    +0.000 A 
ATOM     15  C   UNL     1      -5.880  12.520  24.254  0.00  0.00    +0.000 A 
ATOM     16  C   UNL     1      -4.578  12.405  24.733  0.00  0.00    +0.000 A 
ATOM     17  C   UNL     1      -3.492  12.628  23.879  0.00  0.00    +0.000 A 
ENDBRANCH   3  12
BRANCH   1  19
ATOM     18  O   UNL     1      -1.312  10.424  18.765  0.00  0.00    +0.000 OA
ATOM     19  C   UNL     1      -0.582  10.945  19.599  0.00  0.00    +0.000 C 
ATOM     20  N   UNL     1       0.620  10.445  20.065  0.00  0.00    +0.000 N 
ATOM     21  H   UNL     1       0.967  10.836  20.939  0.00  0.00    +0.000 HD
BRANCH  20  22
ATOM     22  C   UNL     1       1.280   9.306  19.544  0.00  0.00    +0.000 A 
ATOM     23  C   UNL     1       1.725   9.229  18.219  0.00  0.00    +0.000 A 
ATOM     24  C   UNL     1       2.365   8.078  17.746  0.00  0.00    +0.000 A 
ATOM     25  C   UNL     1       2.573   6.998  18.598  0.00  0.00    +0.000 A 
ATOM     26 CL   UNL     1       3.361   5.589  18.005  0.00  0.00    +0.000 Cl
ATOM     27  C   UNL     1       2.151   7.058  19.922  0.00  0.00    +0.000 A 
ATOM     28  C   UNL     1       1.520   8.213  20.385  0.00  0.00    +0.000 A 
ATOM     29  F   UNL     1       1.112   8.256  21.663  0.00  0.00    +0.000 F 
ENDBRANCH  20  22
ENDBRANCH   1  19
TORSDOF 3
ENDMDL
MODEL 9
REMARK VINA RESULT:      -7.6      4.684     10.281
REMARK  Name = 
REMARK  3 active torsions:
REMARK  status: ('A' for Active; 'I' for Inactive)
REMARK    1  A    between atoms: C_2  and  C_12
REMARK    2  A    between atoms: N_3  and  C_4
REMARK    3  A    between atoms: N_14  and  C_15
REMARK                            x       y       z     vdW  Elec       q    Type
REMARK                         _______ _______ _______ _____ _____    ______ ____
ROOT
ATOM      1  C   UNL     1      -0.814  11.976  20.188  0.00  0.00    +0.000 A 
ATOM      2  N   UNL     1      -1.770  11.942  21.071  0.00  0.00    +0.000 NA
ATOM      3  N   UNL     1      -2.312  13.134  21.520  0.00  0.00    +0.000 N 
ATOM      4  C   UNL     1      -1.873  14.395  21.094  0.00  0.00    +0.000 A 
ATOM      5  O   UNL     1      -2.338  15.484  21.424  0.00  0.00    +0.000 OA
ATOM      6  C   UNL     1      -0.702  14.414  20.201  0.00  0.00    +0.000 A 
ATOM      7  C   UNL     1      -0.120  15.643  19.849  0.00  0.00    +0.000 A 
ATOM      8  C   UNL     1       0.991  15.681  19.009  0.00  0.00    +0.000 A 
ATOM      9  C   UNL     1       1.513  14.493  18.512  0.00  0.00    +0.000 A 
ATOM     10  C   UNL     1       0.941  13.267  18.870  0.00  0.00    +0.000 A 
ATOM     11  C   UNL     1      -0.172  13.224  19.723  0.00  0.00    +0.000 A 
ENDROOT
BRANCH   3  12
ATOM     12  C   UNL     1      -3.441  12.966  22.386  0.00  0.00    +0.000 A 
ATOM     13  C   UNL     1      -4.756  13.143  21.929  0.00  0.00    +0.000 A 
ATOM     14  C   UNL     1      -5.850  12.983  22.785  0.00  0.00    +0.000 A 
ATOM     15  C   UNL     1      -5.646  12.659  24.122  0.00  0.00    +0.000 A 
ATOM     16  C   UNL     1      -4.351  12.475  24.597  0.00  0.00    +0.000 A 
ATOM     17  C   UNL     1      -3.258  12.611  23.733  0.00  0.00    +0.000 A 
ENDBRANCH   3  12
BRANCH   1  19
ATOM     18  O   UNL     1      -1.143  10.052  18.844  0.00  0.00    +0.000 OA
ATOM     19  C   UNL     1      -0.381  10.632  19.607  0.00  0.00    +0.000 C 
ATOM     20  N   UNL     1       0.832  10.160  20.071  0.00  0.00    +0.000 N 
ATOM     21  H   UNL     1       1.211  10.617  20.898  0.00  0.00    +0.000 HD
BRANCH  20  22
ATOM     22  C   UNL     1       1.466   8.976  19.624  0.00  0.00    +0.000 A 
ATOM     23  C   UNL     1       1.559   7.822  20.412  0.00  0.00    +0.000 A 
ATOM     24  C   UNL     1       2.204   6.678  19.931  0.00  0.00    +0.000 A 
ATOM     25  C   UNL     1       2.753   6.675  18.653  0.00  0.00    +0.000 A 
ATOM     26 CL   UNL     1       3.543   5.262  18.072  0.00  0.00    +0.000 Cl
ATOM     27  C   UNL     1       2.662   7.806  17.847  0.00  0.00    +0.000 A 
ATOM     28  C   UNL     1       2.011   8.939  18.335  0.00  0.00    +0.000 A 
ATOM     29  F   UNL     1       1.935  10.025  17.550  0.00  0.00    +0.000 F 
ENDBRANCH  20  22
ENDBRANCH   1  19
TORSDOF 3
ENDMDL
