MODEL 1
REMARK VINA RESULT:      -8.4      0.000      0.000
REMARK  Name = 
REMARK  5 active torsions:
REMARK  status: ('A' for Active; 'I' for Inactive)
REMARK    1  A    between atoms: C_1  and  N_2
REMARK    2  A    between atoms: C_4  and  C_5
REMARK    3  A    between atoms: C_11  and  N_12
REMARK    4  A    between atoms: C_13  and  C_15
REMARK    5  A    between atoms: C_15  and  C_16
REMARK                            x       y       z     vdW  Elec       q    Type
REMARK                         _______ _______ _______ _____ _____    ______ ____
ROOT
ATOM      1  N   UNL     1       3.191   6.242  19.751  0.00  0.00    +0.000 N 
ATOM      2  C   UNL     1       2.719   4.888  19.554  0.00  0.00    +0.000 C 
ATOM      3  O   UNL     1       1.531   4.653  19.373  0.00  0.00    +0.000 OA
ATOM      4  H   UNL     1       4.193   6.404  19.639  0.00  0.00    +0.000 HD
ENDROOT
BRANCH   1  10
ATOM      5  C   UNL     1       2.619   8.469  17.615  0.00  0.00    +0.000 C 
ATOM      6  N   UNL     1       2.067   8.315  18.938  0.00  0.00    +0.000 N 
ATOM      7  N   UNL     1       1.118   9.188  19.332  0.00  0.00    +0.000 NA
ATOM      8  C   UNL     1       0.770   8.770  20.553  0.00  0.00    +0.000 A 
ATOM      9  C   UNL     1       1.541   7.655  20.949  0.00  0.00    +0.000 A 
ATOM     10  C   UNL     1       2.331   7.332  19.868  0.00  0.00    +0.000 A 
BRANCH   8  11
ATOM     11  C   UNL     1      -0.329   9.445  21.309  0.00  0.00    +0.000 C 
ATOM     12  C   UNL     1      -0.534  10.908  20.924  0.00  0.00    +0.000 C 
ATOM     13  C   UNL     1      -1.249  11.537  22.118  0.00  0.00    +0.000 C 
ATOM     14  C   UNL     1      -1.047  10.587  23.297  0.00  0.00    +0.000 C 
ATOM     15  C   UNL     1      -0.066   9.528  22.814  0.00  0.00    +0.000 C 
ENDBRANCH   8  11
ENDBRANCH   1  10
BRANCH   2  16
ATOM     16  C   UNL     1       3.771   3.797  19.507  0.00  0.00    +0.000 C 
BRANCH  16  17
ATOM     17  C   UNL     1       4.697   4.032  18.351  0.00  0.00    +0.000 A 
ATOM     18  C   UNL     1       4.422   3.690  17.077  0.00  0.00    +0.000 A 
ATOM     19  C   UNL     1       5.359   4.017  16.000  0.00  0.00    +0.000 A 
ATOM     20  C   UNL     1       5.069   3.728  14.663  0.00  0.00    +0.000 A 
ATOM     21  C   UNL     1       5.969   4.091  13.659  0.00  0.00    +0.000 A 
ATOM     22  C   UNL     1       7.165   4.734  13.986  0.00  0.00    +0.000 A 
ATOM     23  C   UNL     1       7.464   5.021  15.318  0.00  0.00    +0.000 A 
ATOM     24  C   UNL     1       6.559   4.668  16.318  0.00  0.00    +0.000 A 
ATOM     25  N   UNL     1       6.839   4.978  17.658  0.00  0.00    +0.000 N 
ATOM     26  C   UNL     1       5.991   4.699  18.690  0.00  0.00    +0.000 A 
ATOM     27  O   UNL     1       6.238   4.993  19.859  0.00  0.00    +0.000 OA
ATOM     28  H   UNL     1       7.707   5.443  17.889  0.00  0.00    +0.000 HD
ENDBRANCH  16  17
ENDBRANCH   2  16
TORSDOF 4
ENDMDL
MODEL 2
REMARK VINA RESULT:      -8.1      2.079      2.625
REMARK  Name = 
REMARK  5 active torsions:
REMARK  status: ('A' for Active; 'I' for Inactive)
REMARK    1  A    between atoms: C_1  and  N_2
REMARK    2  A    between atoms: C_4  and  C_5
REMARK    3  A    between atoms: C_11  and  N_12
REMARK    4  A    between atoms: C_13  and  C_15
REMARK    5  A    between atoms: C_15  and  C_16
REMARK                            x       y       z     vdW  Elec       q    Type
REMARK                         _______ _______ _______ _____ _____    ______ ____
ROOT
ATOM      1  N   UNL     1       4.013   6.244  18.520  0.00  0.00    +0.000 N 
ATOM      2  C   UNL     1       3.795   4.912  17.996  0.00  0.00    +0.000 C 
ATOM      3  O   UNL     1       2.693   4.563  17.594  0.00  0.00    +0.000 OA
ATOM      4  H   UNL     1       4.981   6.559  18.596  0.00  0.00    +0.000 HD
ENDROOT
BRANCH   1  10
ATOM      5  C   UNL     1       1.890   6.273  20.830  0.00  0.00    +0.000 C 
ATOM      6  N   UNL     1       2.042   7.185  19.723  0.00  0.00    +0.000 N 
ATOM      7  N   UNL     1       1.221   8.254  19.668  0.00  0.00    +0.000 NA
ATOM      8  C   UNL     1       1.626   8.926  18.587  0.00  0.00    +0.000 A 
ATOM      9  C   UNL     1       2.677   8.249  17.929  0.00  0.00    +0.000 A 
ATOM     10  C   UNL     1       2.978   7.158  18.712  0.00  0.00    +0.000 A 
BRANCH   8  11
ATOM     11  C   UNL     1       1.004  10.235  18.221  0.00  0.00    +0.000 C 
ATOM     12  C   UNL     1       1.276  11.350  19.229  0.00  0.00    +0.000 C 
ATOM     13  C   UNL     1       0.163  12.371  19.002  0.00  0.00    +0.000 C 
ATOM     14  C   UNL     1      -0.937  11.652  18.222  0.00  0.00    +0.000 C 
ATOM     15  C   UNL     1      -0.526  10.187  18.179  0.00  0.00    +0.000 C 
ENDBRANCH   8  11
ENDBRANCH   1  10
BRANCH   2  16
ATOM     16  C   UNL     1       5.009   4.008  17.901  0.00  0.00    +0.000 C 
BRANCH  16  17
ATOM     17  C   UNL     1       5.729   4.256  16.610  0.00  0.00    +0.000 A 
ATOM     18  C   UNL     1       5.429   3.650  15.445  0.00  0.00    +0.000 A 
ATOM     19  C   UNL     1       6.144   4.002  14.217  0.00  0.00    +0.000 A 
ATOM     20  C   UNL     1       5.809   3.433  12.984  0.00  0.00    +0.000 A 
ATOM     21  C   UNL     1       6.488   3.824  11.827  0.00  0.00    +0.000 A 
ATOM     22  C   UNL     1       7.507   4.774  11.897  0.00  0.00    +0.000 A 
ATOM     23  C   UNL     1       7.851   5.343  13.124  0.00  0.00    +0.000 A 
ATOM     24  C   UNL     1       7.165   4.961  14.276  0.00  0.00    +0.000 A 
ATOM     25  N   UNL     1       7.485   5.548  15.510  0.00  0.00    +0.000 N 
ATOM     26  C   UNL     1       6.839   5.255  16.675  0.00  0.00    +0.000 A 
ATOM     27  O   UNL     1       7.115   5.791  17.748  0.00  0.00    +0.000 OA
ATOM     28  H   UNL     1       8.225   6.236  15.555  0.00  0.00    +0.000 HD
ENDBRANCH  16  17
ENDBRANCH   2  16
TORSDOF 4
ENDMDL
MODEL 3
REMARK VINA RESULT:      -7.9      1.642      2.396
REMARK  Name = 
REMARK  5 active torsions:
REMARK  status: ('A' for Active; 'I' for Inactive)
REMARK    1  A    between atoms: C_1  and  N_2
REMARK    2  A    between atoms: C_4  and  C_5
REMARK    3  A    between atoms: C_11  and  N_12
REMARK    4  A    between atoms: C_13  and  C_15
REMARK    5  A    between atoms: C_15  and  C_16
REMARK                            x       y       z     vdW  Elec       q    Type
REMARK                         _______ _______ _______ _____ _____    ______ ____
ROOT
ATOM      1  N   UNL     1       2.428   6.917  20.438  0.00  0.00    +0.000 N 
ATOM      2  C   UNL     1       1.717   5.662  20.566  0.00  0.00    +0.000 C 
ATOM      3  O   UNL     1       0.494   5.630  20.599  0.00  0.00    +0.000 OA
ATOM      4  H   UNL     1       3.409   6.868  20.161  0.00  0.00    +0.000 HD
ENDROOT
BRANCH   1  10
ATOM      5  C   UNL     1       1.671   8.740  17.998  0.00  0.00    +0.000 C 
ATOM      6  N   UNL     1       1.445   8.963  19.405  0.00  0.00    +0.000 N 
ATOM      7  N   UNL     1       0.756  10.065  19.767  0.00  0.00    +0.000 NA
ATOM      8  C   UNL     1       0.662   9.975  21.096  0.00  0.00    +0.000 A 
ATOM      9  C   UNL     1       1.341   8.833  21.579  0.00  0.00    +0.000 A 
ATOM     10  C   UNL     1       1.786   8.155  20.467  0.00  0.00    +0.000 A 
BRANCH   8  11
ATOM     11  C   UNL     1      -0.110  10.986  21.880  0.00  0.00    +0.000 C 
ATOM     12  C   UNL     1      -0.925  10.389  23.025  0.00  0.00    +0.000 C 
ATOM     13  C   UNL     1      -2.014  11.418  23.317  0.00  0.00    +0.000 C 
ATOM     14  C   UNL     1      -2.085  12.337  22.098  0.00  0.00    +0.000 C 
ATOM     15  C   UNL     1      -1.174  11.710  21.052  0.00  0.00    +0.000 C 
ENDBRANCH   8  11
ENDBRANCH   1  10
BRANCH   2  16
ATOM     16  C   UNL     1       2.557   4.400  20.579  0.00  0.00    +0.000 C 
BRANCH  16  17
ATOM     17  C   UNL     1       3.405   4.340  19.345  0.00  0.00    +0.000 A 
ATOM     18  C   UNL     1       4.696   4.723  19.292  0.00  0.00    +0.000 A 
ATOM     19  C   UNL     1       5.468   4.568  18.056  0.00  0.00    +0.000 A 
ATOM     20  C   UNL     1       6.824   4.900  17.994  0.00  0.00    +0.000 A 
ATOM     21  C   UNL     1       7.538   4.701  16.809  0.00  0.00    +0.000 A 
ATOM     22  C   UNL     1       6.898   4.181  15.682  0.00  0.00    +0.000 A 
ATOM     23  C   UNL     1       5.544   3.852  15.736  0.00  0.00    +0.000 A 
ATOM     24  C   UNL     1       4.836   4.041  16.922  0.00  0.00    +0.000 A 
ATOM     25  N   UNL     1       3.480   3.687  16.993  0.00  0.00    +0.000 N 
ATOM     26  C   UNL     1       2.726   3.807  18.124  0.00  0.00    +0.000 A 
ATOM     27  O   UNL     1       1.543   3.475  18.180  0.00  0.00    +0.000 OA
ATOM     28  H   UNL     1       3.021   3.311  16.173  0.00  0.00    +0.000 HD
ENDBRANCH  16  17
ENDBRANCH   2  16
TORSDOF 4
ENDMDL
MODEL 4
REMARK VINA RESULT:      -7.8      1.477      1.852
REMARK  Name = 
REMARK  5 active torsions:
REMARK  status: ('A' for Active; 'I' for Inactive)
REMARK    1  A    between atoms: C_1  and  N_2
REMARK    2  A    between atoms: C_4  and  C_5
REMARK    3  A    between atoms: C_11  and  N_12
REMARK    4  A    between atoms: C_13  and  C_15
REMARK    5  A    between atoms: C_15  and  C_16
REMARK                            x       y       z     vdW  Elec       q    Type
REMARK                         _______ _______ _______ _____ _____    ______ ____
ROOT
ATOM      1  N   UNL     1       2.447   6.995  20.317  0.00  0.00    +0.000 N 
ATOM      2  C   UNL     1       1.930   5.647  20.429  0.00  0.00    +0.000 C 
ATOM      3  O   UNL     1       0.726   5.428  20.401  0.00  0.00    +0.000 OA
ATOM      4  H   UNL     1       3.437   7.094  20.090  0.00  0.00    +0.000 HD
ENDROOT
BRANCH   1  10
ATOM      5  C   UNL     1       1.995   8.989  17.937  0.00  0.00    +0.000 C 
ATOM      6  N   UNL     1       1.414   9.002  19.257  0.00  0.00    +0.000 N 
ATOM      7  N   UNL     1       0.489   9.945  19.531  0.00  0.00    +0.000 NA
ATOM      8  C   UNL     1       0.104   9.677  20.782  0.00  0.00    +0.000 A 
ATOM      9  C   UNL     1       0.827   8.587  21.315  0.00  0.00    +0.000 A 
ATOM     10  C   UNL     1       1.624   8.120  20.295  0.00  0.00    +0.000 A 
BRANCH   8  11
ATOM     11  C   UNL     1      -0.983  10.467  21.434  0.00  0.00    +0.000 C 
ATOM     12  C   UNL     1      -1.137  11.882  20.878  0.00  0.00    +0.000 C 
ATOM     13  C   UNL     1      -1.848  12.667  21.977  0.00  0.00    +0.000 C 
ATOM     14  C   UNL     1      -1.693  11.855  23.263  0.00  0.00    +0.000 C 
ATOM     15  C   UNL     1      -0.740  10.718  22.924  0.00  0.00    +0.000 C 
ENDBRANCH   8  11
ENDBRANCH   1  10
BRANCH   2  16
ATOM     16  C   UNL     1       2.950   4.528  20.504  0.00  0.00    +0.000 C 
BRANCH  16  17
ATOM     17  C   UNL     1       3.621   4.361  19.174  0.00  0.00    +0.000 A 
ATOM     18  C   UNL     1       3.906   5.376  18.334  0.00  0.00    +0.000 A 
ATOM     19  C   UNL     1       4.623   5.126  17.082  0.00  0.00    +0.000 A 
ATOM     20  C   UNL     1       4.986   6.169  16.224  0.00  0.00    +0.000 A 
ATOM     21  C   UNL     1       5.704   5.896  15.057  0.00  0.00    +0.000 A 
ATOM     22  C   UNL     1       6.052   4.583  14.738  0.00  0.00    +0.000 A 
ATOM     23  C   UNL     1       5.690   3.536  15.586  0.00  0.00    +0.000 A 
ATOM     24  C   UNL     1       4.983   3.811  16.756  0.00  0.00    +0.000 A 
ATOM     25  N   UNL     1       4.639   2.768  17.628  0.00  0.00    +0.000 N 
ATOM     26  C   UNL     1       3.980   2.957  18.808  0.00  0.00    +0.000 A 
ATOM     27  O   UNL     1       3.700   2.036  19.574  0.00  0.00    +0.000 OA
ATOM     28  H   UNL     1       4.893   1.818  17.391  0.00  0.00    +0.000 HD
ENDBRANCH  16  17
ENDBRANCH   2  16
TORSDOF 4
ENDMDL
MODEL 5
REMARK VINA RESULT:      -7.7      3.204      4.750
REMARK  Name = 
REMARK  5 active torsions:
REMARK  status: ('A' for Active; 'I' for Inactive)
REMARK    1  A    between atoms: C_1  and  N_2
REMARK    2  A    between atoms: C_4  and  C_5
REMARK    3  A    between atoms: C_11  and  N_12
REMARK    4  A    between atoms: C_13  and  C_15
REMARK    5  A    between atoms: C_15  and  C_16
REMARK                            x       y       z     vdW  Elec       q    Type
REMARK                         _______ _______ _______ _____ _____    ______ ____
ROOT
ATOM      1  N   UNL     1       0.995   9.738  17.637  0.00  0.00    +0.000 N 
ATOM      2  C   UNL     1       1.847   8.867  18.419  0.00  0.00    +0.000 C 
ATOM      3  O   UNL     1       1.508   8.483  19.531  0.00  0.00    +0.000 OA
ATOM      4  H   UNL     1       1.200   9.815  16.641  0.00  0.00    +0.000 HD
ENDROOT
BRANCH   1  10
ATOM      5  C   UNL     1       0.693  11.893  19.898  0.00  0.00    +0.000 C 
ATOM      6  N   UNL     1      -0.332  11.235  19.126  0.00  0.00    +0.000 N 
ATOM      7  N   UNL     1      -1.612  11.616  19.321  0.00  0.00    +0.000 NA
ATOM      8  C   UNL     1      -2.311  10.885  18.448  0.00  0.00    +0.000 A 
ATOM      9  C   UNL     1      -1.470  10.002  17.734  0.00  0.00    +0.000 A 
ATOM     10  C   UNL     1      -0.185  10.287  18.137  0.00  0.00    +0.000 A 
BRANCH   8  11
ATOM     11  C   UNL     1      -3.786  11.073  18.300  0.00  0.00    +0.000 C 
ATOM     12  C   UNL     1      -4.212  11.536  16.908  0.00  0.00    +0.000 C 
ATOM     13  C   UNL     1      -5.581  12.183  17.107  0.00  0.00    +0.000 C 
ATOM     14  C   UNL     1      -5.713  12.476  18.601  0.00  0.00    +0.000 C 
ATOM     15  C   UNL     1      -4.351  12.169  19.207  0.00  0.00    +0.000 C 
ENDBRANCH   8  11
ENDBRANCH   1  10
BRANCH   2  16
ATOM     16  C   UNL     1       3.130   8.398  17.762  0.00  0.00    +0.000 C 
BRANCH  16  17
ATOM     17  C   UNL     1       3.228   6.904  17.844  0.00  0.00    +0.000 A 
ATOM     18  C   UNL     1       2.212   6.096  18.204  0.00  0.00    +0.000 A 
ATOM     19  C   UNL     1       2.379   4.641  18.194  0.00  0.00    +0.000 A 
ATOM     20  C   UNL     1       1.322   3.779  18.503  0.00  0.00    +0.000 A 
ATOM     21  C   UNL     1       1.508   2.396  18.444  0.00  0.00    +0.000 A 
ATOM     22  C   UNL     1       2.750   1.869  18.087  0.00  0.00    +0.000 A 
ATOM     23  C   UNL     1       3.811   2.722  17.782  0.00  0.00    +0.000 A 
ATOM     24  C   UNL     1       3.620   4.102  17.831  0.00  0.00    +0.000 A 
ATOM     25  N   UNL     1       4.674   4.967  17.499  0.00  0.00    +0.000 N 
ATOM     26  C   UNL     1       4.560   6.327  17.487  0.00  0.00    +0.000 A 
ATOM     27  O   UNL     1       5.485   7.075  17.175  0.00  0.00    +0.000 OA
ATOM     28  H   UNL     1       5.573   4.579  17.241  0.00  0.00    +0.000 HD
ENDBRANCH  16  17
ENDBRANCH   2  16
TORSDOF 4
ENDMDL
MODEL 6
REMARK VINA RESULT:      -7.7      3.430      5.418
REMARK  Name = 
REMARK  5 active torsions:
REMARK  status: ('A' for Active; 'I' for Inactive)
REMARK    1  A    between atoms: C_1  and  N_2
REMARK    2  A    between atoms: C_4  and  C_5
REMARK    3  A    between atoms: C_11  and  N_12
REMARK    4  A    between atoms: C_13  and  C_15
REMARK    5  A    between atoms: C_15  and  C_16
REMARK                            x       y       z     vdW  Elec       q    Type
REMARK                         _______ _______ _______ _____ _____    ______ ____
ROOT
ATOM      1  N   UNL     1       0.299  10.171  19.934  0.00  0.00    +0.000 N 
ATOM      2  C   UNL     1       0.384   9.078  20.881  0.00  0.00    +0.000 C 
ATOM      3  O   UNL     1      -0.616   8.649  21.442  0.00  0.00    +0.000 OA
ATOM      4  H   UNL     1       1.099  10.312  19.317  0.00  0.00    +0.000 HD
ENDROOT
BRANCH   1  10
ATOM      5  C   UNL     1      -1.554  10.006  17.407  0.00  0.00    +0.000 C 
ATOM      6  N   UNL     1      -1.706  10.809  18.595  0.00  0.00    +0.000 N 
ATOM      7  N   UNL     1      -2.820  11.561  18.711  0.00  0.00    +0.000 NA
ATOM      8  C   UNL     1      -2.706  12.138  19.911  0.00  0.00    +0.000 A 
ATOM      9  C   UNL     1      -1.487  11.785  20.533  0.00  0.00    +0.000 A 
ATOM     10  C   UNL     1      -0.881  10.874  19.698  0.00  0.00    +0.000 A 
BRANCH   8  11
ATOM     11  C   UNL     1      -3.797  13.005  20.450  0.00  0.00    +0.000 C 
ATOM     12  C   UNL     1      -4.070  12.799  21.939  0.00  0.00    +0.000 C 
ATOM     13  C   UNL     1      -5.493  13.308  22.156  0.00  0.00    +0.000 C 
ATOM     14  C   UNL     1      -6.149  13.373  20.777  0.00  0.00    +0.000 C 
ATOM     15  C   UNL     1      -5.162  12.725  19.817  0.00  0.00    +0.000 C 
ENDBRANCH   8  11
ENDBRANCH   1  10
BRANCH   2  16
ATOM     16  C   UNL     1       1.750   8.450  21.077  0.00  0.00    +0.000 C 
BRANCH  16  17
ATOM     17  C   UNL     1       1.833   7.164  20.312  0.00  0.00    +0.000 A 
ATOM     18  C   UNL     1       1.529   5.955  20.824  0.00  0.00    +0.000 A 
ATOM     19  C   UNL     1       1.577   4.757  19.983  0.00  0.00    +0.000 A 
ATOM     20  C   UNL     1       1.206   3.501  20.473  0.00  0.00    +0.000 A 
ATOM     21  C   UNL     1       1.227   2.388  19.630  0.00  0.00    +0.000 A 
ATOM     22  C   UNL     1       1.627   2.522  18.299  0.00  0.00    +0.000 A 
ATOM     23  C   UNL     1       2.003   3.770  17.804  0.00  0.00    +0.000 A 
ATOM     24  C   UNL     1       1.971   4.883  18.644  0.00  0.00    +0.000 A 
ATOM     25  N   UNL     1       2.321   6.147  18.146  0.00  0.00    +0.000 N 
ATOM     26  C   UNL     1       2.283   7.289  18.892  0.00  0.00    +0.000 A 
ATOM     27  O   UNL     1       2.573   8.395  18.440  0.00  0.00    +0.000 OA
ATOM     28  H   UNL     1       2.611   6.238  17.181  0.00  0.00    +0.000 HD
ENDBRANCH  16  17
ENDBRANCH   2  16
TORSDOF 4
ENDMDL
MODEL 7
REMARK VINA RESULT:      -7.7      3.413      9.037
REMARK  Name = 
REMARK  5 active torsions:
REMARK  status: ('A' for Active; 'I' for Inactive)
REMARK    1  A    between atoms: C_1  and  N_2
REMARK    2  A    between atoms: C_4  and  C_5
REMARK    3  A    between atoms: C_11  and  N_12
REMARK    4  A    between atoms: C_13  and  C_15
REMARK    5  A    between atoms: C_15  and  C_16
REMARK                            x       y       z     vdW  Elec       q    Type
REMARK                         _______ _______ _______ _____ _____    ______ ____
ROOT
ATOM      1  N   UNL     1       2.205   7.680  19.169  0.00  0.00    +0.000 N 
ATOM      2  C   UNL     1       1.761   8.968  18.679  0.00  0.00    +0.000 C 
ATOM      3  O   UNL     1       1.940   9.296  17.513  0.00  0.00    +0.000 OA
ATOM      4  H   UNL     1       1.809   7.360  20.054  0.00  0.00    +0.000 HD
ENDROOT
BRANCH   1  10
ATOM      5  C   UNL     1       1.902   4.562  18.985  0.00  0.00    +0.000 C 
ATOM      6  N   UNL     1       2.834   5.427  18.304  0.00  0.00    +0.000 N 
ATOM      7  N   UNL     1       3.668   4.872  17.400  0.00  0.00    +0.000 NA
ATOM      8  C   UNL     1       4.358   5.905  16.909  0.00  0.00    +0.000 A 
ATOM      9  C   UNL     1       3.990   7.112  17.544  0.00  0.00    +0.000 A 
ATOM     10  C   UNL     1       2.958   6.797  18.397  0.00  0.00    +0.000 A 
BRANCH   8  11
ATOM     11  C   UNL     1       5.349   5.708  15.808  0.00  0.00    +0.000 C 
ATOM     12  C   UNL     1       5.095   4.460  14.964  0.00  0.00    +0.000 C 
ATOM     13  C   UNL     1       6.438   4.141  14.313  0.00  0.00    +0.000 C 
ATOM     14  C   UNL     1       7.501   4.900  15.107  0.00  0.00    +0.000 C 
ATOM     15  C   UNL     1       6.778   5.488  16.310  0.00  0.00    +0.000 C 
ENDBRANCH   8  11
ENDBRANCH   1  10
BRANCH   2  16
ATOM     16  C   UNL     1       1.004   9.846  19.655  0.00  0.00    +0.000 C 
BRANCH  16  17
ATOM     17  C   UNL     1      -0.273  10.320  19.029  0.00  0.00    +0.000 A 
ATOM     18  C   UNL     1      -0.716   9.927  17.818  0.00  0.00    +0.000 A 
ATOM     19  C   UNL     1      -2.009  10.392  17.312  0.00  0.00    +0.000 A 
ATOM     20  C   UNL     1      -2.520   9.949  16.088  0.00  0.00    +0.000 A 
ATOM     21  C   UNL     1      -3.775  10.384  15.657  0.00  0.00    +0.000 A 
ATOM     22  C   UNL     1      -4.520  11.268  16.439  0.00  0.00    +0.000 A 
ATOM     23  C   UNL     1      -4.016  11.718  17.660  0.00  0.00    +0.000 A 
ATOM     24  C   UNL     1      -2.767  11.274  18.094  0.00  0.00    +0.000 A 
ATOM     25  N   UNL     1      -2.265  11.700  19.333  0.00  0.00    +0.000 N 
ATOM     26  C   UNL     1      -1.070  11.285  19.846  0.00  0.00    +0.000 A 
ATOM     27  O   UNL     1      -0.648  11.650  20.942  0.00  0.00    +0.000 OA
ATOM     28  H   UNL     1      -2.809  12.341  19.896  0.00  0.00    +0.000 HD
ENDBRANCH  16  17
ENDBRANCH   2  16
TORSDOF 4
ENDMDL
MODEL 8
REMARK VINA RESULT:      -7.6      4.418      7.133
REMARK  Name = 
REMARK  5 active torsions:
REMARK  status: ('A' for Active; 'I' for Inactive)
REMARK    1  A    between atoms: C_1  and  N_2
REMARK    2  A    between atoms: C_4  and  C_5
REMARK    3  A    between atoms: C_11  and  N_12
REMARK    4  A    between atoms: C_13  and  C_15
REMARK    5  A    between atoms: C_15  and  C_16
REMARK                            x       y       z     vdW  Elec       q    Type
REMARK                         _______ _______ _______ _____ _____    ______ ____
ROOT
ATOM      1  N   UNL     1       6.172   7.329  17.131  0.00  0.00    +0.000 N 
ATOM      2  C   UNL     1       6.394   6.330  16.107  0.00  0.00    +0.000 C 
ATOM      3  O   UNL     1       7.527   5.991  15.790  0.00  0.00    +0.000 OA
ATOM      4  H   UNL     1       5.234   7.384  17.529  0.00  0.00    +0.000 HD
ENDROOT
BRANCH   1  10
ATOM      5  C   UNL     1       8.248   6.296  19.244  0.00  0.00    +0.000 C 
ATOM      6  N   UNL     1       8.131   7.605  18.650  0.00  0.00    +0.000 N 
ATOM      7  N   UNL     1       9.062   8.528  18.965  0.00  0.00    +0.000 NA
ATOM      8  C   UNL     1       8.727   9.597  18.238  0.00  0.00    +0.000 A 
ATOM      9  C   UNL     1       7.547   9.361  17.497  0.00  0.00    +0.000 A 
ATOM     10  C   UNL     1       7.210   8.046  17.724  0.00  0.00    +0.000 A 
BRANCH   8  11
ATOM     11  C   UNL     1       9.574  10.828  18.251  0.00  0.00    +0.000 C 
ATOM     12  C   UNL     1      10.085  11.210  19.639  0.00  0.00    +0.000 C 
ATOM     13  C   UNL     1      10.418  12.698  19.545  0.00  0.00    +0.000 C 
ATOM     14  C   UNL     1       9.703  13.227  18.302  0.00  0.00    +0.000 C 
ATOM     15  C   UNL     1       8.822  12.087  17.813  0.00  0.00    +0.000 C 
ENDBRANCH   8  11
ENDBRANCH   1  10
BRANCH   2  16
ATOM     16  C   UNL     1       5.162   5.678  15.511  0.00  0.00    +0.000 C 
BRANCH  16  17
ATOM     17  C   UNL     1       4.473   4.845  16.550  0.00  0.00    +0.000 A 
ATOM     18  C   UNL     1       3.517   5.305  17.380  0.00  0.00    +0.000 A 
ATOM     19  C   UNL     1       2.852   4.403  18.322  0.00  0.00    +0.000 A 
ATOM     20  C   UNL     1       1.813   4.842  19.149  0.00  0.00    +0.000 A 
ATOM     21  C   UNL     1       1.176   3.942  20.006  0.00  0.00    +0.000 A 
ATOM     22  C   UNL     1       1.578   2.606  20.048  0.00  0.00    +0.000 A 
ATOM     23  C   UNL     1       2.616   2.161  19.229  0.00  0.00    +0.000 A 
ATOM     24  C   UNL     1       3.244   3.058  18.366  0.00  0.00    +0.000 A 
ATOM     25  N   UNL     1       4.270   2.613  17.519  0.00  0.00    +0.000 N 
ATOM     26  C   UNL     1       4.910   3.418  16.622  0.00  0.00    +0.000 A 
ATOM     27  O   UNL     1       5.795   3.012  15.870  0.00  0.00    +0.000 OA
ATOM     28  H   UNL     1       4.558   1.644  17.554  0.00  0.00    +0.000 HD
ENDBRANCH  16  17
ENDBRANCH   2  16
TORSDOF 4
ENDMDL
MODEL 9
REMARK VINA RESULT:      -7.6      3.250      9.698
REMARK  Name = 
REMARK  5 active torsions:
REMARK  status: ('A' for Active; 'I' for Inactive)
REMARK    1  A    between atoms: C_1  and  N_2
REMARK    2  A    between atoms: C_4  and  C_5
REMARK    3  A    between atoms: C_11  and  N_12
REMARK    4  A    between atoms: C_13  and  C_15
REMARK    5  A    between atoms: C_15  and  C_16
REMARK                            x       y       z     vdW  Elec       q    Type
REMARK                         _______ _______ _______ _____ _____    ______ ____
ROOT
ATOM      1  N   UNL     1       1.712   8.462  21.259  0.00  0.00    +0.000 N 
ATOM      2  C   UNL     1       0.390   8.700  21.800  0.00  0.00    +0.000 C 
ATOM      3  O   UNL     1      -0.593   8.136  21.337  0.00  0.00    +0.000 OA
ATOM      4  H   UNL     1       2.506   8.748  21.833  0.00  0.00    +0.000 HD
ENDROOT
BRANCH   1  10
ATOM      5  C   UNL     1       1.772   9.420  18.272  0.00  0.00    +0.000 C 
ATOM      6  N   UNL     1       1.966   8.095  18.806  0.00  0.00    +0.000 N 
ATOM      7  N   UNL     1       2.288   7.108  17.944  0.00  0.00    +0.000 NA
ATOM      8  C   UNL     1       2.453   6.033  18.720  0.00  0.00    +0.000 A 
ATOM      9  C   UNL     1       2.184   6.334  20.073  0.00  0.00    +0.000 A 
ATOM     10  C   UNL     1       1.934   7.687  20.122  0.00  0.00    +0.000 A 
BRANCH   8  11
ATOM     11  C   UNL     1       2.896   4.730  18.138  0.00  0.00    +0.000 C 
ATOM     12  C   UNL     1       1.747   3.781  17.801  0.00  0.00    +0.000 C 
ATOM     13  C   UNL     1       2.377   2.391  17.766  0.00  0.00    +0.000 C 
ATOM     14  C   UNL     1       3.716   2.499  18.494  0.00  0.00    +0.000 C 
ATOM     15  C   UNL     1       3.749   3.896  19.098  0.00  0.00    +0.000 C 
ENDBRANCH   8  11
ENDBRANCH   1  10
BRANCH   2  16
ATOM     16  C   UNL     1       0.300   9.615  23.005  0.00  0.00    +0.000 C 
BRANCH  16  17
ATOM     17  C   UNL     1      -0.536  10.814  22.673  0.00  0.00    +0.000 A 
ATOM     18  C   UNL     1      -1.743  11.072  23.215  0.00  0.00    +0.000 A 
ATOM     19  C   UNL     1      -2.461  12.303  22.880  0.00  0.00    +0.000 A 
ATOM     20  C   UNL     1      -3.685  12.623  23.476  0.00  0.00    +0.000 A 
ATOM     21  C   UNL     1      -4.322  13.826  23.161  0.00  0.00    +0.000 A 
ATOM     22  C   UNL     1      -3.746  14.707  22.244  0.00  0.00    +0.000 A 
ATOM     23  C   UNL     1      -2.528  14.392  21.641  0.00  0.00    +0.000 A 
ATOM     24  C   UNL     1      -1.888  13.196  21.965  0.00  0.00    +0.000 A 
ATOM     25  N   UNL     1      -0.649  12.885  21.385  0.00  0.00    +0.000 N 
ATOM     26  C   UNL     1       0.058  11.755  21.675  0.00  0.00    +0.000 A 
ATOM     27  O   UNL     1       1.153  11.502  21.174  0.00  0.00    +0.000 OA
ATOM     28  H   UNL     1      -0.237  13.527  20.720  0.00  0.00    +0.000 HD
ENDBRANCH  16  17
ENDBRANCH   2  16
TORSDOF 4
ENDMDL
