MODEL 1
REMARK VINA RESULT:      -9.2      0.000      0.000
REMARK  Name = 
REMARK  4 active torsions:
REMARK  status: ('A' for Active; 'I' for Inactive)
REMARK    1  A    between atoms: C_2  and  C_27
REMARK    2  A    between atoms: N_3  and  C_4
REMARK    3  A    between atoms: C_7  and  C_8
REMARK    4  A    between atoms: C_18  and  C_19
REMARK                            x       y       z     vdW  Elec       q    Type
REMARK                         _______ _______ _______ _____ _____    ______ ____
ROOT
ATOM      1  C   UNL     1       2.060   8.247  18.269  0.00  0.00    +0.000 C 
ATOM      2  O   UNL     1       2.242   8.651  17.124  0.00  0.00    +0.000 OA
ATOM      3  N   UNL     1       2.665   7.084  18.774  0.00  0.00    +0.000 N 
ATOM      4  C   UNL     1       2.560   6.574  20.159  0.00  0.00    +0.000 C 
ATOM      5  C   UNL     1       1.737   5.271  20.215  0.00  0.00    +0.000 C 
ATOM      6  C   UNL     1       2.115   4.384  19.067  0.00  0.00    +0.000 A 
ATOM      7  S   UNL     1       1.702   2.738  19.012  0.00  0.00    +0.000 S 
ATOM      8  C   UNL     1       2.499   2.537  17.512  0.00  0.00    +0.000 A 
ATOM      9  C   UNL     1       3.041   3.716  17.048  0.00  0.00    +0.000 A 
ATOM     10  C   UNL     1       2.841   4.801  17.963  0.00  0.00    +0.000 A 
ATOM     11  C   UNL     1       3.395   6.212  17.835  0.00  0.00    +0.000 C 
ENDROOT
BRANCH   1  15
ATOM     12  C   UNL     1      -0.162  10.947  20.760  0.00  0.00    +0.000 A 
ATOM     13  C   UNL     1       0.676   9.993  21.334  0.00  0.00    +0.000 A 
ATOM     14  C   UNL     1       1.294   9.025  20.542  0.00  0.00    +0.000 A 
ATOM     15  C   UNL     1       1.189   9.076  19.154  0.00  0.00    +0.000 A 
ATOM     16  C   UNL     1       0.247   9.940  18.584  0.00  0.00    +0.000 A 
ATOM     17  C   UNL     1      -0.442  10.860  19.391  0.00  0.00    +0.000 A 
BRANCH  12  20
ATOM     18  O   UNL     1      -1.572  10.798  23.331  0.00  0.00    +0.000 OA
ATOM     19  C   UNL     1      -1.442  11.832  22.692  0.00  0.00    +0.000 C 
ATOM     20  N   UNL     1      -0.744  11.990  21.508  0.00  0.00    +0.000 N 
ATOM     21  H   UNL     1      -0.527  12.936  21.224  0.00  0.00    +0.000 HD
BRANCH  19  22
ATOM     22  C   UNL     1      -2.032  13.103  23.212  0.00  0.00    +0.000 C 
ATOM     23  C   UNL     1      -3.344  13.089  23.961  0.00  0.00    +0.000 C 
ATOM     24  C   UNL     1      -3.287  13.658  22.574  0.00  0.00    +0.000 C 
ENDBRANCH  19  22
ENDBRANCH  12  20
ENDBRANCH   1  15
BRANCH  11  25
ATOM     25  C   UNL     1       4.898   6.113  18.135  0.00  0.00    +0.000 A 
ATOM     26  C   UNL     1       5.803   6.816  17.323  0.00  0.00    +0.000 A 
ATOM     27  C   UNL     1       7.185   6.724  17.538  0.00  0.00    +0.000 A 
ATOM     28  C   UNL     1       7.690   5.941  18.572  0.00  0.00    +0.000 A 
ATOM     29  C   UNL     1       6.813   5.258  19.409  0.00  0.00    +0.000 A 
ATOM     30  C   UNL     1       5.439   5.350  19.194  0.00  0.00    +0.000 A 
ENDBRANCH  11  25
TORSDOF 4
ENDMDL
MODEL 2
REMARK VINA RESULT:      -9.0      0.643      1.081
REMARK  Name = 
REMARK  4 active torsions:
REMARK  status: ('A' for Active; 'I' for Inactive)
REMARK    1  A    between atoms: C_2  and  C_27
REMARK    2  A    between atoms: N_3  and  C_4
REMARK    3  A    between atoms: C_7  and  C_8
REMARK    4  A    between atoms: C_18  and  C_19
REMARK                            x       y       z     vdW  Elec       q    Type
REMARK                         _______ _______ _______ _____ _____    ______ ____
ROOT
ATOM      1  C   UNL     1       2.040   8.396  18.371  0.00  0.00    +0.000 C 
ATOM      2  O   UNL     1       2.169   8.765  17.207  0.00  0.00    +0.000 OA
ATOM      3  N   UNL     1       2.622   7.219  18.869  0.00  0.00    +0.000 N 
ATOM      4  C   UNL     1       2.578   6.747  20.271  0.00  0.00    +0.000 C 
ATOM      5  C   UNL     1       1.703   5.484  20.410  0.00  0.00    +0.000 C 
ATOM      6  C   UNL     1       1.971   4.554  19.265  0.00  0.00    +0.000 A 
ATOM      7  S   UNL     1       1.482   2.928  19.277  0.00  0.00    +0.000 S 
ATOM      8  C   UNL     1       2.177   2.656  17.737  0.00  0.00    +0.000 A 
ATOM      9  C   UNL     1       2.742   3.798  17.212  0.00  0.00    +0.000 A 
ATOM     10  C   UNL     1       2.647   4.912  18.109  0.00  0.00    +0.000 A 
ATOM     11  C   UNL     1       3.254   6.293  17.911  0.00  0.00    +0.000 C 
ENDROOT
BRANCH   1  15
ATOM     12  C   UNL     1      -0.541  10.712  20.902  0.00  0.00    +0.000 A 
ATOM     13  C   UNL     1      -0.219  11.168  19.625  0.00  0.00    +0.000 A 
ATOM     14  C   UNL     1       0.724  10.494  18.849  0.00  0.00    +0.000 A 
ATOM     15  C   UNL     1       1.262   9.285  19.285  0.00  0.00    +0.000 A 
ATOM     16  C   UNL     1       1.049   8.896  20.612  0.00  0.00    +0.000 A 
ATOM     17  C   UNL     1       0.165   9.622  21.425  0.00  0.00    +0.000 A 
BRANCH  12  20
ATOM     18  O   UNL     1      -0.258  12.771  22.978  0.00  0.00    +0.000 OA
ATOM     19  C   UNL     1      -1.324  12.245  22.690  0.00  0.00    +0.000 C 
ATOM     20  N   UNL     1      -1.543  11.315  21.689  0.00  0.00    +0.000 N 
ATOM     21  H   UNL     1      -2.502  11.150  21.416  0.00  0.00    +0.000 HD
BRANCH  19  22
ATOM     22  C   UNL     1      -2.566  12.638  23.423  0.00  0.00    +0.000 C 
ATOM     23  C   UNL     1      -3.852  12.889  22.671  0.00  0.00    +0.000 C 
ATOM     24  C   UNL     1      -3.106  14.044  23.274  0.00  0.00    +0.000 C 
ENDBRANCH  19  22
ENDBRANCH  12  20
ENDBRANCH   1  15
BRANCH  11  25
ATOM     25  C   UNL     1       4.767   6.132  18.124  0.00  0.00    +0.000 A 
ATOM     26  C   UNL     1       5.652   6.772  17.241  0.00  0.00    +0.000 A 
ATOM     27  C   UNL     1       7.038   6.621  17.375  0.00  0.00    +0.000 A 
ATOM     28  C   UNL     1       7.570   5.841  18.399  0.00  0.00    +0.000 A 
ATOM     29  C   UNL     1       6.715   5.220  19.304  0.00  0.00    +0.000 A 
ATOM     30  C   UNL     1       5.336   5.371  19.169  0.00  0.00    +0.000 A 
ENDBRANCH  11  25
TORSDOF 4
ENDMDL
MODEL 3
REMARK VINA RESULT:      -8.9      0.909      1.289
REMARK  Name = 
REMARK  4 active torsions:
REMARK  status: ('A' for Active; 'I' for Inactive)
REMARK    1  A    between atoms: C_2  and  C_27
REMARK    2  A    between atoms: N_3  and  C_4
REMARK    3  A    between atoms: C_7  and  C_8
REMARK    4  A    between atoms: C_18  and  C_19
REMARK                            x       y       z     vdW  Elec       q    Type
REMARK                         _______ _______ _______ _____ _____    ______ ____
ROOT
ATOM      1  C   UNL     1       2.026   8.245  18.287  0.00  0.00    +0.000 C 
ATOM      2  O   UNL     1       2.171   8.670  17.143  0.00  0.00    +0.000 OA
ATOM      3  N   UNL     1       2.677   7.094  18.761  0.00  0.00    +0.000 N 
ATOM      4  C   UNL     1       2.617   6.561  20.140  0.00  0.00    +0.000 C 
ATOM      5  C   UNL     1       1.835   5.233  20.194  0.00  0.00    +0.000 C 
ATOM      6  C   UNL     1       2.214   4.374  19.025  0.00  0.00    +0.000 A 
ATOM      7  S   UNL     1       1.848   2.718  18.954  0.00  0.00    +0.000 S 
ATOM      8  C   UNL     1       2.618   2.562  17.434  0.00  0.00    +0.000 A 
ATOM      9  C   UNL     1       3.114   3.763  16.977  0.00  0.00    +0.000 A 
ATOM     10  C   UNL     1       2.903   4.829  17.912  0.00  0.00    +0.000 A 
ATOM     11  C   UNL     1       3.411   6.257  17.793  0.00  0.00    +0.000 C 
ENDROOT
BRANCH   1  15
ATOM     12  C   UNL     1      -0.201  10.829  20.893  0.00  0.00    +0.000 A 
ATOM     13  C   UNL     1       0.604   9.822  21.424  0.00  0.00    +0.000 A 
ATOM     14  C   UNL     1       1.221   8.893  20.587  0.00  0.00    +0.000 A 
ATOM     15  C   UNL     1       1.151   9.034  19.202  0.00  0.00    +0.000 A 
ATOM     16  C   UNL     1       0.241   9.953  18.667  0.00  0.00    +0.000 A 
ATOM     17  C   UNL     1      -0.449  10.835  19.515  0.00  0.00    +0.000 A 
BRANCH  12  20
ATOM     18  O   UNL     1       0.919  13.430  21.673  0.00  0.00    +0.000 OA
ATOM     19  C   UNL     1      -0.165  13.018  22.062  0.00  0.00    +0.000 C 
ATOM     20  N   UNL     1      -0.780  11.834  21.693  0.00  0.00    +0.000 N 
ATOM     21  H   UNL     1      -1.764  11.741  21.907  0.00  0.00    +0.000 HD
BRANCH  19  22
ATOM     22  C   UNL     1      -0.983  13.850  22.996  0.00  0.00    +0.000 C 
ATOM     23  C   UNL     1      -2.400  13.452  23.334  0.00  0.00    +0.000 C 
ATOM     24  C   UNL     1      -2.153  14.643  22.455  0.00  0.00    +0.000 C 
ENDBRANCH  19  22
ENDBRANCH  12  20
ENDBRANCH   1  15
BRANCH  11  25
ATOM     25  C   UNL     1       4.923   6.199  18.059  0.00  0.00    +0.000 A 
ATOM     26  C   UNL     1       5.400   5.404  19.114  0.00  0.00    +0.000 A 
ATOM     27  C   UNL     1       6.767   5.352  19.415  0.00  0.00    +0.000 A 
ATOM     28  C   UNL     1       7.686   6.079  18.665  0.00  0.00    +0.000 A 
ATOM     29  C   UNL     1       7.243   6.852  17.596  0.00  0.00    +0.000 A 
ATOM     30  C   UNL     1       5.883   6.903  17.297  0.00  0.00    +0.000 A 
ENDBRANCH  11  25
TORSDOF 4
ENDMDL
MODEL 4
REMARK VINA RESULT:      -8.8      1.148      1.390
REMARK  Name = 
REMARK  4 active torsions:
REMARK  status: ('A' for Active; 'I' for Inactive)
REMARK    1  A    between atoms: C_2  and  C_27
REMARK    2  A    between atoms: N_3  and  C_4
REMARK    3  A    between atoms: C_7  and  C_8
REMARK    4  A    between atoms: C_18  and  C_19
REMARK                            x       y       z     vdW  Elec       q    Type
REMARK                         _______ _______ _______ _____ _____    ______ ____
ROOT
ATOM      1  C   UNL     1       1.977   8.527  18.304  0.00  0.00    +0.000 C 
ATOM      2  O   UNL     1       2.075   8.826  17.116  0.00  0.00    +0.000 OA
ATOM      3  N   UNL     1       2.551   7.367  18.849  0.00  0.00    +0.000 N 
ATOM      4  C   UNL     1       2.544   6.977  20.277  0.00  0.00    +0.000 C 
ATOM      5  C   UNL     1       1.649   5.744  20.516  0.00  0.00    +0.000 C 
ATOM      6  C   UNL     1       1.859   4.745  19.418  0.00  0.00    +0.000 A 
ATOM      7  S   UNL     1       1.337   3.134  19.540  0.00  0.00    +0.000 S 
ATOM      8  C   UNL     1       1.975   2.759  17.997  0.00  0.00    +0.000 A 
ATOM      9  C   UNL     1       2.545   3.856  17.389  0.00  0.00    +0.000 A 
ATOM     10  C   UNL     1       2.503   5.021  18.223  0.00  0.00    +0.000 A 
ATOM     11  C   UNL     1       3.131   6.374  17.926  0.00  0.00    +0.000 C 
ENDROOT
BRANCH   1  15
ATOM     12  C   UNL     1      -0.464  11.208  20.604  0.00  0.00    +0.000 A 
ATOM     13  C   UNL     1       0.407  11.707  19.636  0.00  0.00    +0.000 A 
ATOM     14  C   UNL     1       1.300  10.860  18.982  0.00  0.00    +0.000 A 
ATOM     15  C   UNL     1       1.248   9.483  19.189  0.00  0.00    +0.000 A 
ATOM     16  C   UNL     1       0.478   8.994  20.250  0.00  0.00    +0.000 A 
ATOM     17  C   UNL     1      -0.360   9.860  20.969  0.00  0.00    +0.000 A 
BRANCH  12  20
ATOM     18  O   UNL     1      -3.003  12.209  19.520  0.00  0.00    +0.000 OA
ATOM     19  C   UNL     1      -2.588  12.489  20.636  0.00  0.00    +0.000 C 
ATOM     20  N   UNL     1      -1.435  12.011  21.234  0.00  0.00    +0.000 N 
ATOM     21  H   UNL     1      -1.346  12.142  22.232  0.00  0.00    +0.000 HD
BRANCH  19  22
ATOM     22  C   UNL     1      -3.385  13.398  21.517  0.00  0.00    +0.000 C 
ATOM     23  C   UNL     1      -3.371  13.216  23.016  0.00  0.00    +0.000 C 
ATOM     24  C   UNL     1      -4.603  12.859  22.236  0.00  0.00    +0.000 C 
ENDBRANCH  19  22
ENDBRANCH  12  20
ENDBRANCH   1  15
BRANCH  11  25
ATOM     25  C   UNL     1       4.647   6.191  18.099  0.00  0.00    +0.000 A 
ATOM     26  C   UNL     1       5.518   6.838  17.208  0.00  0.00    +0.000 A 
ATOM     27  C   UNL     1       6.905   6.669  17.306  0.00  0.00    +0.000 A 
ATOM     28  C   UNL     1       7.452   5.863  18.301  0.00  0.00    +0.000 A 
ATOM     29  C   UNL     1       6.612   5.234  19.215  0.00  0.00    +0.000 A 
ATOM     30  C   UNL     1       5.232   5.404  19.116  0.00  0.00    +0.000 A 
ENDBRANCH  11  25
TORSDOF 4
ENDMDL
MODEL 5
REMARK VINA RESULT:      -8.8      1.112      1.402
REMARK  Name = 
REMARK  4 active torsions:
REMARK  status: ('A' for Active; 'I' for Inactive)
REMARK    1  A    between atoms: C_2  and  C_27
REMARK    2  A    between atoms: N_3  and  C_4
REMARK    3  A    between atoms: C_7  and  C_8
REMARK    4  A    between atoms: C_18  and  C_19
REMARK                            x       y       z     vdW  Elec       q    Type
REMARK                         _______ _______ _______ _____ _____    ______ ____
ROOT
ATOM      1  C   UNL     1       1.599   8.366  19.143  0.00  0.00    +0.000 C 
ATOM      2  O   UNL     1       1.520   8.847  18.015  0.00  0.00    +0.000 OA
ATOM      3  N   UNL     1       2.269   7.162  19.413  0.00  0.00    +0.000 N 
ATOM      4  C   UNL     1       2.475   6.556  20.748  0.00  0.00    +0.000 C 
ATOM      5  C   UNL     1       1.648   5.265  20.911  0.00  0.00    +0.000 C 
ATOM      6  C   UNL     1       1.719   4.456  19.651  0.00  0.00    +0.000 A 
ATOM      7  S   UNL     1       1.252   2.824  19.588  0.00  0.00    +0.000 S 
ATOM      8  C   UNL     1       1.669   2.718  17.931  0.00  0.00    +0.000 A 
ATOM      9  C   UNL     1       2.124   3.919  17.431  0.00  0.00    +0.000 A 
ATOM     10  C   UNL     1       2.179   4.940  18.437  0.00  0.00    +0.000 A 
ATOM     11  C   UNL     1       2.730   6.347  18.273  0.00  0.00    +0.000 C 
ENDROOT
BRANCH   1  15
ATOM     12  C   UNL     1      -0.531  10.588  22.136  0.00  0.00    +0.000 A 
ATOM     13  C   UNL     1       0.270  11.252  21.207  0.00  0.00    +0.000 A 
ATOM     14  C   UNL     1       1.071  10.532  20.321  0.00  0.00    +0.000 A 
ATOM     15  C   UNL     1       0.986   9.143  20.260  0.00  0.00    +0.000 A 
ATOM     16  C   UNL     1       0.294   8.469  21.272  0.00  0.00    +0.000 A 
ATOM     17  C   UNL     1      -0.447   9.193  22.221  0.00  0.00    +0.000 A 
BRANCH  12  20
ATOM     18  O   UNL     1      -2.759  12.373  21.445  0.00  0.00    +0.000 OA
ATOM     19  C   UNL     1      -2.412  12.141  22.594  0.00  0.00    +0.000 C 
ATOM     20  N   UNL     1      -1.414  11.270  22.996  0.00  0.00    +0.000 N 
ATOM     21  H   UNL     1      -1.399  11.006  23.972  0.00  0.00    +0.000 HD
BRANCH  19  22
ATOM     22  C   UNL     1      -3.129  12.794  23.731  0.00  0.00    +0.000 C 
ATOM     23  C   UNL     1      -4.066  13.953  23.481  0.00  0.00    +0.000 C 
ATOM     24  C   UNL     1      -2.743  14.197  24.147  0.00  0.00    +0.000 C 
ENDBRANCH  19  22
ENDBRANCH  12  20
ENDBRANCH   1  15
BRANCH  11  25
ATOM     25  C   UNL     1       4.259   6.205  18.203  0.00  0.00    +0.000 A 
ATOM     26  C   UNL     1       4.963   6.900  17.208  0.00  0.00    +0.000 A 
ATOM     27  C   UNL     1       6.353   6.769  17.084  0.00  0.00    +0.000 A 
ATOM     28  C   UNL     1       7.068   5.954  17.957  0.00  0.00    +0.000 A 
ATOM     29  C   UNL     1       6.397   5.276  18.970  0.00  0.00    +0.000 A 
ATOM     30  C   UNL     1       5.015   5.408  19.092  0.00  0.00    +0.000 A 
ENDBRANCH  11  25
TORSDOF 4
ENDMDL
MODEL 6
REMARK VINA RESULT:      -8.7      0.941      1.332
REMARK  Name = 
REMARK  4 active torsions:
REMARK  status: ('A' for Active; 'I' for Inactive)
REMARK    1  A    between atoms: C_2  and  C_27
REMARK    2  A    between atoms: N_3  and  C_4
REMARK    3  A    between atoms: C_7  and  C_8
REMARK    4  A    between atoms: C_18  and  C_19
REMARK                            x       y       z     vdW  Elec       q    Type
REMARK                         _______ _______ _______ _____ _____    ______ ____
ROOT
ATOM      1  C   UNL     1       1.847   8.525  18.350  0.00  0.00    +0.000 C 
ATOM      2  O   UNL     1       1.907   8.825  17.160  0.00  0.00    +0.000 OA
ATOM      3  N   UNL     1       2.456   7.375  18.879  0.00  0.00    +0.000 N 
ATOM      4  C   UNL     1       2.496   6.984  20.306  0.00  0.00    +0.000 C 
ATOM      5  C   UNL     1       1.628   5.736  20.569  0.00  0.00    +0.000 C 
ATOM      6  C   UNL     1       1.825   4.741  19.465  0.00  0.00    +0.000 A 
ATOM      7  S   UNL     1       1.335   3.120  19.601  0.00  0.00    +0.000 S 
ATOM      8  C   UNL     1       1.936   2.757  18.040  0.00  0.00    +0.000 A 
ATOM      9  C   UNL     1       2.470   3.864  17.417  0.00  0.00    +0.000 A 
ATOM     10  C   UNL     1       2.431   5.028  18.253  0.00  0.00    +0.000 A 
ATOM     11  C   UNL     1       3.027   6.392  17.939  0.00  0.00    +0.000 C 
ENDROOT
BRANCH   1  15
ATOM     12  C   UNL     1       0.134  11.252  21.189  0.00  0.00    +0.000 A 
ATOM     13  C   UNL     1      -0.136   9.887  21.277  0.00  0.00    +0.000 A 
ATOM     14  C   UNL     1       0.302   9.013  20.283  0.00  0.00    +0.000 A 
ATOM     15  C   UNL     1       1.126   9.468  19.256  0.00  0.00    +0.000 A 
ATOM     16  C   UNL     1       1.286  10.848  19.085  0.00  0.00    +0.000 A 
ATOM     17  C   UNL     1       0.772  11.739  20.041  0.00  0.00    +0.000 A 
BRANCH  12  20
ATOM     18  O   UNL     1      -2.511  12.358  21.826  0.00  0.00    +0.000 OA
ATOM     19  C   UNL     1      -1.486  12.679  22.412  0.00  0.00    +0.000 C 
ATOM     20  N   UNL     1      -0.220  12.160  22.207  0.00  0.00    +0.000 N 
ATOM     21  H   UNL     1       0.475  12.347  22.917  0.00  0.00    +0.000 HD
BRANCH  19  22
ATOM     22  C   UNL     1      -1.546  13.695  23.506  0.00  0.00    +0.000 C 
ATOM     23  C   UNL     1      -2.734  14.620  23.628  0.00  0.00    +0.000 C 
ATOM     24  C   UNL     1      -1.413  15.164  23.167  0.00  0.00    +0.000 C 
ENDBRANCH  19  22
ENDBRANCH  12  20
ENDBRANCH   1  15
BRANCH  11  25
ATOM     25  C   UNL     1       4.550   6.235  18.070  0.00  0.00    +0.000 A 
ATOM     26  C   UNL     1       5.067   5.424  19.093  0.00  0.00    +0.000 A 
ATOM     27  C   UNL     1       6.450   5.283  19.272  0.00  0.00    +0.000 A 
ATOM     28  C   UNL     1       7.343   5.937  18.428  0.00  0.00    +0.000 A 
ATOM     29  C   UNL     1       6.856   6.724  17.388  0.00  0.00    +0.000 A 
ATOM     30  C   UNL     1       5.481   6.862  17.212  0.00  0.00    +0.000 A 
ENDBRANCH  11  25
TORSDOF 4
ENDMDL
MODEL 7
REMARK VINA RESULT:      -8.5      3.386      9.515
REMARK  Name = 
REMARK  4 active torsions:
REMARK  status: ('A' for Active; 'I' for Inactive)
REMARK    1  A    between atoms: C_2  and  C_27
REMARK    2  A    between atoms: N_3  and  C_4
REMARK    3  A    between atoms: C_7  and  C_8
REMARK    4  A    between atoms: C_18  and  C_19
REMARK                            x       y       z     vdW  Elec       q    Type
REMARK                         _______ _______ _______ _____ _____    ______ ____
ROOT
ATOM      1  C   UNL     1      -0.062  10.605  19.296  0.00  0.00    +0.000 C 
ATOM      2  O   UNL     1      -1.170  10.384  18.815  0.00  0.00    +0.000 OA
ATOM      3  N   UNL     1       0.246  11.783  19.997  0.00  0.00    +0.000 N 
ATOM      4  C   UNL     1       1.527  12.090  20.670  0.00  0.00    +0.000 C 
ATOM      5  C   UNL     1       2.289  13.214  19.938  0.00  0.00    +0.000 C 
ATOM      6  C   UNL     1       1.330  14.289  19.523  0.00  0.00    +0.000 A 
ATOM      7  S   UNL     1       1.845  15.832  19.036  0.00  0.00    +0.000 S 
ATOM      8  C   UNL     1       0.231  16.353  18.810  0.00  0.00    +0.000 A 
ATOM      9  C   UNL     1      -0.680  15.353  19.069  0.00  0.00    +0.000 A 
ATOM     10  C   UNL     1      -0.048  14.144  19.511  0.00  0.00    +0.000 A 
ATOM     11  C   UNL     1      -0.741  12.878  19.989  0.00  0.00    +0.000 C 
ENDROOT
BRANCH   1  15
ATOM     12  C   UNL     1       2.596   7.285  18.704  0.00  0.00    +0.000 A 
ATOM     13  C   UNL     1       2.003   7.496  19.949  0.00  0.00    +0.000 A 
ATOM     14  C   UNL     1       1.249   8.644  20.189  0.00  0.00    +0.000 A 
ATOM     15  C   UNL     1       0.969   9.534  19.154  0.00  0.00    +0.000 A 
ATOM     16  C   UNL     1       1.667   9.402  17.949  0.00  0.00    +0.000 A 
ATOM     17  C   UNL     1       2.496   8.289  17.734  0.00  0.00    +0.000 A 
BRANCH  12  20
ATOM     18  O   UNL     1       1.544   4.722  17.731  0.00  0.00    +0.000 OA
ATOM     19  C   UNL     1       2.724   4.913  17.987  0.00  0.00    +0.000 C 
ATOM     20  N   UNL     1       3.299   6.105  18.392  0.00  0.00    +0.000 N 
ATOM     21  H   UNL     1       4.307   6.172  18.338  0.00  0.00    +0.000 HD
BRANCH  19  22
ATOM     22  C   UNL     1       3.708   3.801  17.820  0.00  0.00    +0.000 C 
ATOM     23  C   UNL     1       3.239   2.366  17.756  0.00  0.00    +0.000 C 
ATOM     24  C   UNL     1       3.967   2.856  18.974  0.00  0.00    +0.000 C 
ENDBRANCH  19  22
ENDBRANCH  12  20
ENDBRANCH   1  15
BRANCH  11  25
ATOM     25  C   UNL     1      -1.309  13.199  21.380  0.00  0.00    +0.000 A 
ATOM     26  C   UNL     1      -2.569  12.690  21.736  0.00  0.00    +0.000 A 
ATOM     27  C   UNL     1      -3.141  12.989  22.980  0.00  0.00    +0.000 A 
ATOM     28  C   UNL     1      -2.464  13.789  23.897  0.00  0.00    +0.000 A 
ATOM     29  C   UNL     1      -1.202  14.280  23.580  0.00  0.00    +0.000 A 
ATOM     30  C   UNL     1      -0.634  13.983  22.343  0.00  0.00    +0.000 A 
ENDBRANCH  11  25
TORSDOF 4
ENDMDL
MODEL 8
REMARK VINA RESULT:      -8.2      2.701      4.269
REMARK  Name = 
REMARK  4 active torsions:
REMARK  status: ('A' for Active; 'I' for Inactive)
REMARK    1  A    between atoms: C_2  and  C_27
REMARK    2  A    between atoms: N_3  and  C_4
REMARK    3  A    between atoms: C_7  and  C_8
REMARK    4  A    between atoms: C_18  and  C_19
REMARK                            x       y       z     vdW  Elec       q    Type
REMARK                         _______ _______ _______ _____ _____    ______ ____
ROOT
ATOM      1  C   UNL     1       1.697   8.178  20.016  0.00  0.00    +0.000 C 
ATOM      2  O   UNL     1       1.684   7.991  21.230  0.00  0.00    +0.000 OA
ATOM      3  N   UNL     1       2.207   7.238  19.104  0.00  0.00    +0.000 N 
ATOM      4  C   UNL     1       2.190   7.352  17.629  0.00  0.00    +0.000 C 
ATOM      5  C   UNL     1       3.611   7.557  17.066  0.00  0.00    +0.000 C 
ATOM      6  C   UNL     1       4.574   6.659  17.784  0.00  0.00    +0.000 A 
ATOM      7  S   UNL     1       6.133   6.337  17.194  0.00  0.00    +0.000 S 
ATOM      8  C   UNL     1       6.467   5.290  18.505  0.00  0.00    +0.000 A 
ATOM      9  C   UNL     1       5.416   5.217  19.394  0.00  0.00    +0.000 A 
ATOM     10  C   UNL     1       4.291   5.998  18.969  0.00  0.00    +0.000 A 
ATOM     11  C   UNL     1       2.928   6.067  19.638  0.00  0.00    +0.000 C 
ENDROOT
BRANCH   1  15
ATOM     12  C   UNL     1       0.166  12.029  18.898  0.00  0.00    +0.000 A 
ATOM     13  C   UNL     1      -0.626  11.145  19.629  0.00  0.00    +0.000 A 
ATOM     14  C   UNL     1      -0.190   9.844  19.878  0.00  0.00    +0.000 A 
ATOM     15  C   UNL     1       1.095   9.448  19.515  0.00  0.00    +0.000 A 
ATOM     16  C   UNL     1       1.837  10.278  18.667  0.00  0.00    +0.000 A 
ATOM     17  C   UNL     1       1.362  11.559  18.343  0.00  0.00    +0.000 A 
BRANCH  12  20
ATOM     18  O   UNL     1       1.262  14.447  20.155  0.00  0.00    +0.000 OA
ATOM     19  C   UNL     1       0.331  14.461  19.363  0.00  0.00    +0.000 C 
ATOM     20  N   UNL     1      -0.198  13.375  18.689  0.00  0.00    +0.000 N 
ATOM     21  H   UNL     1      -0.799  13.570  17.900  0.00  0.00    +0.000 HD
BRANCH  19  22
ATOM     22  C   UNL     1      -0.315  15.760  19.003  0.00  0.00    +0.000 C 
ATOM     23  C   UNL     1       0.008  17.017  19.778  0.00  0.00    +0.000 C 
ATOM     24  C   UNL     1      -1.337  16.369  19.940  0.00  0.00    +0.000 C 
ENDBRANCH  19  22
ENDBRANCH  12  20
ENDBRANCH   1  15
BRANCH  11  25
ATOM     25  C   UNL     1       2.232   4.731  19.334  0.00  0.00    +0.000 A 
ATOM     26  C   UNL     1       1.274   4.241  20.235  0.00  0.00    +0.000 A 
ATOM     27  C   UNL     1       0.643   3.009  20.017  0.00  0.00    +0.000 A 
ATOM     28  C   UNL     1       0.944   2.249  18.890  0.00  0.00    +0.000 A 
ATOM     29  C   UNL     1       1.869   2.726  17.966  0.00  0.00    +0.000 A 
ATOM     30  C   UNL     1       2.496   3.952  18.185  0.00  0.00    +0.000 A 
ENDBRANCH  11  25
TORSDOF 4
ENDMDL
MODEL 9
REMARK VINA RESULT:      -8.2      3.261      9.022
REMARK  Name = 
REMARK  4 active torsions:
REMARK  status: ('A' for Active; 'I' for Inactive)
REMARK    1  A    between atoms: C_2  and  C_27
REMARK    2  A    between atoms: N_3  and  C_4
REMARK    3  A    between atoms: C_7  and  C_8
REMARK    4  A    between atoms: C_18  and  C_19
REMARK                            x       y       z     vdW  Elec       q    Type
REMARK                         _______ _______ _______ _____ _____    ______ ____
ROOT
ATOM      1  C   UNL     1       0.807  10.225  20.679  0.00  0.00    +0.000 C 
ATOM      2  O   UNL     1       1.118  10.472  21.842  0.00  0.00    +0.000 OA
ATOM      3  N   UNL     1       0.081  11.121  19.877  0.00  0.00    +0.000 N 
ATOM      4  C   UNL     1      -0.266  10.934  18.450  0.00  0.00    +0.000 C 
ATOM      5  C   UNL     1      -1.781  10.709  18.267  0.00  0.00    +0.000 C 
ATOM      6  C   UNL     1      -2.543  11.647  19.154  0.00  0.00    +0.000 A 
ATOM      7  S   UNL     1      -4.201  11.947  18.952  0.00  0.00    +0.000 S 
ATOM      8  C   UNL     1      -4.208  13.061  20.252  0.00  0.00    +0.000 A 
ATOM      9  C   UNL     1      -2.971  13.172  20.849  0.00  0.00    +0.000 A 
ATOM     10  C   UNL     1      -1.981  12.364  20.199  0.00  0.00    +0.000 A 
ATOM     11  C   UNL     1      -0.494  12.321  20.513  0.00  0.00    +0.000 C 
ENDROOT
BRANCH   1  15
ATOM     12  C   UNL     1       2.532   6.572  19.226  0.00  0.00    +0.000 A 
ATOM     13  C   UNL     1       2.458   7.691  18.398  0.00  0.00    +0.000 A 
ATOM     14  C   UNL     1       1.778   8.836  18.812  0.00  0.00    +0.000 A 
ATOM     15  C   UNL     1       1.276   8.928  20.108  0.00  0.00    +0.000 A 
ATOM     16  C   UNL     1       1.225   7.770  20.892  0.00  0.00    +0.000 A 
ATOM     17  C   UNL     1       1.835   6.588  20.440  0.00  0.00    +0.000 A 
BRANCH  12  20
ATOM     18  O   UNL     1       1.660   4.204  17.724  0.00  0.00    +0.000 OA
ATOM     19  C   UNL     1       2.774   4.320  18.214  0.00  0.00    +0.000 C 
ATOM     20  N   UNL     1       3.273   5.424  18.881  0.00  0.00    +0.000 N 
ATOM     21  H   UNL     1       4.274   5.466  19.020  0.00  0.00    +0.000 HD
BRANCH  19  22
ATOM     22  C   UNL     1       3.765   3.210  18.071  0.00  0.00    +0.000 C 
ATOM     23  C   UNL     1       3.307   1.770  18.062  0.00  0.00    +0.000 C 
ATOM     24  C   UNL     1       4.048   2.307  19.252  0.00  0.00    +0.000 C 
ENDBRANCH  19  22
ENDBRANCH  12  20
ENDBRANCH   1  15
BRANCH  11  25
ATOM     25  C   UNL     1       0.096  13.637  19.981  0.00  0.00    +0.000 A 
ATOM     26  C   UNL     1       1.414  13.980  20.321  0.00  0.00    +0.000 A 
ATOM     27  C   UNL     1       1.979  15.187  19.889  0.00  0.00    +0.000 A 
ATOM     28  C   UNL     1       1.246  16.069  19.100  0.00  0.00    +0.000 A 
ATOM     29  C   UNL     1      -0.052  15.739  18.724  0.00  0.00    +0.000 A 
ATOM     30  C   UNL     1      -0.612  14.537  19.154  0.00  0.00    +0.000 A 
ENDBRANCH  11  25
TORSDOF 4
ENDMDL
