MODEL 1
REMARK VINA RESULT:      -9.4      0.000      0.000
REMARK  Name = 
REMARK  7 active torsions:
REMARK  status: ('A' for Active; 'I' for Inactive)
REMARK    1  A    between atoms: C_1  and  C_2
REMARK    2  A    between atoms: C_8  and  C_9
REMARK    3  A    between atoms: N_11  and  C_12
REMARK    4  A    between atoms: C_18  and  C_19
REMARK    5  A    between atoms: C_19  and  O_21
REMARK    6  A    between atoms: O_21  and  C_22
REMARK    7  A    between atoms: C_22  and  C_23
REMARK                            x       y       z     vdW  Elec       q    Type
REMARK                         _______ _______ _______ _____ _____    ______ ____
ROOT
ATOM      1  C   UNL     1       2.624   4.885  20.642  0.00  0.00    +0.000 C 
ATOM      2  C   UNL     1       1.625   3.836  21.177  0.00  0.00    +0.000 C 
ATOM      3  C   UNL     1       0.558   3.510  20.107  0.00  0.00    +0.000 C 
ATOM      4  C   UNL     1       1.303   2.585  19.136  0.00  0.00    +0.000 C 
ATOM      5  C   UNL     1       2.746   2.665  19.646  0.00  0.00    +0.000 C 
ATOM      6  C   UNL     1       2.503   2.584  21.158  0.00  0.00    +0.000 C 
ATOM      7  C   UNL     1       3.290   4.112  19.459  0.00  0.00    +0.000 C 
ENDROOT
BRANCH   1  10
ATOM      8  C   UNL     1       2.073   6.713  19.085  0.00  0.00    +0.000 C 
ATOM      9  O   UNL     1       2.391   6.047  18.104  0.00  0.00    +0.000 OA
ATOM     10  N   UNL     1       1.984   6.161  20.348  0.00  0.00    +0.000 N 
ATOM     11  H   UNL     1       1.917   6.844  21.100  0.00  0.00    +0.000 HD
BRANCH   8  19
ATOM     12  C   UNL     1      -0.444   9.858  23.022  0.00  0.00    +0.000 C 
ATOM     13  C   UNL     1       0.273   9.982  21.700  0.00  0.00    +0.000 A 
ATOM     14  C   UNL     1       0.395  11.366  21.139  0.00  0.00    +0.000 A 
ATOM     15  C   UNL     1       0.926  11.448  19.912  0.00  0.00    +0.000 A 
ATOM     16  N   UNL     1       1.351  10.300  19.257  0.00  0.00    +0.000 N 
ATOM     17  N   UNL     1       1.878  10.227  18.015  0.00  0.00    +0.000 NA
ATOM     18  C   UNL     1       2.157   8.936  17.857  0.00  0.00    +0.000 A 
ATOM     19  C   UNL     1       1.832   8.143  18.980  0.00  0.00    +0.000 A 
ATOM     20  C   UNL     1       1.271   9.041  19.878  0.00  0.00    +0.000 A 
ATOM     21  N   UNL     1       0.714   8.893  21.124  0.00  0.00    +0.000 NA
ENDBRANCH   8  19
ENDBRANCH   1  10
BRANCH   7  22
ATOM     22  C   UNL     1       4.799   4.059  19.585  0.00  0.00    +0.000 C 
ATOM     23  O   UNL     1       5.457   3.024  19.544  0.00  0.00    +0.000 OA
BRANCH  22  24
ATOM     24  O   UNL     1       5.337   5.307  19.655  0.00  0.00    +0.000 OA
BRANCH  24  25
ATOM     25  C   UNL     1       6.585   5.481  18.962  0.00  0.00    +0.000 C 
BRANCH  25  26
ATOM     26  C   UNL     1       6.352   5.422  17.471  0.00  0.00    +0.000 A 
ATOM     27  C   UNL     1       6.982   4.450  16.683  0.00  0.00    +0.000 A 
ATOM     28  C   UNL     1       6.754   4.396  15.306  0.00  0.00    +0.000 A 
ATOM     29  C   UNL     1       5.902   5.318  14.702  0.00  0.00    +0.000 A 
ATOM     30  C   UNL     1       5.271   6.291  15.474  0.00  0.00    +0.000 A 
ATOM     31  C   UNL     1       5.495   6.346  16.851  0.00  0.00    +0.000 A 
ENDBRANCH  25  26
ENDBRANCH  24  25
ENDBRANCH  22  24
ENDBRANCH   7  22
TORSDOF 6
ENDMDL
MODEL 2
REMARK VINA RESULT:      -9.1      1.751      2.841
REMARK  Name = 
REMARK  7 active torsions:
REMARK  status: ('A' for Active; 'I' for Inactive)
REMARK    1  A    between atoms: C_1  and  C_2
REMARK    2  A    between atoms: C_8  and  C_9
REMARK    3  A    between atoms: N_11  and  C_12
REMARK    4  A    between atoms: C_18  and  C_19
REMARK    5  A    between atoms: C_19  and  O_21
REMARK    6  A    between atoms: O_21  and  C_22
REMARK    7  A    between atoms: C_22  and  C_23
REMARK                            x       y       z     vdW  Elec       q    Type
REMARK                         _______ _______ _______ _____ _____    ______ ____
ROOT
ATOM      1  C   UNL     1       2.443   5.176  20.057  0.00  0.00    +0.000 C 
ATOM      2  C   UNL     1       2.948   4.218  21.157  0.00  0.00    +0.000 C 
ATOM      3  C   UNL     1       1.760   3.504  21.841  0.00  0.00    +0.000 C 
ATOM      4  C   UNL     1       1.360   2.430  20.821  0.00  0.00    +0.000 C 
ATOM      5  C   UNL     1       2.219   2.793  19.606  0.00  0.00    +0.000 C 
ATOM      6  C   UNL     1       3.550   3.106  20.299  0.00  0.00    +0.000 C 
ATOM      7  C   UNL     1       1.782   4.181  19.050  0.00  0.00    +0.000 C 
ENDROOT
BRANCH   1  10
ATOM      8  C   UNL     1       1.740   7.537  20.107  0.00  0.00    +0.000 C 
ATOM      9  O   UNL     1       2.277   7.777  19.030  0.00  0.00    +0.000 OA
ATOM     10  N   UNL     1       1.616   6.251  20.594  0.00  0.00    +0.000 N 
ATOM     11  H   UNL     1       1.345   6.198  21.574  0.00  0.00    +0.000 HD
BRANCH   8  19
ATOM     12  C   UNL     1      -1.721  11.665  18.462  0.00  0.00    +0.000 C 
ATOM     13  C   UNL     1      -1.058  11.111  19.699  0.00  0.00    +0.000 A 
ATOM     14  C   UNL     1      -1.322  11.845  20.979  0.00  0.00    +0.000 A 
ATOM     15  C   UNL     1      -0.633  11.416  22.045  0.00  0.00    +0.000 A 
ATOM     16  N   UNL     1       0.233  10.336  21.927  0.00  0.00    +0.000 N 
ATOM     17  N   UNL     1       1.007   9.813  22.903  0.00  0.00    +0.000 NA
ATOM     18  C   UNL     1       1.616   8.785  22.317  0.00  0.00    +0.000 A 
ATOM     19  C   UNL     1       1.254   8.607  20.962  0.00  0.00    +0.000 A 
ATOM     20  C   UNL     1       0.374   9.651  20.707  0.00  0.00    +0.000 A 
ATOM     21  N   UNL     1      -0.288  10.061  19.577  0.00  0.00    +0.000 NA
ENDBRANCH   8  19
ENDBRANCH   1  10
BRANCH   7  22
ATOM     22  C   UNL     1       2.349   4.319  17.652  0.00  0.00    +0.000 C 
ATOM     23  O   UNL     1       1.916   3.721  16.671  0.00  0.00    +0.000 OA
BRANCH  22  24
ATOM     24  O   UNL     1       3.334   5.257  17.603  0.00  0.00    +0.000 OA
BRANCH  24  25
ATOM     25  C   UNL     1       4.517   4.872  16.884  0.00  0.00    +0.000 C 
BRANCH  25  26
ATOM     26  C   UNL     1       5.727   5.530  17.505  0.00  0.00    +0.000 A 
ATOM     27  C   UNL     1       6.351   6.621  16.884  0.00  0.00    +0.000 A 
ATOM     28  C   UNL     1       7.464   7.228  17.469  0.00  0.00    +0.000 A 
ATOM     29  C   UNL     1       7.969   6.749  18.676  0.00  0.00    +0.000 A 
ATOM     30  C   UNL     1       7.359   5.664  19.302  0.00  0.00    +0.000 A 
ATOM     31  C   UNL     1       6.245   5.056  18.720  0.00  0.00    +0.000 A 
ENDBRANCH  25  26
ENDBRANCH  24  25
ENDBRANCH  22  24
ENDBRANCH   7  22
TORSDOF 6
ENDMDL
MODEL 3
REMARK VINA RESULT:      -9.0      1.438      2.140
REMARK  Name = 
REMARK  7 active torsions:
REMARK  status: ('A' for Active; 'I' for Inactive)
REMARK    1  A    between atoms: C_1  and  C_2
REMARK    2  A    between atoms: C_8  and  C_9
REMARK    3  A    between atoms: N_11  and  C_12
REMARK    4  A    between atoms: C_18  and  C_19
REMARK    5  A    between atoms: C_19  and  O_21
REMARK    6  A    between atoms: O_21  and  C_22
REMARK    7  A    between atoms: C_22  and  C_23
REMARK                            x       y       z     vdW  Elec       q    Type
REMARK                         _______ _______ _______ _____ _____    ______ ____
ROOT
ATOM      1  C   UNL     1       2.652   5.238  18.983  0.00  0.00    +0.000 C 
ATOM      2  C   UNL     1       2.808   4.792  20.453  0.00  0.00    +0.000 C 
ATOM      3  C   UNL     1       1.423   4.556  21.097  0.00  0.00    +0.000 C 
ATOM      4  C   UNL     1       0.998   3.195  20.529  0.00  0.00    +0.000 C 
ATOM      5  C   UNL     1       2.081   2.923  19.481  0.00  0.00    +0.000 C 
ATOM      6  C   UNL     1       3.326   3.367  20.256  0.00  0.00    +0.000 C 
ATOM      7  C   UNL     1       1.986   3.979  18.341  0.00  0.00    +0.000 C 
ENDROOT
BRANCH   1  10
ATOM      8  C   UNL     1       2.572   7.587  18.246  0.00  0.00    +0.000 C 
ATOM      9  O   UNL     1       3.547   7.448  17.514  0.00  0.00    +0.000 OA
ATOM     10  N   UNL     1       1.958   6.514  18.861  0.00  0.00    +0.000 N 
ATOM     11  H   UNL     1       1.302   6.771  19.596  0.00  0.00    +0.000 HD
BRANCH   8  19
ATOM     12  C   UNL     1      -0.519   8.836  22.786  0.00  0.00    +0.000 C 
ATOM     13  C   UNL     1       0.154   9.493  21.606  0.00  0.00    +0.000 A 
ATOM     14  C   UNL     1      -0.009  10.978  21.491  0.00  0.00    +0.000 A 
ATOM     15  C   UNL     1       0.490  11.530  20.377  0.00  0.00    +0.000 A 
ATOM     16  N   UNL     1       1.137  10.741  19.436  0.00  0.00    +0.000 N 
ATOM     17  N   UNL     1       1.665  11.152  18.263  0.00  0.00    +0.000 NA
ATOM     18  C   UNL     1       2.200  10.050  17.743  0.00  0.00    +0.000 A 
ATOM     19  C   UNL     1       2.045   8.906  18.558  0.00  0.00    +0.000 A 
ATOM     20  C   UNL     1       1.316   9.362  19.649  0.00  0.00    +0.000 A 
ATOM     21  N   UNL     1       0.805   8.738  20.759  0.00  0.00    +0.000 NA
ENDBRANCH   8  19
ENDBRANCH   1  10
BRANCH   7  22
ATOM     22  C   UNL     1       2.772   3.455  17.156  0.00  0.00    +0.000 C 
ATOM     23  O   UNL     1       2.561   2.374  16.614  0.00  0.00    +0.000 OA
BRANCH  22  24
ATOM     24  O   UNL     1       3.677   4.370  16.714  0.00  0.00    +0.000 OA
BRANCH  24  25
ATOM     25  C   UNL     1       5.025   3.890  16.579  0.00  0.00    +0.000 C 
BRANCH  25  26
ATOM     26  C   UNL     1       5.979   4.859  17.238  0.00  0.00    +0.000 A 
ATOM     27  C   UNL     1       6.531   5.926  16.517  0.00  0.00    +0.000 A 
ATOM     28  C   UNL     1       7.405   6.823  17.135  0.00  0.00    +0.000 A 
ATOM     29  C   UNL     1       7.742   6.658  18.477  0.00  0.00    +0.000 A 
ATOM     30  C   UNL     1       7.201   5.599  19.205  0.00  0.00    +0.000 A 
ATOM     31  C   UNL     1       6.326   4.703  18.589  0.00  0.00    +0.000 A 
ENDBRANCH  25  26
ENDBRANCH  24  25
ENDBRANCH  22  24
ENDBRANCH   7  22
TORSDOF 6
ENDMDL
MODEL 4
REMARK VINA RESULT:      -9.0      1.330      1.739
REMARK  Name = 
REMARK  7 active torsions:
REMARK  status: ('A' for Active; 'I' for Inactive)
REMARK    1  A    between atoms: C_1  and  C_2
REMARK    2  A    between atoms: C_8  and  C_9
REMARK    3  A    between atoms: N_11  and  C_12
REMARK    4  A    between atoms: C_18  and  C_19
REMARK    5  A    between atoms: C_19  and  O_21
REMARK    6  A    between atoms: O_21  and  C_22
REMARK    7  A    between atoms: C_22  and  C_23
REMARK                            x       y       z     vdW  Elec       q    Type
REMARK                         _______ _______ _______ _____ _____    ______ ____
ROOT
ATOM      1  C   UNL     1       2.896   5.016  19.642  0.00  0.00    +0.000 C 
ATOM      2  C   UNL     1       2.203   4.130  20.700  0.00  0.00    +0.000 C 
ATOM      3  C   UNL     1       0.877   3.561  20.145  0.00  0.00    +0.000 C 
ATOM      4  C   UNL     1       1.340   2.428  19.220  0.00  0.00    +0.000 C 
ATOM      5  C   UNL     1       2.860   2.622  19.195  0.00  0.00    +0.000 C 
ATOM      6  C   UNL     1       3.120   2.907  20.679  0.00  0.00    +0.000 C 
ATOM      7  C   UNL     1       3.205   3.979  18.515  0.00  0.00    +0.000 C 
ENDROOT
BRANCH   1  10
ATOM      8  C   UNL     1       2.683   7.258  18.643  0.00  0.00    +0.000 C 
ATOM      9  O   UNL     1       3.757   7.159  18.057  0.00  0.00    +0.000 OA
ATOM     10  N   UNL     1       2.102   6.187  19.292  0.00  0.00    +0.000 N 
ATOM     11  H   UNL     1       1.329   6.439  19.906  0.00  0.00    +0.000 HD
BRANCH   8  19
ATOM     12  C   UNL     1       0.136   9.212  23.270  0.00  0.00    +0.000 C 
ATOM     13  C   UNL     1       0.503   9.628  21.867  0.00  0.00    +0.000 A 
ATOM     14  C   UNL     1       0.072  11.000  21.447  0.00  0.00    +0.000 A 
ATOM     15  C   UNL     1       0.296  11.309  20.163  0.00  0.00    +0.000 A 
ATOM     16  N   UNL     1       0.922  10.397  19.324  0.00  0.00    +0.000 N 
ATOM     17  N   UNL     1       1.190  10.560  18.010  0.00  0.00    +0.000 NA
ATOM     18  C   UNL     1       1.823   9.441  17.667  0.00  0.00    +0.000 A 
ATOM     19  C   UNL     1       1.990   8.532  18.736  0.00  0.00    +0.000 A 
ATOM     20  C   UNL     1       1.365   9.153  19.810  0.00  0.00    +0.000 A 
ATOM     21  N   UNL     1       1.139   8.772  21.109  0.00  0.00    +0.000 NA
ENDBRANCH   8  19
ENDBRANCH   1  10
BRANCH   7  22
ATOM     22  C   UNL     1       4.674   3.953  18.146  0.00  0.00    +0.000 C 
ATOM     23  O   UNL     1       5.584   3.805  18.956  0.00  0.00    +0.000 OA
BRANCH  22  24
ATOM     24  O   UNL     1       4.851   4.019  16.799  0.00  0.00    +0.000 OA
BRANCH  24  25
ATOM     25  C   UNL     1       5.903   4.894  16.356  0.00  0.00    +0.000 C 
BRANCH  25  26
ATOM     26  C   UNL     1       6.232   4.604  14.910  0.00  0.00    +0.000 A 
ATOM     27  C   UNL     1       5.464   3.698  14.167  0.00  0.00    +0.000 A 
ATOM     28  C   UNL     1       5.769   3.442  12.828  0.00  0.00    +0.000 A 
ATOM     29  C   UNL     1       6.848   4.082  12.222  0.00  0.00    +0.000 A 
ATOM     30  C   UNL     1       7.621   4.983  12.951  0.00  0.00    +0.000 A 
ATOM     31  C   UNL     1       7.316   5.242  14.289  0.00  0.00    +0.000 A 
ENDBRANCH  25  26
ENDBRANCH  24  25
ENDBRANCH  22  24
ENDBRANCH   7  22
TORSDOF 6
ENDMDL
MODEL 5
REMARK VINA RESULT:      -8.9      1.116      1.670
REMARK  Name = 
REMARK  7 active torsions:
REMARK  status: ('A' for Active; 'I' for Inactive)
REMARK    1  A    between atoms: C_1  and  C_2
REMARK    2  A    between atoms: C_8  and  C_9
REMARK    3  A    between atoms: N_11  and  C_12
REMARK    4  A    between atoms: C_18  and  C_19
REMARK    5  A    between atoms: C_19  and  O_21
REMARK    6  A    between atoms: O_21  and  C_22
REMARK    7  A    between atoms: C_22  and  C_23
REMARK                            x       y       z     vdW  Elec       q    Type
REMARK                         _______ _______ _______ _____ _____    ______ ____
ROOT
ATOM      1  C   UNL     1       2.696   4.928  20.059  0.00  0.00    +0.000 C 
ATOM      2  C   UNL     1       1.894   4.042  21.036  0.00  0.00    +0.000 C 
ATOM      3  C   UNL     1       0.613   3.506  20.355  0.00  0.00    +0.000 C 
ATOM      4  C   UNL     1       1.137   2.376  19.460  0.00  0.00    +0.000 C 
ATOM      5  C   UNL     1       2.656   2.541  19.576  0.00  0.00    +0.000 C 
ATOM      6  C   UNL     1       2.786   2.801  21.081  0.00  0.00    +0.000 C 
ATOM      7  C   UNL     1       3.087   3.899  18.949  0.00  0.00    +0.000 C 
ENDROOT
BRANCH   1  10
ATOM      8  C   UNL     1       2.567   7.090  18.886  0.00  0.00    +0.000 C 
ATOM      9  O   UNL     1       3.595   6.871  18.253  0.00  0.00    +0.000 OA
ATOM     10  N   UNL     1       1.958   6.118  19.656  0.00  0.00    +0.000 N 
ATOM     11  H   UNL     1       1.243   6.472  20.288  0.00  0.00    +0.000 HD
BRANCH   8  19
ATOM     12  C   UNL     1      -0.032   9.372  23.331  0.00  0.00    +0.000 C 
ATOM     13  C   UNL     1       0.424   9.714  21.934  0.00  0.00    +0.000 A 
ATOM     14  C   UNL     1       0.112  11.099  21.453  0.00  0.00    +0.000 A 
ATOM     15  C   UNL     1       0.414  11.349  20.173  0.00  0.00    +0.000 A 
ATOM     16  N   UNL     1       1.008  10.367  19.391  0.00  0.00    +0.000 N 
ATOM     17  N   UNL     1       1.344  10.466  18.087  0.00  0.00    +0.000 NA
ATOM     18  C   UNL     1       1.909   9.294  17.807  0.00  0.00    +0.000 A 
ATOM     19  C   UNL     1       1.964   8.413  18.910  0.00  0.00    +0.000 A 
ATOM     20  C   UNL     1       1.338   9.112  19.934  0.00  0.00    +0.000 A 
ATOM     21  N   UNL     1       1.030   8.791  21.233  0.00  0.00    +0.000 NA
ENDBRANCH   8  19
ENDBRANCH   1  10
BRANCH   7  22
ATOM     22  C   UNL     1       4.583   3.848  18.715  0.00  0.00    +0.000 C 
ATOM     23  O   UNL     1       5.394   3.431  19.536  0.00  0.00    +0.000 OA
BRANCH  22  24
ATOM     24  O   UNL     1       4.903   4.236  17.451  0.00  0.00    +0.000 OA
BRANCH  24  25
ATOM     25  C   UNL     1       6.305   4.211  17.133  0.00  0.00    +0.000 C 
BRANCH  25  26
ATOM     26  C   UNL     1       6.947   5.511  17.557  0.00  0.00    +0.000 A 
ATOM     27  C   UNL     1       7.781   5.567  18.682  0.00  0.00    +0.000 A 
ATOM     28  C   UNL     1       8.377   6.772  19.063  0.00  0.00    +0.000 A 
ATOM     29  C   UNL     1       8.140   7.932  18.329  0.00  0.00    +0.000 A 
ATOM     30  C   UNL     1       7.311   7.890  17.210  0.00  0.00    +0.000 A 
ATOM     31  C   UNL     1       6.715   6.686  16.826  0.00  0.00    +0.000 A 
ENDBRANCH  25  26
ENDBRANCH  24  25
ENDBRANCH  22  24
ENDBRANCH   7  22
TORSDOF 6
ENDMDL
MODEL 6
REMARK VINA RESULT:      -8.7      1.266      4.473
REMARK  Name = 
REMARK  7 active torsions:
REMARK  status: ('A' for Active; 'I' for Inactive)
REMARK    1  A    between atoms: C_1  and  C_2
REMARK    2  A    between atoms: C_8  and  C_9
REMARK    3  A    between atoms: N_11  and  C_12
REMARK    4  A    between atoms: C_18  and  C_19
REMARK    5  A    between atoms: C_19  and  O_21
REMARK    6  A    between atoms: O_21  and  C_22
REMARK    7  A    between atoms: C_22  and  C_23
REMARK                            x       y       z     vdW  Elec       q    Type
REMARK                         _______ _______ _______ _____ _____    ______ ____
ROOT
ATOM      1  C   UNL     1       5.007   6.395  17.493  0.00  0.00    +0.000 C 
ATOM      2  C   UNL     1       6.215   6.944  16.703  0.00  0.00    +0.000 C 
ATOM      3  C   UNL     1       7.141   7.764  17.630  0.00  0.00    +0.000 C 
ATOM      4  C   UNL     1       7.900   6.685  18.413  0.00  0.00    +0.000 C 
ATOM      5  C   UNL     1       7.174   5.402  17.995  0.00  0.00    +0.000 C 
ATOM      6  C   UNL     1       7.015   5.659  16.492  0.00  0.00    +0.000 C 
ATOM      7  C   UNL     1       5.706   5.438  18.511  0.00  0.00    +0.000 C 
ENDROOT
BRANCH   1  10
ATOM      8  C   UNL     1       2.904   7.169  18.516  0.00  0.00    +0.000 C 
ATOM      9  O   UNL     1       2.571   6.029  18.825  0.00  0.00    +0.000 OA
ATOM     10  N   UNL     1       4.162   7.457  18.025  0.00  0.00    +0.000 N 
ATOM     11  H   UNL     1       4.250   8.385  17.615  0.00  0.00    +0.000 HD
BRANCH   8  19
ATOM     12  C   UNL     1       0.608   9.126  23.272  0.00  0.00    +0.000 C 
ATOM     13  C   UNL     1       0.690   9.428  21.796  0.00  0.00    +0.000 A 
ATOM     14  C   UNL     1      -0.083  10.620  21.318  0.00  0.00    +0.000 A 
ATOM     15  C   UNL     1      -0.099  10.805  19.992  0.00  0.00    +0.000 A 
ATOM     16  N   UNL     1       0.598   9.942  19.158  0.00  0.00    +0.000 N 
ATOM     17  N   UNL     1       0.652   9.990  17.809  0.00  0.00    +0.000 NA
ATOM     18  C   UNL     1       1.466   8.990  17.481  0.00  0.00    +0.000 A 
ATOM     19  C   UNL     1       1.965   8.276  18.594  0.00  0.00    +0.000 A 
ATOM     20  C   UNL     1       1.362   8.886  19.686  0.00  0.00    +0.000 A 
ATOM     21  N   UNL     1       1.396   8.633  21.035  0.00  0.00    +0.000 NA
ENDBRANCH   8  19
ENDBRANCH   1  10
BRANCH   7  22
ATOM     22  C   UNL     1       5.156   4.027  18.443  0.00  0.00    +0.000 C 
ATOM     23  O   UNL     1       4.727   3.505  17.419  0.00  0.00    +0.000 OA
BRANCH  22  24
ATOM     24  O   UNL     1       5.285   3.383  19.634  0.00  0.00    +0.000 OA
BRANCH  24  25
ATOM     25  C   UNL     1       4.509   2.181  19.774  0.00  0.00    +0.000 C 
BRANCH  25  26
ATOM     26  C   UNL     1       3.042   2.530  19.859  0.00  0.00    +0.000 A 
ATOM     27  C   UNL     1       2.149   2.131  18.855  0.00  0.00    +0.000 A 
ATOM     28  C   UNL     1       0.793   2.449  18.945  0.00  0.00    +0.000 A 
ATOM     29  C   UNL     1       0.315   3.176  20.034  0.00  0.00    +0.000 A 
ATOM     30  C   UNL     1       1.193   3.580  21.038  0.00  0.00    +0.000 A 
ATOM     31  C   UNL     1       2.550   3.261  20.951  0.00  0.00    +0.000 A 
ENDBRANCH  25  26
ENDBRANCH  24  25
ENDBRANCH  22  24
ENDBRANCH   7  22
TORSDOF 6
ENDMDL
MODEL 7
REMARK VINA RESULT:      -8.6      1.744      3.134
REMARK  Name = 
REMARK  7 active torsions:
REMARK  status: ('A' for Active; 'I' for Inactive)
REMARK    1  A    between atoms: C_1  and  C_2
REMARK    2  A    between atoms: C_8  and  C_9
REMARK    3  A    between atoms: N_11  and  C_12
REMARK    4  A    between atoms: C_18  and  C_19
REMARK    5  A    between atoms: C_19  and  O_21
REMARK    6  A    between atoms: O_21  and  C_22
REMARK    7  A    between atoms: C_22  and  C_23
REMARK                            x       y       z     vdW  Elec       q    Type
REMARK                         _______ _______ _______ _____ _____    ______ ____
ROOT
ATOM      1  C   UNL     1       2.431   5.868  20.148  0.00  0.00    +0.000 C 
ATOM      2  C   UNL     1       2.529   4.520  20.894  0.00  0.00    +0.000 C 
ATOM      3  C   UNL     1       1.176   3.775  20.847  0.00  0.00    +0.000 C 
ATOM      4  C   UNL     1       1.138   3.203  19.424  0.00  0.00    +0.000 C 
ATOM      5  C   UNL     1       2.359   3.860  18.772  0.00  0.00    +0.000 C 
ATOM      6  C   UNL     1       3.380   3.720  19.907  0.00  0.00    +0.000 C 
ATOM      7  C   UNL     1       2.144   5.400  18.686  0.00  0.00    +0.000 C 
ENDROOT
BRANCH   1  10
ATOM      8  C   UNL     1       1.491   8.124  20.459  0.00  0.00    +0.000 C 
ATOM      9  O   UNL     1       2.046   8.554  19.453  0.00  0.00    +0.000 OA
ATOM     10  N   UNL     1       1.478   6.779  20.771  0.00  0.00    +0.000 N 
ATOM     11  H   UNL     1       1.173   6.572  21.720  0.00  0.00    +0.000 HD
BRANCH   8  19
ATOM     12  C   UNL     1      -1.964  12.367  19.122  0.00  0.00    +0.000 C 
ATOM     13  C   UNL     1      -1.414  11.633  20.321  0.00  0.00    +0.000 A 
ATOM     14  C   UNL     1      -1.851  12.133  21.664  0.00  0.00    +0.000 A 
ATOM     15  C   UNL     1      -1.263  11.551  22.717  0.00  0.00    +0.000 A 
ATOM     16  N   UNL     1      -0.338  10.533  22.526  0.00  0.00    +0.000 N 
ATOM     17  N   UNL     1       0.349   9.876  23.486  0.00  0.00    +0.000 NA
ATOM     18  C   UNL     1       1.067   8.979  22.815  0.00  0.00    +0.000 A 
ATOM     19  C   UNL     1       0.864   9.021  21.417  0.00  0.00    +0.000 A 
ATOM     20  C   UNL     1      -0.032  10.067  21.235  0.00  0.00    +0.000 A 
ATOM     21  N   UNL     1      -0.585  10.641  20.118  0.00  0.00    +0.000 NA
ENDBRANCH   8  19
ENDBRANCH   1  10
BRANCH   7  22
ATOM     22  C   UNL     1       3.150   5.953  17.697  0.00  0.00    +0.000 C 
ATOM     23  O   UNL     1       3.300   7.149  17.464  0.00  0.00    +0.000 OA
BRANCH  22  24
ATOM     24  O   UNL     1       3.928   4.968  17.173  0.00  0.00    +0.000 OA
BRANCH  24  25
ATOM     25  C   UNL     1       5.019   5.414  16.350  0.00  0.00    +0.000 C 
BRANCH  25  26
ATOM     26  C   UNL     1       6.145   5.913  17.224  0.00  0.00    +0.000 A 
ATOM     27  C   UNL     1       6.738   7.161  16.988  0.00  0.00    +0.000 A 
ATOM     28  C   UNL     1       7.773   7.620  17.806  0.00  0.00    +0.000 A 
ATOM     29  C   UNL     1       8.230   6.834  18.862  0.00  0.00    +0.000 A 
ATOM     30  C   UNL     1       7.650   5.591  19.105  0.00  0.00    +0.000 A 
ATOM     31  C   UNL     1       6.614   5.131  18.290  0.00  0.00    +0.000 A 
ENDBRANCH  25  26
ENDBRANCH  24  25
ENDBRANCH  22  24
ENDBRANCH   7  22
TORSDOF 6
ENDMDL
MODEL 8
REMARK VINA RESULT:      -8.5      1.156      4.136
REMARK  Name = 
REMARK  7 active torsions:
REMARK  status: ('A' for Active; 'I' for Inactive)
REMARK    1  A    between atoms: C_1  and  C_2
REMARK    2  A    between atoms: C_8  and  C_9
REMARK    3  A    between atoms: N_11  and  C_12
REMARK    4  A    between atoms: C_18  and  C_19
REMARK    5  A    between atoms: C_19  and  O_21
REMARK    6  A    between atoms: O_21  and  C_22
REMARK    7  A    between atoms: C_22  and  C_23
REMARK                            x       y       z     vdW  Elec       q    Type
REMARK                         _______ _______ _______ _____ _____    ______ ____
ROOT
ATOM      1  C   UNL     1       4.464   5.690  17.688  0.00  0.00    +0.000 C 
ATOM      2  C   UNL     1       4.453   5.257  16.206  0.00  0.00    +0.000 C 
ATOM      3  C   UNL     1       5.254   6.259  15.343  0.00  0.00    +0.000 C 
ATOM      4  C   UNL     1       6.713   5.891  15.639  0.00  0.00    +0.000 C 
ATOM      5  C   UNL     1       6.573   4.878  16.780  0.00  0.00    +0.000 C 
ATOM      6  C   UNL     1       5.390   4.051  16.263  0.00  0.00    +0.000 C 
ATOM      7  C   UNL     1       5.983   5.581  18.037  0.00  0.00    +0.000 C 
ENDROOT
BRANCH   1  10
ATOM      8  C   UNL     1       2.924   7.147  18.944  0.00  0.00    +0.000 C 
ATOM      9  O   UNL     1       2.895   6.382  19.903  0.00  0.00    +0.000 OA
ATOM     10  N   UNL     1       3.807   6.974  17.896  0.00  0.00    +0.000 N 
ATOM     11  H   UNL     1       3.598   7.541  17.075  0.00  0.00    +0.000 HD
BRANCH   8  19
ATOM     12  C   UNL     1       0.061   9.403  23.238  0.00  0.00    +0.000 C 
ATOM     13  C   UNL     1       0.324   9.605  21.765  0.00  0.00    +0.000 A 
ATOM     14  C   UNL     1      -0.384  10.755  21.116  0.00  0.00    +0.000 A 
ATOM     15  C   UNL     1      -0.238  10.850  19.788  0.00  0.00    +0.000 A 
ATOM     16  N   UNL     1       0.557   9.938  19.107  0.00  0.00    +0.000 N 
ATOM     17  N   UNL     1       0.776   9.894  17.775  0.00  0.00    +0.000 NA
ATOM     18  C   UNL     1       1.624   8.881  17.618  0.00  0.00    +0.000 A 
ATOM     19  C   UNL     1       1.983   8.249  18.830  0.00  0.00    +0.000 A 
ATOM     20  C   UNL     1       1.251   8.926  19.796  0.00  0.00    +0.000 A 
ATOM     21  N   UNL     1       1.119   8.766  21.153  0.00  0.00    +0.000 NA
ENDBRANCH   8  19
ENDBRANCH   1  10
BRANCH   7  22
ATOM     22  C   UNL     1       6.234   4.683  19.231  0.00  0.00    +0.000 C 
ATOM     23  O   UNL     1       6.919   5.001  20.199  0.00  0.00    +0.000 OA
BRANCH  22  24
ATOM     24  O   UNL     1       5.532   3.522  19.138  0.00  0.00    +0.000 OA
BRANCH  24  25
ATOM     25  C   UNL     1       4.808   3.141  20.321  0.00  0.00    +0.000 C 
BRANCH  25  26
ATOM     26  C   UNL     1       3.346   2.958  19.986  0.00  0.00    +0.000 A 
ATOM     27  C   UNL     1       2.356   3.165  20.956  0.00  0.00    +0.000 A 
ATOM     28  C   UNL     1       1.006   3.001  20.636  0.00  0.00    +0.000 A 
ATOM     29  C   UNL     1       0.633   2.623  19.347  0.00  0.00    +0.000 A 
ATOM     30  C   UNL     1       1.609   2.413  18.375  0.00  0.00    +0.000 A 
ATOM     31  C   UNL     1       2.959   2.577  18.692  0.00  0.00    +0.000 A 
ENDBRANCH  25  26
ENDBRANCH  24  25
ENDBRANCH  22  24
ENDBRANCH   7  22
TORSDOF 6
ENDMDL
MODEL 9
REMARK VINA RESULT:      -8.4      2.517      3.415
REMARK  Name = 
REMARK  7 active torsions:
REMARK  status: ('A' for Active; 'I' for Inactive)
REMARK    1  A    between atoms: C_1  and  C_2
REMARK    2  A    between atoms: C_8  and  C_9
REMARK    3  A    between atoms: N_11  and  C_12
REMARK    4  A    between atoms: C_18  and  C_19
REMARK    5  A    between atoms: C_19  and  O_21
REMARK    6  A    between atoms: O_21  and  C_22
REMARK    7  A    between atoms: C_22  and  C_23
REMARK                            x       y       z     vdW  Elec       q    Type
REMARK                         _______ _______ _______ _____ _____    ______ ____
ROOT
ATOM      1  C   UNL     1       2.768   6.605  19.023  0.00  0.00    +0.000 C 
ATOM      2  C   UNL     1       2.610   5.587  20.173  0.00  0.00    +0.000 C 
ATOM      3  C   UNL     1       1.363   4.703  19.946  0.00  0.00    +0.000 C 
ATOM      4  C   UNL     1       1.825   3.709  18.872  0.00  0.00    +0.000 C 
ATOM      5  C   UNL     1       3.192   4.272  18.470  0.00  0.00    +0.000 C 
ATOM      6  C   UNL     1       3.756   4.627  19.850  0.00  0.00    +0.000 C 
ATOM      7  C   UNL     1       3.010   5.665  17.799  0.00  0.00    +0.000 C 
ENDROOT
BRANCH   1  10
ATOM      8  C   UNL     1       1.820   8.788  18.386  0.00  0.00    +0.000 C 
ATOM      9  O   UNL     1       2.767   9.046  17.649  0.00  0.00    +0.000 OA
ATOM     10  N   UNL     1       1.652   7.541  18.954  0.00  0.00    +0.000 N 
ATOM     11  H   UNL     1       0.958   7.510  19.699  0.00  0.00    +0.000 HD
BRANCH   8  19
ATOM     12  C   UNL     1      -2.995   9.793  15.643  0.00  0.00    +0.000 C 
ATOM     13  C   UNL     1      -2.242  10.205  16.884  0.00  0.00    +0.000 A 
ATOM     14  C   UNL     1      -2.894  11.248  17.741  0.00  0.00    +0.000 A 
ATOM     15  C   UNL     1      -2.161  11.691  18.771  0.00  0.00    +0.000 A 
ATOM     16  N   UNL     1      -0.899  11.163  19.008  0.00  0.00    +0.000 N 
ATOM     17  N   UNL     1      -0.043  11.527  19.987  0.00  0.00    +0.000 NA
ATOM     18  C   UNL     1       1.000  10.717  19.824  0.00  0.00    +0.000 A 
ATOM     19  C   UNL     1       0.850   9.807  18.752  0.00  0.00    +0.000 A 
ATOM     20  C   UNL     1      -0.383  10.132  18.202  0.00  0.00    +0.000 A 
ATOM     21  N   UNL     1      -1.078   9.657  17.118  0.00  0.00    +0.000 NA
ENDBRANCH   8  19
ENDBRANCH   1  10
BRANCH   7  22
ATOM     22  C   UNL     1       4.293   5.997  17.065  0.00  0.00    +0.000 C 
ATOM     23  O   UNL     1       4.968   7.000  17.277  0.00  0.00    +0.000 OA
BRANCH  22  24
ATOM     24  O   UNL     1       4.650   5.001  16.210  0.00  0.00    +0.000 OA
BRANCH  24  25
ATOM     25  C   UNL     1       6.064   4.780  16.075  0.00  0.00    +0.000 C 
BRANCH  25  26
ATOM     26  C   UNL     1       6.411   4.574  14.620  0.00  0.00    +0.000 A 
ATOM     27  C   UNL     1       7.440   5.308  14.015  0.00  0.00    +0.000 A 
ATOM     28  C   UNL     1       7.760   5.105  12.671  0.00  0.00    +0.000 A 
ATOM     29  C   UNL     1       7.051   4.173  11.916  0.00  0.00    +0.000 A 
ATOM     30  C   UNL     1       6.024   3.438  12.505  0.00  0.00    +0.000 A 
ATOM     31  C   UNL     1       5.703   3.638  13.849  0.00  0.00    +0.000 A 
ENDBRANCH  25  26
ENDBRANCH  24  25
ENDBRANCH  22  24
ENDBRANCH   7  22
TORSDOF 6
ENDMDL
