MODEL 1
REMARK VINA RESULT:      -9.4      0.000      0.000
REMARK  Name = 
REMARK  4 active torsions:
REMARK  status: ('A' for Active; 'I' for Inactive)
REMARK    1  A    between atoms: C_2  and  C_13
REMARK    2  A    between atoms: C_7  and  C_8
REMARK    3  A    between atoms: N_16  and  S_17
REMARK    4  A    between atoms: S_17  and  C_20
REMARK                            x       y       z     vdW  Elec       q    Type
REMARK                         _______ _______ _______ _____ _____    ______ ____
ROOT
ATOM      1  C   UNL     1       2.210   3.094  19.118  0.00  0.00    +0.000 C 
ATOM      2  C   UNL     1       3.533   2.530  19.651  0.00  0.00    +0.000 C 
ATOM      3  C   UNL     1       4.723   3.419  19.293  0.00  0.00    +0.000 C 
ATOM      4  N   UNL     1       4.792   3.726  17.831  0.00  0.00    +0.000 NA
ATOM      5  C   UNL     1       3.487   4.180  17.250  0.00  0.00    +0.000 C 
ATOM      6  C   UNL     1       2.355   3.219  17.603  0.00  0.00    +0.000 C 
ENDROOT
BRANCH   1   8
ATOM      7  O   UNL     1       1.117   4.424  20.805  0.00  0.00    +0.000 OA
ATOM      8  C   UNL     1       1.837   4.420  19.810  0.00  0.00    +0.000 C 
ATOM      9  N   UNL     1       2.308   5.540  19.166  0.00  0.00    +0.000 N 
ATOM     10  C   UNL     1       2.031   6.816  19.575  0.00  0.00    +0.000 A 
ATOM     11  N   UNL     1       2.127   7.851  18.734  0.00  0.00    +0.000 NA
ATOM     12  N   UNL     1       1.694   8.866  19.503  0.00  0.00    +0.000 N 
ATOM     13  C   UNL     1       1.460   8.451  20.779  0.00  0.00    +0.000 A 
ATOM     14  N   UNL     1       1.662   7.155  20.843  0.00  0.00    +0.000 NA
ATOM     15  H   UNL     1       2.692   5.490  18.237  0.00  0.00    +0.000 HD
ATOM     16  H   UNL     1       1.591   9.792  19.103  0.00  0.00    +0.000 HD
BRANCH  13  17
ATOM     17  C   UNL     1       1.005   9.335  21.924  0.00  0.00    +0.000 C 
ATOM     18  C   UNL     1      -0.390   8.949  22.508  0.00  0.00    +0.000 C 
ATOM     19  C   UNL     1      -0.692  10.454  22.618  0.00  0.00    +0.000 C 
ATOM     20  C   UNL     1       0.315  10.657  21.475  0.00  0.00    +0.000 C 
ENDBRANCH  13  17
ENDBRANCH   1   8
BRANCH   4  21
ATOM     21  S   UNL     1       6.057   4.870  17.473  0.00  0.00    +0.000 S 
ATOM     22  O   UNL     1       5.516   6.203  17.641  0.00  0.00    +0.000 OA
ATOM     23  O   UNL     1       7.253   4.455  18.170  0.00  0.00    +0.000 OA
BRANCH  21  24
ATOM     24  C   UNL     1       6.324   4.650  15.722  0.00  0.00    +0.000 A 
ATOM     25  C   UNL     1       5.466   3.816  14.990  0.00  0.00    +0.000 A 
ATOM     26  C   UNL     1       5.706   3.605  13.628  0.00  0.00    +0.000 A 
ATOM     27  C   UNL     1       6.780   4.243  13.014  0.00  0.00    +0.000 A 
ATOM     28  F   UNL     1       6.995   4.050  11.706  0.00  0.00    +0.000 F 
ATOM     29  C   UNL     1       7.617   5.079  13.747  0.00  0.00    +0.000 A 
ATOM     30  F   UNL     1       8.631   5.711  13.139  0.00  0.00    +0.000 F 
ATOM     31  C   UNL     1       7.408   5.278  15.110  0.00  0.00    +0.000 A 
ENDBRANCH  21  24
ENDBRANCH   4  21
TORSDOF 4
ENDMDL
MODEL 2
REMARK VINA RESULT:      -8.9      4.239      8.927
REMARK  Name = 
REMARK  4 active torsions:
REMARK  status: ('A' for Active; 'I' for Inactive)
REMARK    1  A    between atoms: C_2  and  C_13
REMARK    2  A    between atoms: C_7  and  C_8
REMARK    3  A    between atoms: N_16  and  S_17
REMARK    4  A    between atoms: S_17  and  C_20
REMARK                            x       y       z     vdW  Elec       q    Type
REMARK                         _______ _______ _______ _____ _____    ______ ____
ROOT
ATOM      1  C   UNL     1       7.460   5.599  17.640  0.00  0.00    +0.000 C 
ATOM      2  C   UNL     1       7.066   4.688  18.809  0.00  0.00    +0.000 C 
ATOM      3  C   UNL     1       5.563   4.418  18.846  0.00  0.00    +0.000 C 
ATOM      4  N   UNL     1       4.752   5.673  18.816  0.00  0.00    +0.000 NA
ATOM      5  C   UNL     1       5.178   6.638  17.752  0.00  0.00    +0.000 C 
ATOM      6  C   UNL     1       6.679   6.902  17.807  0.00  0.00    +0.000 C 
ENDROOT
BRANCH   1   8
ATOM      7  O   UNL     1       6.853   3.745  16.226  0.00  0.00    +0.000 OA
ATOM      8  C   UNL     1       7.226   4.914  16.280  0.00  0.00    +0.000 C 
ATOM      9  N   UNL     1       7.550   5.696  15.196  0.00  0.00    +0.000 N 
ATOM     10  C   UNL     1       7.482   5.254  13.902  0.00  0.00    +0.000 A 
ATOM     11  N   UNL     1       8.180   5.848  12.928  0.00  0.00    +0.000 NA
ATOM     12  N   UNL     1       7.896   5.063  11.874  0.00  0.00    +0.000 N 
ATOM     13  C   UNL     1       6.977   4.112  12.202  0.00  0.00    +0.000 A 
ATOM     14  N   UNL     1       6.708   4.213  13.483  0.00  0.00    +0.000 NA
ATOM     15  H   UNL     1       8.065   6.554  15.301  0.00  0.00    +0.000 HD
ATOM     16  H   UNL     1       8.348   5.234  10.983  0.00  0.00    +0.000 HD
BRANCH  13  17
ATOM     17  C   UNL     1       6.394   3.084  11.252  0.00  0.00    +0.000 C 
ATOM     18  C   UNL     1       5.274   2.200  11.883  0.00  0.00    +0.000 C 
ATOM     19  C   UNL     1       5.880   1.003  11.129  0.00  0.00    +0.000 C 
ATOM     20  C   UNL     1       7.214   1.764  11.159  0.00  0.00    +0.000 C 
ENDBRANCH  13  17
ENDBRANCH   1   8
BRANCH   4  21
ATOM     21  S   UNL     1       3.047   5.335  18.694  0.00  0.00    +0.000 S 
ATOM     22  O   UNL     1       2.745   5.045  17.307  0.00  0.00    +0.000 OA
ATOM     23  O   UNL     1       2.693   4.408  19.746  0.00  0.00    +0.000 OA
BRANCH  21  24
ATOM     24  C   UNL     1       2.290   6.909  19.057  0.00  0.00    +0.000 A 
ATOM     25  C   UNL     1       2.143   7.859  18.034  0.00  0.00    +0.000 A 
ATOM     26  C   UNL     1       1.596   9.111  18.331  0.00  0.00    +0.000 A 
ATOM     27  C   UNL     1       1.183   9.391  19.630  0.00  0.00    +0.000 A 
ATOM     28  F   UNL     1       0.644  10.586  19.904  0.00  0.00    +0.000 F 
ATOM     29  C   UNL     1       1.320   8.436  20.634  0.00  0.00    +0.000 A 
ATOM     30  F   UNL     1       0.893   8.704  21.876  0.00  0.00    +0.000 F 
ATOM     31  C   UNL     1       1.889   7.194  20.361  0.00  0.00    +0.000 A 
ENDBRANCH  21  24
ENDBRANCH   4  21
TORSDOF 4
ENDMDL
MODEL 3
REMARK VINA RESULT:      -8.9      4.145      8.825
REMARK  Name = 
REMARK  4 active torsions:
REMARK  status: ('A' for Active; 'I' for Inactive)
REMARK    1  A    between atoms: C_2  and  C_13
REMARK    2  A    between atoms: C_7  and  C_8
REMARK    3  A    between atoms: N_16  and  S_17
REMARK    4  A    between atoms: S_17  and  C_20
REMARK                            x       y       z     vdW  Elec       q    Type
REMARK                         _______ _______ _______ _____ _____    ______ ____
ROOT
ATOM      1  C   UNL     1       7.463   5.443  17.730  0.00  0.00    +0.000 C 
ATOM      2  C   UNL     1       6.712   4.691  18.835  0.00  0.00    +0.000 C 
ATOM      3  C   UNL     1       5.196   4.820  18.689  0.00  0.00    +0.000 C 
ATOM      4  N   UNL     1       4.749   6.242  18.575  0.00  0.00    +0.000 NA
ATOM      5  C   UNL     1       5.534   7.040  17.577  0.00  0.00    +0.000 C 
ATOM      6  C   UNL     1       7.035   6.906  17.814  0.00  0.00    +0.000 C 
ENDROOT
BRANCH   1   8
ATOM      7  O   UNL     1       6.808   3.659  16.248  0.00  0.00    +0.000 OA
ATOM      8  C   UNL     1       7.222   4.812  16.345  0.00  0.00    +0.000 C 
ATOM      9  N   UNL     1       7.586   5.617  15.291  0.00  0.00    +0.000 N 
ATOM     10  C   UNL     1       7.518   5.221  13.983  0.00  0.00    +0.000 A 
ATOM     11  N   UNL     1       8.248   5.822  13.037  0.00  0.00    +0.000 NA
ATOM     12  N   UNL     1       7.948   5.082  11.954  0.00  0.00    +0.000 N 
ATOM     13  C   UNL     1       6.993   4.155  12.240  0.00  0.00    +0.000 A 
ATOM     14  N   UNL     1       6.712   4.223  13.521  0.00  0.00    +0.000 NA
ATOM     15  H   UNL     1       8.130   6.452  15.431  0.00  0.00    +0.000 HD
ATOM     16  H   UNL     1       8.417   5.266  11.074  0.00  0.00    +0.000 HD
BRANCH  13  17
ATOM     17  C   UNL     1       6.385   3.180  11.250  0.00  0.00    +0.000 C 
ATOM     18  C   UNL     1       5.299   2.244  11.867  0.00  0.00    +0.000 C 
ATOM     19  C   UNL     1       5.889   1.104  11.017  0.00  0.00    +0.000 C 
ATOM     20  C   UNL     1       7.215   1.879  11.044  0.00  0.00    +0.000 C 
ENDBRANCH  13  17
ENDBRANCH   1   8
BRANCH   4  21
ATOM     21  S   UNL     1       3.041   6.356  18.246  0.00  0.00    +0.000 S 
ATOM     22  O   UNL     1       2.577   7.642  18.724  0.00  0.00    +0.000 OA
ATOM     23  O   UNL     1       2.815   5.940  16.880  0.00  0.00    +0.000 OA
BRANCH  21  24
ATOM     24  C   UNL     1       2.332   5.128  19.330  0.00  0.00    +0.000 A 
ATOM     25  C   UNL     1       2.599   5.183  20.707  0.00  0.00    +0.000 A 
ATOM     26  C   UNL     1       2.083   4.192  21.548  0.00  0.00    +0.000 A 
ATOM     27  C   UNL     1       1.296   3.177  21.012  0.00  0.00    +0.000 A 
ATOM     28  F   UNL     1       0.792   2.240  21.826  0.00  0.00    +0.000 F 
ATOM     29  C   UNL     1       1.028   3.139  19.647  0.00  0.00    +0.000 A 
ATOM     30  F   UNL     1       0.244   2.174  19.145  0.00  0.00    +0.000 F 
ATOM     31  C   UNL     1       1.555   4.103  18.791  0.00  0.00    +0.000 A 
ENDBRANCH  21  24
ENDBRANCH   4  21
TORSDOF 4
ENDMDL
MODEL 4
REMARK VINA RESULT:      -8.9      0.790      1.370
REMARK  Name = 
REMARK  4 active torsions:
REMARK  status: ('A' for Active; 'I' for Inactive)
REMARK    1  A    between atoms: C_2  and  C_13
REMARK    2  A    between atoms: C_7  and  C_8
REMARK    3  A    between atoms: N_16  and  S_17
REMARK    4  A    between atoms: S_17  and  C_20
REMARK                            x       y       z     vdW  Elec       q    Type
REMARK                         _______ _______ _______ _____ _____    ______ ____
ROOT
ATOM      1  C   UNL     1       2.680   3.198  19.128  0.00  0.00    +0.000 C 
ATOM      2  C   UNL     1       4.156   2.902  19.420  0.00  0.00    +0.000 C 
ATOM      3  C   UNL     1       5.083   3.962  18.826  0.00  0.00    +0.000 C 
ATOM      4  N   UNL     1       4.835   4.191  17.370  0.00  0.00    +0.000 NA
ATOM      5  C   UNL     1       3.387   4.379  17.029  0.00  0.00    +0.000 C 
ATOM      6  C   UNL     1       2.528   3.259  17.609  0.00  0.00    +0.000 C 
ENDROOT
BRANCH   1   8
ATOM      7  O   UNL     1       1.547   4.405  20.879  0.00  0.00    +0.000 OA
ATOM      8  C   UNL     1       2.202   4.477  19.843  0.00  0.00    +0.000 C 
ATOM      9  N   UNL     1       2.505   5.640  19.174  0.00  0.00    +0.000 N 
ATOM     10  C   UNL     1       2.112   6.879  19.601  0.00  0.00    +0.000 A 
ATOM     11  N   UNL     1       2.041   7.914  18.758  0.00  0.00    +0.000 NA
ATOM     12  N   UNL     1       1.543   8.878  19.553  0.00  0.00    +0.000 N 
ATOM     13  C   UNL     1       1.435   8.446  20.841  0.00  0.00    +0.000 A 
ATOM     14  N   UNL     1       1.784   7.181  20.890  0.00  0.00    +0.000 NA
ATOM     15  H   UNL     1       2.837   5.628  18.224  0.00  0.00    +0.000 HD
ATOM     16  H   UNL     1       1.314   9.784  19.162  0.00  0.00    +0.000 HD
BRANCH  13  17
ATOM     17  C   UNL     1       0.953   9.278  22.013  0.00  0.00    +0.000 C 
ATOM     18  C   UNL     1      -0.488   8.921  22.494  0.00  0.00    +0.000 C 
ATOM     19  C   UNL     1      -0.732  10.430  22.682  0.00  0.00    +0.000 C 
ATOM     20  C   UNL     1       0.346  10.655  21.611  0.00  0.00    +0.000 C 
ENDBRANCH  13  17
ENDBRANCH   1   8
BRANCH   4  21
ATOM     21  S   UNL     1       5.788   5.514  16.754  0.00  0.00    +0.000 S 
ATOM     22  O   UNL     1       4.907   6.646  16.552  0.00  0.00    +0.000 OA
ATOM     23  O   UNL     1       6.979   5.629  17.566  0.00  0.00    +0.000 OA
BRANCH  21  24
ATOM     24  C   UNL     1       6.269   4.953  15.131  0.00  0.00    +0.000 A 
ATOM     25  C   UNL     1       7.498   5.363  14.592  0.00  0.00    +0.000 A 
ATOM     26  C   UNL     1       7.852   4.963  13.299  0.00  0.00    +0.000 A 
ATOM     27  C   UNL     1       6.990   4.146  12.573  0.00  0.00    +0.000 A 
ATOM     28  F   UNL     1       7.342   3.754  11.342  0.00  0.00    +0.000 F 
ATOM     29  C   UNL     1       5.779   3.735  13.122  0.00  0.00    +0.000 A 
ATOM     30  F   UNL     1       4.969   2.924  12.425  0.00  0.00    +0.000 F 
ATOM     31  C   UNL     1       5.400   4.146  14.397  0.00  0.00    +0.000 A 
ENDBRANCH  21  24
ENDBRANCH   4  21
TORSDOF 4
ENDMDL
MODEL 5
REMARK VINA RESULT:      -8.6      1.458      1.893
REMARK  Name = 
REMARK  4 active torsions:
REMARK  status: ('A' for Active; 'I' for Inactive)
REMARK    1  A    between atoms: C_2  and  C_13
REMARK    2  A    between atoms: C_7  and  C_8
REMARK    3  A    between atoms: N_16  and  S_17
REMARK    4  A    between atoms: S_17  and  C_20
REMARK                            x       y       z     vdW  Elec       q    Type
REMARK                         _______ _______ _______ _____ _____    ______ ____
ROOT
ATOM      1  C   UNL     1       3.314   3.628  18.935  0.00  0.00    +0.000 C 
ATOM      2  C   UNL     1       4.795   3.591  19.330  0.00  0.00    +0.000 C 
ATOM      3  C   UNL     1       5.623   4.612  18.550  0.00  0.00    +0.000 C 
ATOM      4  N   UNL     1       5.434   4.496  17.072  0.00  0.00    +0.000 NA
ATOM      5  C   UNL     1       3.996   4.422  16.654  0.00  0.00    +0.000 C 
ATOM      6  C   UNL     1       3.244   3.348  17.434  0.00  0.00    +0.000 C 
ENDROOT
BRANCH   1   8
ATOM      7  O   UNL     1       1.828   4.989  20.255  0.00  0.00    +0.000 OA
ATOM      8  C   UNL     1       2.648   4.957  19.342  0.00  0.00    +0.000 C 
ATOM      9  N   UNL     1       2.997   6.025  18.549  0.00  0.00    +0.000 N 
ATOM     10  C   UNL     1       2.466   7.278  18.696  0.00  0.00    +0.000 A 
ATOM     11  N   UNL     1       2.484   8.162  17.694  0.00  0.00    +0.000 NA
ATOM     12  N   UNL     1       1.803   9.191  18.228  0.00  0.00    +0.000 N 
ATOM     13  C   UNL     1       1.496   8.953  19.534  0.00  0.00    +0.000 A 
ATOM     14  N   UNL     1       1.903   7.744  19.847  0.00  0.00    +0.000 NA
ATOM     15  H   UNL     1       3.488   5.896  17.680  0.00  0.00    +0.000 HD
ATOM     16  H   UNL     1       1.594  10.005  17.661  0.00  0.00    +0.000 HD
BRANCH  13  17
ATOM     17  C   UNL     1       0.772   9.912  20.459  0.00  0.00    +0.000 C 
ATOM     18  C   UNL     1      -0.701  10.208  20.038  0.00  0.00    +0.000 C 
ATOM     19  C   UNL     1      -0.455  11.675  20.434  0.00  0.00    +0.000 C 
ATOM     20  C   UNL     1       1.033  11.416  20.151  0.00  0.00    +0.000 C 
ENDBRANCH  13  17
ENDBRANCH   1   8
BRANCH   4  21
ATOM     21  S   UNL     1       6.258   5.771  16.216  0.00  0.00    +0.000 S 
ATOM     22  O   UNL     1       5.307   6.837  15.974  0.00  0.00    +0.000 OA
ATOM     23  O   UNL     1       7.513   6.027  16.884  0.00  0.00    +0.000 OA
BRANCH  21  24
ATOM     24  C   UNL     1       6.609   5.039  14.627  0.00  0.00    +0.000 A 
ATOM     25  C   UNL     1       7.720   5.478  13.892  0.00  0.00    +0.000 A 
ATOM     26  C   UNL     1       7.965   4.939  12.625  0.00  0.00    +0.000 A 
ATOM     27  C   UNL     1       7.116   3.958  12.120  0.00  0.00    +0.000 A 
ATOM     28  F   UNL     1       7.366   3.434  10.913  0.00  0.00    +0.000 F 
ATOM     29  C   UNL     1       6.024   3.520  12.863  0.00  0.00    +0.000 A 
ATOM     30  F   UNL     1       5.229   2.555  12.380  0.00  0.00    +0.000 F 
ATOM     31  C   UNL     1       5.750   4.067  14.115  0.00  0.00    +0.000 A 
ENDBRANCH  21  24
ENDBRANCH   4  21
TORSDOF 4
ENDMDL
MODEL 6
REMARK VINA RESULT:      -8.5      4.091      8.260
REMARK  Name = 
REMARK  4 active torsions:
REMARK  status: ('A' for Active; 'I' for Inactive)
REMARK    1  A    between atoms: C_2  and  C_13
REMARK    2  A    between atoms: C_7  and  C_8
REMARK    3  A    between atoms: N_16  and  S_17
REMARK    4  A    between atoms: S_17  and  C_20
REMARK                            x       y       z     vdW  Elec       q    Type
REMARK                         _______ _______ _______ _____ _____    ______ ____
ROOT
ATOM      1  C   UNL     1       7.140   5.496  17.677  0.00  0.00    +0.000 C 
ATOM      2  C   UNL     1       6.499   4.879  18.926  0.00  0.00    +0.000 C 
ATOM      3  C   UNL     1       4.996   5.143  18.991  0.00  0.00    +0.000 C 
ATOM      4  N   UNL     1       4.660   6.592  18.847  0.00  0.00    +0.000 NA
ATOM      5  C   UNL     1       5.353   7.258  17.696  0.00  0.00    +0.000 C 
ATOM      6  C   UNL     1       6.856   6.996  17.724  0.00  0.00    +0.000 C 
ENDROOT
BRANCH   1   8
ATOM      7  O   UNL     1       5.897   3.842  16.442  0.00  0.00    +0.000 OA
ATOM      8  C   UNL     1       6.641   4.817  16.387  0.00  0.00    +0.000 C 
ATOM      9  N   UNL     1       7.169   5.350  15.234  0.00  0.00    +0.000 N 
ATOM     10  C   UNL     1       6.911   4.849  13.986  0.00  0.00    +0.000 A 
ATOM     11  N   UNL     1       7.731   5.090  12.958  0.00  0.00    +0.000 NA
ATOM     12  N   UNL     1       7.162   4.360  11.982  0.00  0.00    +0.000 N 
ATOM     13  C   UNL     1       5.991   3.805  12.401  0.00  0.00    +0.000 A 
ATOM     14  N   UNL     1       5.818   4.098  13.669  0.00  0.00    +0.000 NA
ATOM     15  H   UNL     1       7.944   5.990  15.257  0.00  0.00    +0.000 HD
ATOM     16  H   UNL     1       7.613   4.293  11.076  0.00  0.00    +0.000 HD
BRANCH  13  17
ATOM     17  C   UNL     1       5.064   2.956  11.553  0.00  0.00    +0.000 C 
ATOM     18  C   UNL     1       4.648   3.624  10.205  0.00  0.00    +0.000 C 
ATOM     19  C   UNL     1       3.233   3.062  10.434  0.00  0.00    +0.000 C 
ATOM     20  C   UNL     1       3.560   3.077  11.936  0.00  0.00    +0.000 C 
ENDBRANCH  13  17
ENDBRANCH   1   8
BRANCH   4  21
ATOM     21  S   UNL     1       2.938   6.849  18.760  0.00  0.00    +0.000 S 
ATOM     22  O   UNL     1       2.518   7.491  19.988  0.00  0.00    +0.000 OA
ATOM     23  O   UNL     1       2.632   7.427  17.471  0.00  0.00    +0.000 OA
BRANCH  21  24
ATOM     24  C   UNL     1       2.274   5.193  18.803  0.00  0.00    +0.000 A 
ATOM     25  C   UNL     1       2.287   4.411  17.638  0.00  0.00    +0.000 A 
ATOM     26  C   UNL     1       1.721   3.133  17.660  0.00  0.00    +0.000 A 
ATOM     27  C   UNL     1       1.172   2.645  18.843  0.00  0.00    +0.000 A 
ATOM     28  F   UNL     1       0.646   1.413  18.861  0.00  0.00    +0.000 F 
ATOM     29  C   UNL     1       1.176   3.424  19.996  0.00  0.00    +0.000 A 
ATOM     30  F   UNL     1       0.670   2.934  21.137  0.00  0.00    +0.000 F 
ATOM     31  C   UNL     1       1.711   4.710  19.983  0.00  0.00    +0.000 A 
ENDBRANCH  21  24
ENDBRANCH   4  21
TORSDOF 4
ENDMDL
MODEL 7
REMARK VINA RESULT:      -8.4      1.124      1.281
REMARK  Name = 
REMARK  4 active torsions:
REMARK  status: ('A' for Active; 'I' for Inactive)
REMARK    1  A    between atoms: C_2  and  C_13
REMARK    2  A    between atoms: C_7  and  C_8
REMARK    3  A    between atoms: N_16  and  S_17
REMARK    4  A    between atoms: S_17  and  C_20
REMARK                            x       y       z     vdW  Elec       q    Type
REMARK                         _______ _______ _______ _____ _____    ______ ____
ROOT
ATOM      1  C   UNL     1       2.819   3.987  19.082  0.00  0.00    +0.000 C 
ATOM      2  C   UNL     1       4.190   3.749  19.728  0.00  0.00    +0.000 C 
ATOM      3  C   UNL     1       5.278   4.618  19.100  0.00  0.00    +0.000 C 
ATOM      4  N   UNL     1       5.330   4.489  17.612  0.00  0.00    +0.000 NA
ATOM      5  C   UNL     1       3.989   4.610  16.952  0.00  0.00    +0.000 C 
ATOM      6  C   UNL     1       2.966   3.678  17.594  0.00  0.00    +0.000 C 
ENDROOT
BRANCH   1   8
ATOM      7  O   UNL     1       1.548   5.620  20.317  0.00  0.00    +0.000 OA
ATOM      8  C   UNL     1       2.295   5.408  19.365  0.00  0.00    +0.000 C 
ATOM      9  N   UNL     1       2.670   6.340  18.426  0.00  0.00    +0.000 N 
ATOM     10  C   UNL     1       2.255   7.644  18.452  0.00  0.00    +0.000 A 
ATOM     11  N   UNL     1       2.272   8.400  17.350  0.00  0.00    +0.000 NA
ATOM     12  N   UNL     1       1.717   9.542  17.795  0.00  0.00    +0.000 N 
ATOM     13  C   UNL     1       1.488   9.486  19.137  0.00  0.00    +0.000 A 
ATOM     14  N   UNL     1       1.816   8.290  19.570  0.00  0.00    +0.000 NA
ATOM     15  H   UNL     1       3.085   6.068  17.551  0.00  0.00    +0.000 HD
ATOM     16  H   UNL     1       1.534  10.299  17.147  0.00  0.00    +0.000 HD
BRANCH  13  17
ATOM     17  C   UNL     1       0.912  10.607  19.981  0.00  0.00    +0.000 C 
ATOM     18  C   UNL     1       0.670  10.218  21.472  0.00  0.00    +0.000 C 
ATOM     19  C   UNL     1      -0.644  11.018  21.403  0.00  0.00    +0.000 C 
ATOM     20  C   UNL     1      -0.636  10.742  19.891  0.00  0.00    +0.000 C 
ENDBRANCH  13  17
ENDBRANCH   1   8
BRANCH   4  21
ATOM     21  S   UNL     1       6.465   5.609  16.907  0.00  0.00    +0.000 S 
ATOM     22  O   UNL     1       5.827   6.907  16.832  0.00  0.00    +0.000 OA
ATOM     23  O   UNL     1       7.738   5.439  17.570  0.00  0.00    +0.000 OA
BRANCH  21  24
ATOM     24  C   UNL     1       6.626   5.027  15.228  0.00  0.00    +0.000 A 
ATOM     25  C   UNL     1       5.908   3.893  14.816  0.00  0.00    +0.000 A 
ATOM     26  C   UNL     1       6.074   3.410  13.514  0.00  0.00    +0.000 A 
ATOM     27  C   UNL     1       6.931   4.071  12.639  0.00  0.00    +0.000 A 
ATOM     28  F   UNL     1       7.073   3.611  11.389  0.00  0.00    +0.000 F 
ATOM     29  C   UNL     1       7.628   5.202  13.054  0.00  0.00    +0.000 A 
ATOM     30  F   UNL     1       8.428   5.848  12.195  0.00  0.00    +0.000 F 
ATOM     31  C   UNL     1       7.495   5.681  14.356  0.00  0.00    +0.000 A 
ENDBRANCH  21  24
ENDBRANCH   4  21
TORSDOF 4
ENDMDL
MODEL 8
REMARK VINA RESULT:      -8.4      4.248      8.816
REMARK  Name = 
REMARK  4 active torsions:
REMARK  status: ('A' for Active; 'I' for Inactive)
REMARK    1  A    between atoms: C_2  and  C_13
REMARK    2  A    between atoms: C_7  and  C_8
REMARK    3  A    between atoms: N_16  and  S_17
REMARK    4  A    between atoms: S_17  and  C_20
REMARK                            x       y       z     vdW  Elec       q    Type
REMARK                         _______ _______ _______ _____ _____    ______ ____
ROOT
ATOM      1  C   UNL     1       4.496   3.935  19.020  0.00  0.00    +0.000 C 
ATOM      2  C   UNL     1       2.985   3.916  19.282  0.00  0.00    +0.000 C 
ATOM      3  C   UNL     1       2.284   5.139  18.692  0.00  0.00    +0.000 C 
ATOM      4  N   UNL     1       2.912   6.425  19.122  0.00  0.00    +0.000 NA
ATOM      5  C   UNL     1       4.404   6.443  18.980  0.00  0.00    +0.000 C 
ATOM      6  C   UNL     1       5.041   5.222  19.637  0.00  0.00    +0.000 C 
ENDROOT
BRANCH   1   8
ATOM      7  O   UNL     1       4.315   2.885  16.859  0.00  0.00    +0.000 OA
ATOM      8  C   UNL     1       4.816   3.791  17.520  0.00  0.00    +0.000 C 
ATOM      9  N   UNL     1       5.744   4.694  17.056  0.00  0.00    +0.000 N 
ATOM     10  C   UNL     1       6.218   4.694  15.772  0.00  0.00    +0.000 A 
ATOM     11  N   UNL     1       7.384   5.271  15.462  0.00  0.00    +0.000 NA
ATOM     12  N   UNL     1       7.498   4.967  14.157  0.00  0.00    +0.000 N 
ATOM     13  C   UNL     1       6.384   4.330  13.701  0.00  0.00    +0.000 A 
ATOM     14  N   UNL     1       5.565   4.142  14.710  0.00  0.00    +0.000 NA
ATOM     15  H   UNL     1       6.288   5.259  17.686  0.00  0.00    +0.000 HD
ATOM     16  H   UNL     1       8.339   5.223  13.653  0.00  0.00    +0.000 HD
BRANCH  13  17
ATOM     17  C   UNL     1       6.148   3.879  12.272  0.00  0.00    +0.000 C 
ATOM     18  C   UNL     1       4.688   3.410  11.988  0.00  0.00    +0.000 C 
ATOM     19  C   UNL     1       5.284   2.278  11.131  0.00  0.00    +0.000 C 
ATOM     20  C   UNL     1       6.548   2.399  11.997  0.00  0.00    +0.000 C 
ENDBRANCH  13  17
ENDBRANCH   1   8
BRANCH   4  21
ATOM     21  S   UNL     1       2.201   7.792  18.309  0.00  0.00    +0.000 S 
ATOM     22  O   UNL     1       3.275   8.607  17.777  0.00  0.00    +0.000 OA
ATOM     23  O   UNL     1       1.138   7.309  17.457  0.00  0.00    +0.000 OA
BRANCH  21  24
ATOM     24  C   UNL     1       1.470   8.728  19.641  0.00  0.00    +0.000 A 
ATOM     25  C   UNL     1       1.456   8.191  20.938  0.00  0.00    +0.000 A 
ATOM     26  C   UNL     1       0.839   8.903  21.971  0.00  0.00    +0.000 A 
ATOM     27  C   UNL     1       0.265  10.143  21.704  0.00  0.00    +0.000 A 
ATOM     28  F   UNL     1      -0.310  10.827  22.702  0.00  0.00    +0.000 F 
ATOM     29  C   UNL     1       0.296  10.671  20.417  0.00  0.00    +0.000 A 
ATOM     30  F   UNL     1      -0.234  11.879  20.176  0.00  0.00    +0.000 F 
ATOM     31  C   UNL     1       0.883   9.963  19.371  0.00  0.00    +0.000 A 
ENDBRANCH  21  24
ENDBRANCH   4  21
TORSDOF 4
ENDMDL
MODEL 9
REMARK VINA RESULT:      -8.3      3.702      8.245
REMARK  Name = 
REMARK  4 active torsions:
REMARK  status: ('A' for Active; 'I' for Inactive)
REMARK    1  A    between atoms: C_2  and  C_13
REMARK    2  A    between atoms: C_7  and  C_8
REMARK    3  A    between atoms: N_16  and  S_17
REMARK    4  A    between atoms: S_17  and  C_20
REMARK                            x       y       z     vdW  Elec       q    Type
REMARK                         _______ _______ _______ _____ _____    ______ ____
ROOT
ATOM      1  C   UNL     1       7.380   5.373  17.899  0.00  0.00    +0.000 C 
ATOM      2  C   UNL     1       6.582   4.645  18.987  0.00  0.00    +0.000 C 
ATOM      3  C   UNL     1       5.082   4.914  18.877  0.00  0.00    +0.000 C 
ATOM      4  N   UNL     1       4.762   6.373  18.829  0.00  0.00    +0.000 NA
ATOM      5  C   UNL     1       5.598   7.140  17.850  0.00  0.00    +0.000 C 
ATOM      6  C   UNL     1       7.085   6.864  18.051  0.00  0.00    +0.000 C 
ENDROOT
BRANCH   1   8
ATOM      7  O   UNL     1       6.467   3.758  16.362  0.00  0.00    +0.000 OA
ATOM      8  C   UNL     1       7.060   4.825  16.495  0.00  0.00    +0.000 C 
ATOM      9  N   UNL     1       7.568   5.586  15.468  0.00  0.00    +0.000 N 
ATOM     10  C   UNL     1       7.457   5.239  14.148  0.00  0.00    +0.000 A 
ATOM     11  N   UNL     1       8.289   5.736  13.228  0.00  0.00    +0.000 NA
ATOM     12  N   UNL     1       7.891   5.083  12.121  0.00  0.00    +0.000 N 
ATOM     13  C   UNL     1       6.792   4.316  12.371  0.00  0.00    +0.000 A 
ATOM     14  N   UNL     1       6.507   4.397  13.650  0.00  0.00    +0.000 NA
ATOM     15  H   UNL     1       8.238   6.317  15.636  0.00  0.00    +0.000 HD
ATOM     16  H   UNL     1       8.397   5.209  11.252  0.00  0.00    +0.000 HD
BRANCH  13  17
ATOM     17  C   UNL     1       6.050   3.479  11.349  0.00  0.00    +0.000 C 
ATOM     18  C   UNL     1       4.516   3.365  11.614  0.00  0.00    +0.000 C 
ATOM     19  C   UNL     1       4.616   1.888  11.193  0.00  0.00    +0.000 C 
ATOM     20  C   UNL     1       6.088   1.948  11.628  0.00  0.00    +0.000 C 
ENDBRANCH  13  17
ENDBRANCH   1   8
BRANCH   4  21
ATOM     21  S   UNL     1       3.066   6.650  18.539  0.00  0.00    +0.000 S 
ATOM     22  O   UNL     1       2.551   7.458  19.626  0.00  0.00    +0.000 OA
ATOM     23  O   UNL     1       2.903   7.060  17.163  0.00  0.00    +0.000 OA
BRANCH  21  24
ATOM     24  C   UNL     1       2.346   5.029  18.730  0.00  0.00    +0.000 A 
ATOM     25  C   UNL     1       1.550   4.752  19.852  0.00  0.00    +0.000 A 
ATOM     26  C   UNL     1       1.028   3.467  20.026  0.00  0.00    +0.000 A 
ATOM     27  C   UNL     1       1.286   2.485  19.073  0.00  0.00    +0.000 A 
ATOM     28  F   UNL     1       0.769   1.261  19.238  0.00  0.00    +0.000 F 
ATOM     29  C   UNL     1       2.066   2.774  17.958  0.00  0.00    +0.000 A 
ATOM     30  F   UNL     1       2.285   1.830  17.031  0.00  0.00    +0.000 F 
ATOM     31  C   UNL     1       2.616   4.042  17.783  0.00  0.00    +0.000 A 
ENDBRANCH  21  24
ENDBRANCH   4  21
TORSDOF 4
ENDMDL
