MODEL 1
REMARK VINA RESULT:      -9.3      0.000      0.000
REMARK  Name = 
REMARK  5 active torsions:
REMARK  status: ('A' for Active; 'I' for Inactive)
REMARK    1  A    between atoms: C_2  and  C_4
REMARK    2  A    between atoms: C_7  and  O_8
REMARK    3  A    between atoms: O_8  and  C_9
REMARK    4  A    between atoms: C_9  and  C_10
REMARK    5  A    between atoms: C_21  and  C_22
REMARK                            x       y       z     vdW  Elec       q    Type
REMARK                         _______ _______ _______ _____ _____    ______ ____
ROOT
ATOM      1  C   UNL     1       4.943   5.022  19.126  0.00  0.00    +0.000 C 
ATOM      2  O   UNL     1       5.455   3.957  19.505  0.00  0.00    +0.000 OA
ATOM      3  N   UNL     1       3.600   5.412  19.462  0.00  0.00    +0.000 N 
ATOM      4  C   UNL     1       2.878   4.328  20.061  0.00  0.00    +0.000 A 
ATOM      5  C   UNL     1       2.293   4.312  21.314  0.00  0.00    +0.000 A 
ATOM      6  C   UNL     1       1.777   3.095  21.775  0.00  0.00    +0.000 A 
ATOM      7  C   UNL     1       1.949   1.922  21.020  0.00  0.00    +0.000 A 
ATOM      8  C   UNL     1       2.339   2.013  19.688  0.00  0.00    +0.000 A 
ATOM      9  C   UNL     1       2.579   3.274  19.199  0.00  0.00    +0.000 A 
ATOM     10  O   UNL     1       2.299   3.601  17.877  0.00  0.00    +0.000 OA
ATOM     11  C   UNL     1       1.710   4.961  17.922  0.00  0.00    +0.000 C 
ATOM     12  C   UNL     1       2.809   5.974  18.341  0.00  0.00    +0.000 C 
ENDROOT
BRANCH  12  13
ATOM     13  C   UNL     1       2.383   7.431  18.563  0.00  0.00    +0.000 A 
ATOM     14  C   UNL     1       2.396   8.392  17.538  0.00  0.00    +0.000 A 
ATOM     15  C   UNL     1       1.903   9.687  17.761  0.00  0.00    +0.000 A 
ATOM     16  C   UNL     1       1.384  10.038  19.006  0.00  0.00    +0.000 A 
ATOM     17  C   UNL     1       1.361   9.093  20.024  0.00  0.00    +0.000 A 
ATOM     18  C   UNL     1       1.850   7.804  19.807  0.00  0.00    +0.000 A 
ENDBRANCH  12  13
BRANCH   1  19
ATOM     19  C   UNL     1       5.815   5.997  18.323  0.00  0.00    +0.000 C 
BRANCH  19  20
ATOM     20  O   UNL     1       6.796   5.218  17.714  0.00  0.00    +0.000 OA
BRANCH  20  24
ATOM     21  C   UNL     1       6.058   3.962  13.835  0.00  0.00    +0.000 A 
ATOM     22  C   UNL     1       7.185   4.754  14.048  0.00  0.00    +0.000 A 
ATOM     23  C   UNL     1       7.477   5.234  15.344  0.00  0.00    +0.000 A 
ATOM     24  C   UNL     1       6.632   4.881  16.404  0.00  0.00    +0.000 A 
ATOM     25  C   UNL     1       5.488   4.153  16.153  0.00  0.00    +0.000 A 
ATOM     26  C   UNL     1       5.177   3.677  14.875  0.00  0.00    +0.000 A 
BRANCH  21  28
ATOM     27  N   UNL     1       6.702   2.640  11.876  0.00  0.00    +0.000 N 
ATOM     28  C   UNL     1       5.730   3.398  12.495  0.00  0.00    +0.000 C 
ATOM     29  O   UNL     1       4.624   3.559  11.980  0.00  0.00    +0.000 OA
ATOM     30  H   UNL     1       6.399   2.166  11.039  0.00  0.00    +0.000 HD
ATOM     31  H   UNL     1       7.498   2.295  12.369  0.00  0.00    +0.000 HD
ENDBRANCH  21  28
ENDBRANCH  20  24
ENDBRANCH  19  20
ENDBRANCH   1  19
TORSDOF 5
ENDMDL
MODEL 2
REMARK VINA RESULT:      -9.1      0.606      1.081
REMARK  Name = 
REMARK  5 active torsions:
REMARK  status: ('A' for Active; 'I' for Inactive)
REMARK    1  A    between atoms: C_2  and  C_4
REMARK    2  A    between atoms: C_7  and  O_8
REMARK    3  A    between atoms: O_8  and  C_9
REMARK    4  A    between atoms: C_9  and  C_10
REMARK    5  A    between atoms: C_21  and  C_22
REMARK                            x       y       z     vdW  Elec       q    Type
REMARK                         _______ _______ _______ _____ _____    ______ ____
ROOT
ATOM      1  C   UNL     1       4.921   5.131  19.125  0.00  0.00    +0.000 C 
ATOM      2  O   UNL     1       5.448   4.070  19.492  0.00  0.00    +0.000 OA
ATOM      3  N   UNL     1       3.573   5.499  19.466  0.00  0.00    +0.000 N 
ATOM      4  C   UNL     1       2.867   4.400  20.055  0.00  0.00    +0.000 A 
ATOM      5  C   UNL     1       2.284   4.364  21.309  0.00  0.00    +0.000 A 
ATOM      6  C   UNL     1       1.785   3.135  21.759  0.00  0.00    +0.000 A 
ATOM      7  C   UNL     1       1.972   1.972  20.992  0.00  0.00    +0.000 A 
ATOM      8  C   UNL     1       2.359   2.082  19.660  0.00  0.00    +0.000 A 
ATOM      9  C   UNL     1       2.582   3.350  19.184  0.00  0.00    +0.000 A 
ATOM     10  O   UNL     1       2.294   3.686  17.865  0.00  0.00    +0.000 OA
ATOM     11  C   UNL     1       1.688   5.038  17.924  0.00  0.00    +0.000 C 
ATOM     12  C   UNL     1       2.773   6.062  18.352  0.00  0.00    +0.000 C 
ENDROOT
BRANCH  12  13
ATOM     13  C   UNL     1       2.328   7.510  18.589  0.00  0.00    +0.000 A 
ATOM     14  C   UNL     1       2.366   8.491  17.584  0.00  0.00    +0.000 A 
ATOM     15  C   UNL     1       1.855   9.778  17.816  0.00  0.00    +0.000 A 
ATOM     16  C   UNL     1       1.293  10.100  19.050  0.00  0.00    +0.000 A 
ATOM     17  C   UNL     1       1.245   9.135  20.048  0.00  0.00    +0.000 A 
ATOM     18  C   UNL     1       1.752   7.854  19.822  0.00  0.00    +0.000 A 
ENDBRANCH  12  13
BRANCH   1  19
ATOM     19  C   UNL     1       5.779   6.125  18.330  0.00  0.00    +0.000 C 
BRANCH  19  20
ATOM     20  O   UNL     1       6.764   5.365  17.706  0.00  0.00    +0.000 OA
BRANCH  20  24
ATOM     21  C   UNL     1       6.190   3.994  13.838  0.00  0.00    +0.000 A 
ATOM     22  C   UNL     1       5.241   3.631  14.793  0.00  0.00    +0.000 A 
ATOM     23  C   UNL     1       5.395   4.047  16.134  0.00  0.00    +0.000 A 
ATOM     24  C   UNL     1       6.495   4.844  16.476  0.00  0.00    +0.000 A 
ATOM     25  C   UNL     1       7.453   5.131  15.525  0.00  0.00    +0.000 A 
ATOM     26  C   UNL     1       7.323   4.720  14.195  0.00  0.00    +0.000 A 
BRANCH  21  28
ATOM     27  N   UNL     1       4.776   3.379  11.934  0.00  0.00    +0.000 N 
ATOM     28  C   UNL     1       6.051   3.615  12.403  0.00  0.00    +0.000 C 
ATOM     29  O   UNL     1       7.026   3.560  11.653  0.00  0.00    +0.000 OA
ATOM     30  H   UNL     1       4.708   3.259  10.935  0.00  0.00    +0.000 HD
ATOM     31  H   UNL     1       3.965   3.652  12.447  0.00  0.00    +0.000 HD
ENDBRANCH  21  28
ENDBRANCH  20  24
ENDBRANCH  19  20
ENDBRANCH   1  19
TORSDOF 5
ENDMDL
MODEL 3
REMARK VINA RESULT:      -8.9      2.908      7.708
REMARK  Name = 
REMARK  5 active torsions:
REMARK  status: ('A' for Active; 'I' for Inactive)
REMARK    1  A    between atoms: C_2  and  C_4
REMARK    2  A    between atoms: C_7  and  O_8
REMARK    3  A    between atoms: O_8  and  C_9
REMARK    4  A    between atoms: C_9  and  C_10
REMARK    5  A    between atoms: C_21  and  C_22
REMARK                            x       y       z     vdW  Elec       q    Type
REMARK                         _______ _______ _______ _____ _____    ______ ____
ROOT
ATOM      1  C   UNL     1       3.551   6.602  17.716  0.00  0.00    +0.000 C 
ATOM      2  O   UNL     1       4.275   7.396  17.095  0.00  0.00    +0.000 OA
ATOM      3  N   UNL     1       4.009   5.321  18.182  0.00  0.00    +0.000 N 
ATOM      4  C   UNL     1       5.292   4.995  17.632  0.00  0.00    +0.000 A 
ATOM      5  C   UNL     1       6.453   4.729  18.335  0.00  0.00    +0.000 A 
ATOM      6  C   UNL     1       7.639   4.594  17.603  0.00  0.00    +0.000 A 
ATOM      7  C   UNL     1       7.646   4.828  16.217  0.00  0.00    +0.000 A 
ATOM      8  C   UNL     1       6.441   4.875  15.522  0.00  0.00    +0.000 A 
ATOM      9  C   UNL     1       5.294   4.732  16.263  0.00  0.00    +0.000 A 
ATOM     10  O   UNL     1       4.173   4.095  15.742  0.00  0.00    +0.000 OA
ATOM     11  C   UNL     1       3.640   3.264  16.849  0.00  0.00    +0.000 C 
ATOM     12  C   UNL     1       3.071   4.196  17.952  0.00  0.00    +0.000 C 
ENDROOT
BRANCH  12  13
ATOM     13  C   UNL     1       2.572   3.541  19.246  0.00  0.00    +0.000 A 
ATOM     14  C   UNL     1       3.440   2.975  20.195  0.00  0.00    +0.000 A 
ATOM     15  C   UNL     1       2.948   2.476  21.412  0.00  0.00    +0.000 A 
ATOM     16  C   UNL     1       1.586   2.541  21.699  0.00  0.00    +0.000 A 
ATOM     17  C   UNL     1       0.720   3.104  20.770  0.00  0.00    +0.000 A 
ATOM     18  C   UNL     1       1.205   3.602  19.559  0.00  0.00    +0.000 A 
ENDBRANCH  12  13
BRANCH   1  19
ATOM     19  C   UNL     1       2.124   7.048  18.063  0.00  0.00    +0.000 C 
BRANCH  19  20
ATOM     20  O   UNL     1       2.167   8.436  18.149  0.00  0.00    +0.000 OA
BRANCH  20  24
ATOM     21  C   UNL     1       0.338   9.950  21.546  0.00  0.00    +0.000 A 
ATOM     22  C   UNL     1       0.365  10.765  20.416  0.00  0.00    +0.000 A 
ATOM     23  C   UNL     1       0.996  10.316  19.234  0.00  0.00    +0.000 A 
ATOM     24  C   UNL     1       1.567   9.036  19.215  0.00  0.00    +0.000 A 
ATOM     25  C   UNL     1       1.585   8.278  20.367  0.00  0.00    +0.000 A 
ATOM     26  C   UNL     1       0.974   8.711  21.549  0.00  0.00    +0.000 A 
BRANCH  21  28
ATOM     27  N   UNL     1      -1.405  11.242  22.682  0.00  0.00    +0.000 N 
ATOM     28  C   UNL     1      -0.350  10.362  22.802  0.00  0.00    +0.000 C 
ATOM     29  O   UNL     1      -0.025   9.903  23.897  0.00  0.00    +0.000 OA
ATOM     30  H   UNL     1      -1.929  11.392  23.530  0.00  0.00    +0.000 HD
ATOM     31  H   UNL     1      -1.838  11.433  21.803  0.00  0.00    +0.000 HD
ENDBRANCH  21  28
ENDBRANCH  20  24
ENDBRANCH  19  20
ENDBRANCH   1  19
TORSDOF 5
ENDMDL
MODEL 4
REMARK VINA RESULT:      -8.8      0.160      1.275
REMARK  Name = 
REMARK  5 active torsions:
REMARK  status: ('A' for Active; 'I' for Inactive)
REMARK    1  A    between atoms: C_2  and  C_4
REMARK    2  A    between atoms: C_7  and  O_8
REMARK    3  A    between atoms: O_8  and  C_9
REMARK    4  A    between atoms: C_9  and  C_10
REMARK    5  A    between atoms: C_21  and  C_22
REMARK                            x       y       z     vdW  Elec       q    Type
REMARK                         _______ _______ _______ _____ _____    ______ ____
ROOT
ATOM      1  C   UNL     1       4.896   5.179  19.131  0.00  0.00    +0.000 C 
ATOM      2  O   UNL     1       5.475   4.148  19.504  0.00  0.00    +0.000 OA
ATOM      3  N   UNL     1       3.536   5.488  19.482  0.00  0.00    +0.000 N 
ATOM      4  C   UNL     1       2.887   4.363  20.089  0.00  0.00    +0.000 A 
ATOM      5  C   UNL     1       2.318   4.313  21.349  0.00  0.00    +0.000 A 
ATOM      6  C   UNL     1       1.881   3.067  21.815  0.00  0.00    +0.000 A 
ATOM      7  C   UNL     1       2.115   1.906  21.058  0.00  0.00    +0.000 A 
ATOM      8  C   UNL     1       2.484   2.020  19.721  0.00  0.00    +0.000 A 
ATOM      9  C   UNL     1       2.643   3.292  19.230  0.00  0.00    +0.000 A 
ATOM     10  O   UNL     1       2.328   3.601  17.912  0.00  0.00    +0.000 OA
ATOM     11  C   UNL     1       1.659   4.924  17.964  0.00  0.00    +0.000 C 
ATOM     12  C   UNL     1       2.700   6.001  18.371  0.00  0.00    +0.000 C 
ENDROOT
BRANCH  12  13
ATOM     13  C   UNL     1       2.190   7.430  18.598  0.00  0.00    +0.000 A 
ATOM     14  C   UNL     1       1.709   7.877  19.840  0.00  0.00    +0.000 A 
ATOM     15  C   UNL     1       1.346   9.220  20.029  0.00  0.00    +0.000 A 
ATOM     16  C   UNL     1       1.464  10.135  18.985  0.00  0.00    +0.000 A 
ATOM     17  C   UNL     1       1.944   9.703  17.754  0.00  0.00    +0.000 A 
ATOM     18  C   UNL     1       2.306   8.369  17.561  0.00  0.00    +0.000 A 
ENDBRANCH  12  13
BRANCH   1  19
ATOM     19  C   UNL     1       5.699   6.205  18.319  0.00  0.00    +0.000 C 
BRANCH  19  20
ATOM     20  O   UNL     1       6.692   5.480  17.666  0.00  0.00    +0.000 OA
BRANCH  20  24
ATOM     21  C   UNL     1       5.991   3.901  13.899  0.00  0.00    +0.000 A 
ATOM     22  C   UNL     1       5.095   3.562  14.913  0.00  0.00    +0.000 A 
ATOM     23  C   UNL     1       5.294   4.049  16.224  0.00  0.00    +0.000 A 
ATOM     24  C   UNL     1       6.386   4.890  16.477  0.00  0.00    +0.000 A 
ATOM     25  C   UNL     1       7.293   5.154  15.471  0.00  0.00    +0.000 A 
ATOM     26  C   UNL     1       7.117   4.673  14.170  0.00  0.00    +0.000 A 
BRANCH  21  28
ATOM     27  N   UNL     1       6.873   2.831  11.880  0.00  0.00    +0.000 N 
ATOM     28  C   UNL     1       5.801   3.446  12.493  0.00  0.00    +0.000 C 
ATOM     29  O   UNL     1       4.722   3.570  11.914  0.00  0.00    +0.000 OA
ATOM     30  H   UNL     1       6.668   2.418  10.983  0.00  0.00    +0.000 HD
ATOM     31  H   UNL     1       7.662   2.503  12.397  0.00  0.00    +0.000 HD
ENDBRANCH  21  28
ENDBRANCH  20  24
ENDBRANCH  19  20
ENDBRANCH   1  19
TORSDOF 5
ENDMDL
MODEL 5
REMARK VINA RESULT:      -8.8      3.050      7.809
REMARK  Name = 
REMARK  5 active torsions:
REMARK  status: ('A' for Active; 'I' for Inactive)
REMARK    1  A    between atoms: C_2  and  C_4
REMARK    2  A    between atoms: C_7  and  O_8
REMARK    3  A    between atoms: O_8  and  C_9
REMARK    4  A    between atoms: C_9  and  C_10
REMARK    5  A    between atoms: C_21  and  C_22
REMARK                            x       y       z     vdW  Elec       q    Type
REMARK                         _______ _______ _______ _____ _____    ______ ____
ROOT
ATOM      1  C   UNL     1       3.660   6.841  17.821  0.00  0.00    +0.000 C 
ATOM      2  O   UNL     1       4.423   7.587  17.188  0.00  0.00    +0.000 OA
ATOM      3  N   UNL     1       4.048   5.539  18.295  0.00  0.00    +0.000 N 
ATOM      4  C   UNL     1       5.307   5.137  17.740  0.00  0.00    +0.000 A 
ATOM      5  C   UNL     1       6.456   4.811  18.438  0.00  0.00    +0.000 A 
ATOM      6  C   UNL     1       7.628   4.604  17.700  0.00  0.00    +0.000 A 
ATOM      7  C   UNL     1       7.638   4.825  16.312  0.00  0.00    +0.000 A 
ATOM      8  C   UNL     1       6.433   4.935  15.624  0.00  0.00    +0.000 A 
ATOM      9  C   UNL     1       5.285   4.862  16.373  0.00  0.00    +0.000 A 
ATOM     10  O   UNL     1       4.127   4.285  15.865  0.00  0.00    +0.000 OA
ATOM     11  C   UNL     1       3.554   3.496  16.982  0.00  0.00    +0.000 C 
ATOM     12  C   UNL     1       3.047   4.468  18.080  0.00  0.00    +0.000 C 
ENDROOT
BRANCH  12  13
ATOM     13  C   UNL     1       2.520   3.852  19.383  0.00  0.00    +0.000 A 
ATOM     14  C   UNL     1       1.157   3.838  19.721  0.00  0.00    +0.000 A 
ATOM     15  C   UNL     1       0.708   3.176  20.875  0.00  0.00    +0.000 A 
ATOM     16  C   UNL     1       1.613   2.513  21.702  0.00  0.00    +0.000 A 
ATOM     17  C   UNL     1       2.963   2.515  21.373  0.00  0.00    +0.000 A 
ATOM     18  C   UNL     1       3.413   3.173  20.227  0.00  0.00    +0.000 A 
ENDBRANCH  12  13
BRANCH   1  19
ATOM     19  C   UNL     1       2.262   7.368  18.173  0.00  0.00    +0.000 C 
BRANCH  19  20
ATOM     20  O   UNL     1       2.211   7.414  19.563  0.00  0.00    +0.000 OA
BRANCH  20  24
ATOM     21  C   UNL     1       0.085  10.304  21.637  0.00  0.00    +0.000 A 
ATOM     22  C   UNL     1       0.224  10.476  20.260  0.00  0.00    +0.000 A 
ATOM     23  C   UNL     1       0.959   9.538  19.501  0.00  0.00    +0.000 A 
ATOM     24  C   UNL     1       1.518   8.429  20.150  0.00  0.00    +0.000 A 
ATOM     25  C   UNL     1       1.422   8.320  21.522  0.00  0.00    +0.000 A 
ATOM     26  C   UNL     1       0.707   9.245  22.291  0.00  0.00    +0.000 A 
BRANCH  21  28
ATOM     27  N   UNL     1      -0.512  12.593  22.273  0.00  0.00    +0.000 N 
ATOM     28  C   UNL     1      -0.714  11.243  22.474  0.00  0.00    +0.000 C 
ATOM     29  O   UNL     1      -1.553  10.837  23.278  0.00  0.00    +0.000 OA
ATOM     30  H   UNL     1      -1.162  13.194  22.756  0.00  0.00    +0.000 HD
ATOM     31  H   UNL     1      -0.030  12.943  21.473  0.00  0.00    +0.000 HD
ENDBRANCH  21  28
ENDBRANCH  20  24
ENDBRANCH  19  20
ENDBRANCH   1  19
TORSDOF 5
ENDMDL
MODEL 6
REMARK VINA RESULT:      -8.7      3.014      7.778
REMARK  Name = 
REMARK  5 active torsions:
REMARK  status: ('A' for Active; 'I' for Inactive)
REMARK    1  A    between atoms: C_2  and  C_4
REMARK    2  A    between atoms: C_7  and  O_8
REMARK    3  A    between atoms: O_8  and  C_9
REMARK    4  A    between atoms: C_9  and  C_10
REMARK    5  A    between atoms: C_21  and  C_22
REMARK                            x       y       z     vdW  Elec       q    Type
REMARK                         _______ _______ _______ _____ _____    ______ ____
ROOT
ATOM      1  C   UNL     1       3.566   6.608  17.778  0.00  0.00    +0.000 C 
ATOM      2  O   UNL     1       4.304   7.405  17.180  0.00  0.00    +0.000 OA
ATOM      3  N   UNL     1       4.018   5.332  18.266  0.00  0.00    +0.000 N 
ATOM      4  C   UNL     1       5.323   5.016  17.763  0.00  0.00    +0.000 A 
ATOM      5  C   UNL     1       6.460   4.763  18.508  0.00  0.00    +0.000 A 
ATOM      6  C   UNL     1       7.673   4.637  17.819  0.00  0.00    +0.000 A 
ATOM      7  C   UNL     1       7.727   4.864  16.433  0.00  0.00    +0.000 A 
ATOM      8  C   UNL     1       6.548   4.898  15.696  0.00  0.00    +0.000 A 
ATOM      9  C   UNL     1       5.376   4.747  16.397  0.00  0.00    +0.000 A 
ATOM     10  O   UNL     1       4.281   4.098  15.839  0.00  0.00    +0.000 OA
ATOM     11  C   UNL     1       3.715   3.267  16.929  0.00  0.00    +0.000 C 
ATOM     12  C   UNL     1       3.099   4.198  18.008  0.00  0.00    +0.000 C 
ENDROOT
BRANCH  12  13
ATOM     13  C   UNL     1       2.561   3.544  19.286  0.00  0.00    +0.000 A 
ATOM     14  C   UNL     1       3.398   2.971  20.258  0.00  0.00    +0.000 A 
ATOM     15  C   UNL     1       2.869   2.473  21.459  0.00  0.00    +0.000 A 
ATOM     16  C   UNL     1       1.500   2.546  21.709  0.00  0.00    +0.000 A 
ATOM     17  C   UNL     1       0.665   3.115  20.757  0.00  0.00    +0.000 A 
ATOM     18  C   UNL     1       1.186   3.612  19.561  0.00  0.00    +0.000 A 
ENDBRANCH  12  13
BRANCH   1  19
ATOM     19  C   UNL     1       2.123   7.041  18.072  0.00  0.00    +0.000 C 
BRANCH  19  20
ATOM     20  O   UNL     1       2.180   8.408  18.330  0.00  0.00    +0.000 OA
BRANCH  20  24
ATOM     21  C   UNL     1       0.184  10.166  21.507  0.00  0.00    +0.000 A 
ATOM     22  C   UNL     1       0.792   8.933  21.737  0.00  0.00    +0.000 A 
ATOM     23  C   UNL     1       1.467   8.271  20.687  0.00  0.00    +0.000 A 
ATOM     24  C   UNL     1       1.532   8.885  19.429  0.00  0.00    +0.000 A 
ATOM     25  C   UNL     1       0.864  10.073  19.213  0.00  0.00    +0.000 A 
ATOM     26  C   UNL     1       0.183  10.737  20.238  0.00  0.00    +0.000 A 
BRANCH  21  28
ATOM     27  N   UNL     1      -1.353  10.212  23.414  0.00  0.00    +0.000 N 
ATOM     28  C   UNL     1      -0.504  10.922  22.592  0.00  0.00    +0.000 C 
ATOM     29  O   UNL     1      -0.291  12.121  22.779  0.00  0.00    +0.000 OA
ATOM     30  H   UNL     1      -1.693  10.723  24.214  0.00  0.00    +0.000 HD
ATOM     31  H   UNL     1      -1.353   9.214  23.439  0.00  0.00    +0.000 HD
ENDBRANCH  21  28
ENDBRANCH  20  24
ENDBRANCH  19  20
ENDBRANCH   1  19
TORSDOF 5
ENDMDL
MODEL 7
REMARK VINA RESULT:      -8.5      3.170      7.604
REMARK  Name = 
REMARK  5 active torsions:
REMARK  status: ('A' for Active; 'I' for Inactive)
REMARK    1  A    between atoms: C_2  and  C_4
REMARK    2  A    between atoms: C_7  and  O_8
REMARK    3  A    between atoms: O_8  and  C_9
REMARK    4  A    between atoms: C_9  and  C_10
REMARK    5  A    between atoms: C_21  and  C_22
REMARK                            x       y       z     vdW  Elec       q    Type
REMARK                         _______ _______ _______ _____ _____    ______ ____
ROOT
ATOM      1  C   UNL     1       3.638   6.789  17.778  0.00  0.00    +0.000 C 
ATOM      2  O   UNL     1       4.402   7.540  17.154  0.00  0.00    +0.000 OA
ATOM      3  N   UNL     1       4.046   5.513  18.303  0.00  0.00    +0.000 N 
ATOM      4  C   UNL     1       5.336   5.135  17.808  0.00  0.00    +0.000 A 
ATOM      5  C   UNL     1       6.466   4.864  18.557  0.00  0.00    +0.000 A 
ATOM      6  C   UNL     1       7.672   4.673  17.870  0.00  0.00    +0.000 A 
ATOM      7  C   UNL     1       7.729   4.856  16.478  0.00  0.00    +0.000 A 
ATOM      8  C   UNL     1       6.549   4.911  15.742  0.00  0.00    +0.000 A 
ATOM      9  C   UNL     1       5.376   4.823  16.450  0.00  0.00    +0.000 A 
ATOM     10  O   UNL     1       4.255   4.197  15.914  0.00  0.00    +0.000 OA
ATOM     11  C   UNL     1       3.664   3.421  17.030  0.00  0.00    +0.000 C 
ATOM     12  C   UNL     1       3.086   4.406  18.081  0.00  0.00    +0.000 C 
ENDROOT
BRANCH  12  13
ATOM     13  C   UNL     1       2.528   3.810  19.380  0.00  0.00    +0.000 A 
ATOM     14  C   UNL     1       1.158   3.815  19.692  0.00  0.00    +0.000 A 
ATOM     15  C   UNL     1       0.681   3.169  20.844  0.00  0.00    +0.000 A 
ATOM     16  C   UNL     1       1.562   2.505  21.694  0.00  0.00    +0.000 A 
ATOM     17  C   UNL     1       2.918   2.489  21.391  0.00  0.00    +0.000 A 
ATOM     18  C   UNL     1       3.397   3.129  20.247  0.00  0.00    +0.000 A 
ENDBRANCH  12  13
BRANCH   1  19
ATOM     19  C   UNL     1       2.213   7.282  18.062  0.00  0.00    +0.000 C 
BRANCH  19  20
ATOM     20  O   UNL     1       2.328   8.203  19.100  0.00  0.00    +0.000 OA
BRANCH  20  24
ATOM     21  C   UNL     1      -0.829  10.860  19.492  0.00  0.00    +0.000 A 
ATOM     22  C   UNL     1      -0.304  10.312  20.661  0.00  0.00    +0.000 A 
ATOM     23  C   UNL     1       0.756   9.381  20.592  0.00  0.00    +0.000 A 
ATOM     24  C   UNL     1       1.281   9.042  19.337  0.00  0.00    +0.000 A 
ATOM     25  C   UNL     1       0.698   9.548  18.194  0.00  0.00    +0.000 A 
ATOM     26  C   UNL     1      -0.358  10.464  18.243  0.00  0.00    +0.000 A 
BRANCH  21  28
ATOM     27  N   UNL     1      -2.594  12.101  18.333  0.00  0.00    +0.000 N 
ATOM     28  C   UNL     1      -1.919  11.876  19.514  0.00  0.00    +0.000 C 
ATOM     29  O   UNL     1      -2.238  12.457  20.552  0.00  0.00    +0.000 OA
ATOM     30  H   UNL     1      -3.408  12.691  18.417  0.00  0.00    +0.000 HD
ATOM     31  H   UNL     1      -2.523  11.480  17.556  0.00  0.00    +0.000 HD
ENDBRANCH  21  28
ENDBRANCH  20  24
ENDBRANCH  19  20
ENDBRANCH   1  19
TORSDOF 5
ENDMDL
MODEL 8
REMARK VINA RESULT:      -8.5      3.117      7.569
REMARK  Name = 
REMARK  5 active torsions:
REMARK  status: ('A' for Active; 'I' for Inactive)
REMARK    1  A    between atoms: C_2  and  C_4
REMARK    2  A    between atoms: C_7  and  O_8
REMARK    3  A    between atoms: O_8  and  C_9
REMARK    4  A    between atoms: C_9  and  C_10
REMARK    5  A    between atoms: C_21  and  C_22
REMARK                            x       y       z     vdW  Elec       q    Type
REMARK                         _______ _______ _______ _____ _____    ______ ____
ROOT
ATOM      1  C   UNL     1       3.581   6.685  17.843  0.00  0.00    +0.000 C 
ATOM      2  O   UNL     1       4.313   7.486  17.243  0.00  0.00    +0.000 OA
ATOM      3  N   UNL     1       4.029   5.394  18.293  0.00  0.00    +0.000 N 
ATOM      4  C   UNL     1       5.317   5.073  17.752  0.00  0.00    +0.000 A 
ATOM      5  C   UNL     1       6.469   4.791  18.462  0.00  0.00    +0.000 A 
ATOM      6  C   UNL     1       7.663   4.665  17.741  0.00  0.00    +0.000 A 
ATOM      7  C   UNL     1       7.685   4.921  16.359  0.00  0.00    +0.000 A 
ATOM      8  C   UNL     1       6.488   4.984  15.652  0.00  0.00    +0.000 A 
ATOM      9  C   UNL     1       5.333   4.832  16.379  0.00  0.00    +0.000 A 
ATOM     10  O   UNL     1       4.216   4.207  15.835  0.00  0.00    +0.000 OA
ATOM     11  C   UNL     1       3.668   3.361  16.922  0.00  0.00    +0.000 C 
ATOM     12  C   UNL     1       3.090   4.277  18.035  0.00  0.00    +0.000 C 
ENDROOT
BRANCH  12  13
ATOM     13  C   UNL     1       2.576   3.602  19.312  0.00  0.00    +0.000 A 
ATOM     14  C   UNL     1       3.429   2.984  20.243  0.00  0.00    +0.000 A 
ATOM     15  C   UNL     1       2.925   2.467  21.447  0.00  0.00    +0.000 A 
ATOM     16  C   UNL     1       1.566   2.566  21.742  0.00  0.00    +0.000 A 
ATOM     17  C   UNL     1       0.716   3.180  20.831  0.00  0.00    +0.000 A 
ATOM     18  C   UNL     1       1.212   3.696  19.632  0.00  0.00    +0.000 A 
ENDBRANCH  12  13
BRANCH   1  19
ATOM     19  C   UNL     1       2.151   7.129  18.182  0.00  0.00    +0.000 C 
BRANCH  19  20
ATOM     20  O   UNL     1       2.274   8.057  19.212  0.00  0.00    +0.000 OA
BRANCH  20  24
ATOM     21  C   UNL     1      -0.628  11.014  19.302  0.00  0.00    +0.000 A 
ATOM     22  C   UNL     1      -0.232  10.468  20.522  0.00  0.00    +0.000 A 
ATOM     23  C   UNL     1       0.736   9.440  20.556  0.00  0.00    +0.000 A 
ATOM     24  C   UNL     1       1.301   9.000  19.351  0.00  0.00    +0.000 A 
ATOM     25  C   UNL     1       0.841   9.510  18.154  0.00  0.00    +0.000 A 
ATOM     26  C   UNL     1      -0.123  10.522  18.101  0.00  0.00    +0.000 A 
BRANCH  21  28
ATOM     27  N   UNL     1      -1.159  13.337  18.735  0.00  0.00    +0.000 N 
ATOM     28  C   UNL     1      -1.615  12.128  19.217  0.00  0.00    +0.000 C 
ATOM     29  O   UNL     1      -2.797  11.967  19.519  0.00  0.00    +0.000 OA
ATOM     30  H   UNL     1      -1.878  14.023  18.566  0.00  0.00    +0.000 HD
ATOM     31  H   UNL     1      -0.284  13.422  18.262  0.00  0.00    +0.000 HD
ENDBRANCH  21  28
ENDBRANCH  20  24
ENDBRANCH  19  20
ENDBRANCH   1  19
TORSDOF 5
ENDMDL
MODEL 9
REMARK VINA RESULT:      -8.4      3.136      7.665
REMARK  Name = 
REMARK  5 active torsions:
REMARK  status: ('A' for Active; 'I' for Inactive)
REMARK    1  A    between atoms: C_2  and  C_4
REMARK    2  A    between atoms: C_7  and  O_8
REMARK    3  A    between atoms: O_8  and  C_9
REMARK    4  A    between atoms: C_9  and  C_10
REMARK    5  A    between atoms: C_21  and  C_22
REMARK                            x       y       z     vdW  Elec       q    Type
REMARK                         _______ _______ _______ _____ _____    ______ ____
ROOT
ATOM      1  C   UNL     1       3.576   6.695  17.773  0.00  0.00    +0.000 C 
ATOM      2  O   UNL     1       4.317   7.492  17.179  0.00  0.00    +0.000 OA
ATOM      3  N   UNL     1       4.022   5.415  18.254  0.00  0.00    +0.000 N 
ATOM      4  C   UNL     1       5.326   5.095  17.749  0.00  0.00    +0.000 A 
ATOM      5  C   UNL     1       6.462   4.833  18.492  0.00  0.00    +0.000 A 
ATOM      6  C   UNL     1       7.674   4.705  17.802  0.00  0.00    +0.000 A 
ATOM      7  C   UNL     1       7.728   4.940  16.417  0.00  0.00    +0.000 A 
ATOM      8  C   UNL     1       6.549   4.983  15.680  0.00  0.00    +0.000 A 
ATOM      9  C   UNL     1       5.377   4.834  16.381  0.00  0.00    +0.000 A 
ATOM     10  O   UNL     1       4.278   4.192  15.820  0.00  0.00    +0.000 OA
ATOM     11  C   UNL     1       3.710   3.358  16.906  0.00  0.00    +0.000 C 
ATOM     12  C   UNL     1       3.098   4.287  17.989  0.00  0.00    +0.000 C 
ENDROOT
BRANCH  12  13
ATOM     13  C   UNL     1       2.557   3.627  19.264  0.00  0.00    +0.000 A 
ATOM     14  C   UNL     1       3.392   3.034  20.227  0.00  0.00    +0.000 A 
ATOM     15  C   UNL     1       2.862   2.532  21.426  0.00  0.00    +0.000 A 
ATOM     16  C   UNL     1       1.495   2.621  21.683  0.00  0.00    +0.000 A 
ATOM     17  C   UNL     1       0.663   3.211  20.741  0.00  0.00    +0.000 A 
ATOM     18  C   UNL     1       1.185   3.712  19.547  0.00  0.00    +0.000 A 
ENDBRANCH  12  13
BRANCH   1  19
ATOM     19  C   UNL     1       2.135   7.133  18.070  0.00  0.00    +0.000 C 
BRANCH  19  20
ATOM     20  O   UNL     1       2.207   7.936  19.205  0.00  0.00    +0.000 OA
BRANCH  20  24
ATOM     21  C   UNL     1      -0.570  10.934  19.896  0.00  0.00    +0.000 A 
ATOM     22  C   UNL     1      -0.106  10.779  18.591  0.00  0.00    +0.000 A 
ATOM     23  C   UNL     1       0.860   9.791  18.296  0.00  0.00    +0.000 A 
ATOM     24  C   UNL     1       1.319   8.962  19.328  0.00  0.00    +0.000 A 
ATOM     25  C   UNL     1       0.893   9.181  20.622  0.00  0.00    +0.000 A 
ATOM     26  C   UNL     1      -0.055  10.161  20.934  0.00  0.00    +0.000 A 
BRANCH  21  28
ATOM     27  N   UNL     1      -2.283  12.543  19.207  0.00  0.00    +0.000 N 
ATOM     28  C   UNL     1      -1.617  11.933  20.250  0.00  0.00    +0.000 C 
ATOM     29  O   UNL     1      -1.911  12.173  21.421  0.00  0.00    +0.000 OA
ATOM     30  H   UNL     1      -3.072  13.108  19.482  0.00  0.00    +0.000 HD
ATOM     31  H   UNL     1      -2.238  12.193  18.274  0.00  0.00    +0.000 HD
ENDBRANCH  21  28
ENDBRANCH  20  24
ENDBRANCH  19  20
ENDBRANCH   1  19
TORSDOF 5
ENDMDL
