MODEL 1
REMARK VINA RESULT:      -8.4      0.000      0.000
REMARK  Name = 
REMARK  10 active torsions:
REMARK  status: ('A' for Active; 'I' for Inactive)
REMARK    1  A    between atoms: C_1  and  C_2
REMARK    2  A    between atoms: C_6  and  C_7
REMARK    3  A    between atoms: C_10  and  S_11
REMARK    4  A    between atoms: S_11  and  C_12
REMARK    5  A    between atoms: C_12  and  C_13
REMARK    6  A    between atoms: N_15  and  C_16
REMARK    7  A    between atoms: C_16  and  C_17
REMARK    8  A    between atoms: C_16  and  C_18
REMARK    9  A    between atoms: N_25  and  C_26
REMARK   10  A    between atoms: C_26  and  C_27
REMARK                            x       y       z     vdW  Elec       q    Type
REMARK                         _______ _______ _______ _____ _____    ______ ____
ROOT
ATOM      1  C   UNL     1       4.190   6.766  17.565  0.00  0.00    +0.000 A 
ATOM      2  N   UNL     1       3.600   7.892  17.198  0.00  0.00    +0.000 NA
ATOM      3  N   UNL     1       2.595   8.187  18.086  0.00  0.00    +0.000 NA
ATOM      4  C   UNL     1       2.591   7.249  19.001  0.00  0.00    +0.000 A 
ATOM      5  N   UNL     1       3.610   6.354  18.753  0.00  0.00    +0.000 N 
ENDROOT
BRANCH   1  11
ATOM      6  C   UNL     1       7.377   7.499  17.598  0.00  0.00    +0.000 C 
ATOM      7  C   UNL     1       6.607   6.518  16.796  0.00  0.00    +0.000 A 
ATOM      8  O   UNL     1       7.349   5.801  15.902  0.00  0.00    +0.000 OA
ATOM      9  C   UNL     1       6.500   4.957  15.272  0.00  0.00    +0.000 A 
ATOM     10  C   UNL     1       5.220   5.115  15.755  0.00  0.00    +0.000 A 
ATOM     11  C   UNL     1       5.273   6.137  16.739  0.00  0.00    +0.000 A 
ENDBRANCH   1  11
BRANCH   4  12
ATOM     12  S   UNL     1       1.483   7.142  20.335  0.00  0.00    +0.000 S 
BRANCH  12  13
ATOM     13  C   UNL     1       1.632   8.791  21.091  0.00  0.00    +0.000 C 
BRANCH  13  14
ATOM     14  C   UNL     1       0.281   9.512  21.084  0.00  0.00    +0.000 C 
ATOM     15  O   UNL     1      -0.638   9.200  21.839  0.00  0.00    +0.000 OA
ATOM     16  N   UNL     1       0.189  10.582  20.207  0.00  0.00    +0.000 N 
ATOM     17  H   UNL     1       0.891  10.682  19.488  0.00  0.00    +0.000 HD
BRANCH  16  18
ATOM     18  C   UNL     1      -1.024  11.390  20.090  0.00  0.00    +0.000 C 
ATOM     19  C   UNL     1      -0.689  12.885  20.105  0.00  0.00    +0.000 C 
BRANCH  18  20
ATOM     20  C   UNL     1      -1.819  11.045  18.839  0.00  0.00    +0.000 A 
ATOM     21  C   UNL     1      -3.068  11.652  18.616  0.00  0.00    +0.000 A 
ATOM     22  C   UNL     1      -3.797  11.378  17.456  0.00  0.00    +0.000 A 
ATOM     23  C   UNL     1      -3.281  10.498  16.515  0.00  0.00    +0.000 A 
ATOM     24  F   UNL     1      -3.977  10.238  15.400  0.00  0.00    +0.000 F 
ATOM     25  C   UNL     1      -2.048   9.887  16.709  0.00  0.00    +0.000 A 
ATOM     26  C   UNL     1      -1.316  10.161  17.868  0.00  0.00    +0.000 A 
ENDBRANCH  18  20
ENDBRANCH  16  18
ENDBRANCH  13  14
ENDBRANCH  12  13
ENDBRANCH   4  12
BRANCH   5  27
ATOM     27  C   UNL     1       3.990   5.228  19.589  0.00  0.00    +0.000 C 
BRANCH  27  28
ATOM     28  C   UNL     1       3.279   3.934  19.248  0.00  0.00    +0.000 A 
ATOM     29  C   UNL     1       1.935   3.695  19.578  0.00  0.00    +0.000 A 
ATOM     30  C   UNL     1       1.305   2.502  19.214  0.00  0.00    +0.000 A 
ATOM     31  C   UNL     1       2.001   1.536  18.495  0.00  0.00    +0.000 A 
ATOM     32  C   UNL     1       3.322   1.768  18.125  0.00  0.00    +0.000 A 
ATOM     33  C   UNL     1       3.955   2.960  18.493  0.00  0.00    +0.000 A 
ENDBRANCH  27  28
ENDBRANCH   5  27
TORSDOF 8
ENDMDL
MODEL 2
REMARK VINA RESULT:      -8.3      0.171      1.213
REMARK  Name = 
REMARK  10 active torsions:
REMARK  status: ('A' for Active; 'I' for Inactive)
REMARK    1  A    between atoms: C_1  and  C_2
REMARK    2  A    between atoms: C_6  and  C_7
REMARK    3  A    between atoms: C_10  and  S_11
REMARK    4  A    between atoms: S_11  and  C_12
REMARK    5  A    between atoms: C_12  and  C_13
REMARK    6  A    between atoms: N_15  and  C_16
REMARK    7  A    between atoms: C_16  and  C_17
REMARK    8  A    between atoms: C_16  and  C_18
REMARK    9  A    between atoms: N_25  and  C_26
REMARK   10  A    between atoms: C_26  and  C_27
REMARK                            x       y       z     vdW  Elec       q    Type
REMARK                         _______ _______ _______ _____ _____    ______ ____
ROOT
ATOM      1  C   UNL     1       4.130   6.865  17.550  0.00  0.00    +0.000 A 
ATOM      2  N   UNL     1       3.542   7.994  17.186  0.00  0.00    +0.000 NA
ATOM      3  N   UNL     1       2.559   8.304  18.093  0.00  0.00    +0.000 NA
ATOM      4  C   UNL     1       2.565   7.374  19.015  0.00  0.00    +0.000 A 
ATOM      5  N   UNL     1       3.571   6.468  18.754  0.00  0.00    +0.000 N 
ENDROOT
BRANCH   1  11
ATOM      6  C   UNL     1       7.345   7.457  17.624  0.00  0.00    +0.000 C 
ATOM      7  C   UNL     1       6.539   6.540  16.784  0.00  0.00    +0.000 A 
ATOM      8  O   UNL     1       7.254   5.823  15.868  0.00  0.00    +0.000 OA
ATOM      9  C   UNL     1       6.373   5.040  15.204  0.00  0.00    +0.000 A 
ATOM     10  C   UNL     1       5.099   5.236  15.687  0.00  0.00    +0.000 A 
ATOM     11  C   UNL     1       5.189   6.220  16.707  0.00  0.00    +0.000 A 
ENDBRANCH   1  11
BRANCH   4  12
ATOM     12  S   UNL     1       1.485   7.287  20.373  0.00  0.00    +0.000 S 
BRANCH  12  13
ATOM     13  C   UNL     1       1.603   8.967  21.065  0.00  0.00    +0.000 C 
BRANCH  13  14
ATOM     14  C   UNL     1       0.226   9.637  21.095  0.00  0.00    +0.000 C 
ATOM     15  O   UNL     1      -0.648   9.313  21.896  0.00  0.00    +0.000 OA
ATOM     16  N   UNL     1       0.058  10.676  20.193  0.00  0.00    +0.000 N 
ATOM     17  H   UNL     1       0.725  10.780  19.442  0.00  0.00    +0.000 HD
BRANCH  16  18
ATOM     18  C   UNL     1      -1.189  11.435  20.104  0.00  0.00    +0.000 C 
ATOM     19  C   UNL     1      -0.924  12.939  20.226  0.00  0.00    +0.000 C 
BRANCH  18  20
ATOM     20  C   UNL     1      -1.944  11.140  18.816  0.00  0.00    +0.000 A 
ATOM     21  C   UNL     1      -1.400  10.245  17.877  0.00  0.00    +0.000 A 
ATOM     22  C   UNL     1      -2.094   9.930  16.706  0.00  0.00    +0.000 A 
ATOM     23  C   UNL     1      -3.334  10.507  16.470  0.00  0.00    +0.000 A 
ATOM     24  F   UNL     1      -4.002  10.203  15.349  0.00  0.00    +0.000 F 
ATOM     25  C   UNL     1      -3.895  11.391  17.381  0.00  0.00    +0.000 A 
ATOM     26  C   UNL     1      -3.204  11.707  18.554  0.00  0.00    +0.000 A 
ENDBRANCH  18  20
ENDBRANCH  16  18
ENDBRANCH  13  14
ENDBRANCH  12  13
ENDBRANCH   4  12
BRANCH   5  27
ATOM     27  C   UNL     1       3.958   5.345  19.590  0.00  0.00    +0.000 C 
BRANCH  27  28
ATOM     28  C   UNL     1       3.252   4.047  19.253  0.00  0.00    +0.000 A 
ATOM     29  C   UNL     1       3.813   3.074  18.409  0.00  0.00    +0.000 A 
ATOM     30  C   UNL     1       3.144   1.874  18.151  0.00  0.00    +0.000 A 
ATOM     31  C   UNL     1       1.914   1.617  18.747  0.00  0.00    +0.000 A 
ATOM     32  C   UNL     1       1.357   2.552  19.615  0.00  0.00    +0.000 A 
ATOM     33  C   UNL     1       2.024   3.756  19.871  0.00  0.00    +0.000 A 
ENDBRANCH  27  28
ENDBRANCH   5  27
TORSDOF 8
ENDMDL
MODEL 3
REMARK VINA RESULT:      -8.2      0.879      1.255
REMARK  Name = 
REMARK  10 active torsions:
REMARK  status: ('A' for Active; 'I' for Inactive)
REMARK    1  A    between atoms: C_1  and  C_2
REMARK    2  A    between atoms: C_6  and  C_7
REMARK    3  A    between atoms: C_10  and  S_11
REMARK    4  A    between atoms: S_11  and  C_12
REMARK    5  A    between atoms: C_12  and  C_13
REMARK    6  A    between atoms: N_15  and  C_16
REMARK    7  A    between atoms: C_16  and  C_17
REMARK    8  A    between atoms: C_16  and  C_18
REMARK    9  A    between atoms: N_25  and  C_26
REMARK   10  A    between atoms: C_26  and  C_27
REMARK                            x       y       z     vdW  Elec       q    Type
REMARK                         _______ _______ _______ _____ _____    ______ ____
ROOT
ATOM      1  C   UNL     1       3.509   6.765  18.040  0.00  0.00    +0.000 A 
ATOM      2  N   UNL     1       3.106   7.942  17.589  0.00  0.00    +0.000 NA
ATOM      3  N   UNL     1       2.228   8.495  18.488  0.00  0.00    +0.000 NA
ATOM      4  C   UNL     1       2.115   7.661  19.492  0.00  0.00    +0.000 A 
ATOM      5  N   UNL     1       2.941   6.576  19.289  0.00  0.00    +0.000 N 
ENDROOT
BRANCH   1  11
ATOM      6  C   UNL     1       6.664   7.262  17.340  0.00  0.00    +0.000 C 
ATOM      7  C   UNL     1       5.740   6.166  16.963  0.00  0.00    +0.000 A 
ATOM      8  O   UNL     1       6.289   5.198  16.172  0.00  0.00    +0.000 OA
ATOM      9  C   UNL     1       5.321   4.284  15.937  0.00  0.00    +0.000 A 
ATOM     10  C   UNL     1       4.155   4.646  16.573  0.00  0.00    +0.000 A 
ATOM     11  C   UNL     1       4.409   5.876  17.234  0.00  0.00    +0.000 A 
ENDBRANCH   1  11
BRANCH   4  12
ATOM     12  S   UNL     1       1.091   7.880  20.879  0.00  0.00    +0.000 S 
BRANCH  12  13
ATOM     13  C   UNL     1       1.252   9.666  21.196  0.00  0.00    +0.000 C 
BRANCH  13  14
ATOM     14  C   UNL     1      -0.119  10.347  21.155  0.00  0.00    +0.000 C 
ATOM     15  O   UNL     1      -0.799  10.522  22.164  0.00  0.00    +0.000 OA
ATOM     16  N   UNL     1      -0.510  10.807  19.908  0.00  0.00    +0.000 N 
ATOM     17  H   UNL     1      -0.013  10.481  19.091  0.00  0.00    +0.000 HD
BRANCH  16  18
ATOM     18  C   UNL     1      -1.782  11.499  19.697  0.00  0.00    +0.000 C 
ATOM     19  C   UNL     1      -1.605  13.016  19.810  0.00  0.00    +0.000 C 
BRANCH  18  20
ATOM     20  C   UNL     1      -2.406  11.143  18.355  0.00  0.00    +0.000 A 
ATOM     21  C   UNL     1      -1.743  10.254  17.490  0.00  0.00    +0.000 A 
ATOM     22  C   UNL     1      -2.317   9.884  16.271  0.00  0.00    +0.000 A 
ATOM     23  C   UNL     1      -3.555  10.401  15.912  0.00  0.00    +0.000 A 
ATOM     24  F   UNL     1      -4.107  10.044  14.745  0.00  0.00    +0.000 F 
ATOM     25  C   UNL     1      -4.232  11.278  16.749  0.00  0.00    +0.000 A 
ATOM     26  C   UNL     1      -3.662  11.648  17.970  0.00  0.00    +0.000 A 
ENDBRANCH  18  20
ENDBRANCH  16  18
ENDBRANCH  13  14
ENDBRANCH  12  13
ENDBRANCH   4  12
BRANCH   5  27
ATOM     27  C   UNL     1       3.167   5.480  20.217  0.00  0.00    +0.000 C 
BRANCH  27  28
ATOM     28  C   UNL     1       2.612   4.149  19.751  0.00  0.00    +0.000 A 
ATOM     29  C   UNL     1       1.256   3.957  19.440  0.00  0.00    +0.000 A 
ATOM     30  C   UNL     1       0.791   2.723  18.980  0.00  0.00    +0.000 A 
ATOM     31  C   UNL     1       1.676   1.665  18.801  0.00  0.00    +0.000 A 
ATOM     32  C   UNL     1       3.030   1.844  19.069  0.00  0.00    +0.000 A 
ATOM     33  C   UNL     1       3.496   3.078  19.534  0.00  0.00    +0.000 A 
ENDBRANCH  27  28
ENDBRANCH   5  27
TORSDOF 8
ENDMDL
MODEL 4
REMARK VINA RESULT:      -8.0      3.102      9.128
REMARK  Name = 
REMARK  10 active torsions:
REMARK  status: ('A' for Active; 'I' for Inactive)
REMARK    1  A    between atoms: C_1  and  C_2
REMARK    2  A    between atoms: C_6  and  C_7
REMARK    3  A    between atoms: C_10  and  S_11
REMARK    4  A    between atoms: S_11  and  C_12
REMARK    5  A    between atoms: C_12  and  C_13
REMARK    6  A    between atoms: N_15  and  C_16
REMARK    7  A    between atoms: C_16  and  C_17
REMARK    8  A    between atoms: C_16  and  C_18
REMARK    9  A    between atoms: N_25  and  C_26
REMARK   10  A    between atoms: C_26  and  C_27
REMARK                            x       y       z     vdW  Elec       q    Type
REMARK                         _______ _______ _______ _____ _____    ______ ____
ROOT
ATOM      1  C   UNL     1       0.551  12.437  19.250  0.00  0.00    +0.000 A 
ATOM      2  N   UNL     1       1.773  12.684  18.808  0.00  0.00    +0.000 NA
ATOM      3  N   UNL     1       2.331  11.517  18.347  0.00  0.00    +0.000 NA
ATOM      4  C   UNL     1       1.439  10.569  18.491  0.00  0.00    +0.000 A 
ATOM      5  N   UNL     1       0.276  11.101  19.008  0.00  0.00    +0.000 N 
ENDROOT
BRANCH   1  11
ATOM      6  C   UNL     1      -0.668  12.412  22.285  0.00  0.00    +0.000 C 
ATOM      7  C   UNL     1      -0.782  13.408  21.193  0.00  0.00    +0.000 A 
ATOM      8  O   UNL     1      -1.539  14.504  21.494  0.00  0.00    +0.000 OA
ATOM      9  C   UNL     1      -1.527  15.304  20.404  0.00  0.00    +0.000 A 
ATOM     10  C   UNL     1      -0.763  14.742  19.405  0.00  0.00    +0.000 A 
ATOM     11  C   UNL     1      -0.283  13.501  19.900  0.00  0.00    +0.000 A 
ENDBRANCH   1  11
BRANCH   4  12
ATOM     12  S   UNL     1       1.666   8.895  18.089  0.00  0.00    +0.000 S 
BRANCH  12  13
ATOM     13  C   UNL     1       1.779   8.117  19.731  0.00  0.00    +0.000 C 
BRANCH  13  14
ATOM     14  C   UNL     1       2.267   6.671  19.612  0.00  0.00    +0.000 C 
ATOM     15  O   UNL     1       2.219   5.879  20.551  0.00  0.00    +0.000 OA
ATOM     16  N   UNL     1       2.709   6.301  18.352  0.00  0.00    +0.000 N 
ATOM     17  H   UNL     1       2.901   7.024  17.672  0.00  0.00    +0.000 HD
BRANCH  16  18
ATOM     18  C   UNL     1       3.189   4.951  18.060  0.00  0.00    +0.000 C 
ATOM     19  C   UNL     1       2.045   4.056  17.573  0.00  0.00    +0.000 C 
BRANCH  18  20
ATOM     20  C   UNL     1       4.319   4.957  17.041  0.00  0.00    +0.000 A 
ATOM     21  C   UNL     1       4.847   3.738  16.576  0.00  0.00    +0.000 A 
ATOM     22  C   UNL     1       5.857   3.721  15.611  0.00  0.00    +0.000 A 
ATOM     23  C   UNL     1       6.343   4.919  15.107  0.00  0.00    +0.000 A 
ATOM     24  F   UNL     1       7.310   4.903  14.179  0.00  0.00    +0.000 F 
ATOM     25  C   UNL     1       5.838   6.136  15.547  0.00  0.00    +0.000 A 
ATOM     26  C   UNL     1       4.826   6.157  16.509  0.00  0.00    +0.000 A 
ENDBRANCH  18  20
ENDBRANCH  16  18
ENDBRANCH  13  14
ENDBRANCH  12  13
ENDBRANCH   4  12
BRANCH   5  27
ATOM     27  C   UNL     1      -0.973  10.392  19.228  0.00  0.00    +0.000 C 
BRANCH  27  28
ATOM     28  C   UNL     1      -1.990  10.567  18.118  0.00  0.00    +0.000 A 
ATOM     29  C   UNL     1      -1.933   9.848  16.914  0.00  0.00    +0.000 A 
ATOM     30  C   UNL     1      -2.911  10.014  15.929  0.00  0.00    +0.000 A 
ATOM     31  C   UNL     1      -3.974  10.885  16.141  0.00  0.00    +0.000 A 
ATOM     32  C   UNL     1      -4.070  11.581  17.342  0.00  0.00    +0.000 A 
ATOM     33  C   UNL     1      -3.089  11.419  18.327  0.00  0.00    +0.000 A 
ENDBRANCH  27  28
ENDBRANCH   5  27
TORSDOF 8
ENDMDL
MODEL 5
REMARK VINA RESULT:      -7.9      2.327      2.816
REMARK  Name = 
REMARK  10 active torsions:
REMARK  status: ('A' for Active; 'I' for Inactive)
REMARK    1  A    between atoms: C_1  and  C_2
REMARK    2  A    between atoms: C_6  and  C_7
REMARK    3  A    between atoms: C_10  and  S_11
REMARK    4  A    between atoms: S_11  and  C_12
REMARK    5  A    between atoms: C_12  and  C_13
REMARK    6  A    between atoms: N_15  and  C_16
REMARK    7  A    between atoms: C_16  and  C_17
REMARK    8  A    between atoms: C_16  and  C_18
REMARK    9  A    between atoms: N_25  and  C_26
REMARK   10  A    between atoms: C_26  and  C_27
REMARK                            x       y       z     vdW  Elec       q    Type
REMARK                         _______ _______ _______ _____ _____    ______ ____
ROOT
ATOM      1  C   UNL     1       4.451   6.552  17.321  0.00  0.00    +0.000 A 
ATOM      2  N   UNL     1       4.084   7.702  16.779  0.00  0.00    +0.000 NA
ATOM      3  N   UNL     1       3.109   8.278  17.556  0.00  0.00    +0.000 NA
ATOM      4  C   UNL     1       2.902   7.486  18.579  0.00  0.00    +0.000 A 
ATOM      5  N   UNL     1       3.757   6.407  18.512  0.00  0.00    +0.000 N 
ENDROOT
BRANCH   1  11
ATOM      6  C   UNL     1       7.560   6.035  18.194  0.00  0.00    +0.000 C 
ATOM      7  C   UNL     1       6.755   5.492  17.073  0.00  0.00    +0.000 A 
ATOM      8  O   UNL     1       7.426   4.636  16.248  0.00  0.00    +0.000 OA
ATOM      9  C   UNL     1       6.549   4.233  15.300  0.00  0.00    +0.000 A 
ATOM     10  C   UNL     1       5.317   4.812  15.509  0.00  0.00    +0.000 A 
ATOM     11  C   UNL     1       5.440   5.644  16.653  0.00  0.00    +0.000 A 
ENDBRANCH   1  11
BRANCH   4  12
ATOM     12  S   UNL     1       1.737   7.747  19.841  0.00  0.00    +0.000 S 
BRANCH  12  13
ATOM     13  C   UNL     1       1.015   9.352  19.371  0.00  0.00    +0.000 C 
BRANCH  13  14
ATOM     14  C   UNL     1       0.713  10.192  20.615  0.00  0.00    +0.000 C 
ATOM     15  O   UNL     1       0.730   9.721  21.750  0.00  0.00    +0.000 OA
ATOM     16  N   UNL     1       0.478  11.537  20.374  0.00  0.00    +0.000 N 
ATOM     17  H   UNL     1       0.293  11.836  19.427  0.00  0.00    +0.000 HD
BRANCH  16  18
ATOM     18  C   UNL     1       0.194  12.483  21.452  0.00  0.00    +0.000 C 
ATOM     19  C   UNL     1       0.713  13.882  21.105  0.00  0.00    +0.000 C 
BRANCH  18  20
ATOM     20  C   UNL     1      -1.291  12.543  21.780  0.00  0.00    +0.000 A 
ATOM     21  C   UNL     1      -1.741  12.161  23.057  0.00  0.00    +0.000 A 
ATOM     22  C   UNL     1      -3.095  12.245  23.391  0.00  0.00    +0.000 A 
ATOM     23  C   UNL     1      -4.004  12.710  22.451  0.00  0.00    +0.000 A 
ATOM     24  F   UNL     1      -5.302  12.794  22.772  0.00  0.00    +0.000 F 
ATOM     25  C   UNL     1      -3.587  13.096  21.184  0.00  0.00    +0.000 A 
ATOM     26  C   UNL     1      -2.233  13.015  20.848  0.00  0.00    +0.000 A 
ENDBRANCH  18  20
ENDBRANCH  16  18
ENDBRANCH  13  14
ENDBRANCH  12  13
ENDBRANCH   4  12
BRANCH   5  27
ATOM     27  C   UNL     1       3.897   5.356  19.505  0.00  0.00    +0.000 C 
BRANCH  27  28
ATOM     28  C   UNL     1       2.905   4.221  19.350  0.00  0.00    +0.000 A 
ATOM     29  C   UNL     1       1.788   4.068  20.188  0.00  0.00    +0.000 A 
ATOM     30  C   UNL     1       0.878   3.027  19.990  0.00  0.00    +0.000 A 
ATOM     31  C   UNL     1       1.055   2.133  18.939  0.00  0.00    +0.000 A 
ATOM     32  C   UNL     1       2.135   2.288  18.075  0.00  0.00    +0.000 A 
ATOM     33  C   UNL     1       3.050   3.327  18.274  0.00  0.00    +0.000 A 
ENDBRANCH  27  28
ENDBRANCH   5  27
TORSDOF 8
ENDMDL
MODEL 6
REMARK VINA RESULT:      -7.9      2.358      2.959
REMARK  Name = 
REMARK  10 active torsions:
REMARK  status: ('A' for Active; 'I' for Inactive)
REMARK    1  A    between atoms: C_1  and  C_2
REMARK    2  A    between atoms: C_6  and  C_7
REMARK    3  A    between atoms: C_10  and  S_11
REMARK    4  A    between atoms: S_11  and  C_12
REMARK    5  A    between atoms: C_12  and  C_13
REMARK    6  A    between atoms: N_15  and  C_16
REMARK    7  A    between atoms: C_16  and  C_17
REMARK    8  A    between atoms: C_16  and  C_18
REMARK    9  A    between atoms: N_25  and  C_26
REMARK   10  A    between atoms: C_26  and  C_27
REMARK                            x       y       z     vdW  Elec       q    Type
REMARK                         _______ _______ _______ _____ _____    ______ ____
ROOT
ATOM      1  C   UNL     1       4.186   6.793  17.375  0.00  0.00    +0.000 A 
ATOM      2  N   UNL     1       3.798   7.881  16.729  0.00  0.00    +0.000 NA
ATOM      3  N   UNL     1       2.789   8.489  17.434  0.00  0.00    +0.000 NA
ATOM      4  C   UNL     1       2.581   7.781  18.515  0.00  0.00    +0.000 A 
ATOM      5  N   UNL     1       3.469   6.727  18.558  0.00  0.00    +0.000 N 
ENDROOT
BRANCH   1  11
ATOM      6  C   UNL     1       7.433   7.175  17.432  0.00  0.00    +0.000 C 
ATOM      7  C   UNL     1       6.584   6.106  16.854  0.00  0.00    +0.000 A 
ATOM      8  O   UNL     1       7.269   5.110  16.220  0.00  0.00    +0.000 OA
ATOM      9  C   UNL     1       6.351   4.225  15.767  0.00  0.00    +0.000 A 
ATOM     10  C   UNL     1       5.082   4.634  16.110  0.00  0.00    +0.000 A 
ATOM     11  C   UNL     1       5.217   5.864  16.806  0.00  0.00    +0.000 A 
ENDBRANCH   1  11
BRANCH   4  12
ATOM     12  S   UNL     1       1.379   8.110  19.726  0.00  0.00    +0.000 S 
BRANCH  12  13
ATOM     13  C   UNL     1       1.056   9.884  19.473  0.00  0.00    +0.000 C 
BRANCH  13  14
ATOM     14  C   UNL     1       0.746  10.572  20.805  0.00  0.00    +0.000 C 
ATOM     15  O   UNL     1       1.378  10.335  21.833  0.00  0.00    +0.000 OA
ATOM     16  N   UNL     1      -0.259  11.525  20.756  0.00  0.00    +0.000 N 
ATOM     17  H   UNL     1      -0.865  11.551  19.948  0.00  0.00    +0.000 HD
BRANCH  16  18
ATOM     18  C   UNL     1      -0.665  12.290  21.935  0.00  0.00    +0.000 C 
ATOM     19  C   UNL     1       0.025  13.657  21.965  0.00  0.00    +0.000 C 
BRANCH  18  20
ATOM     20  C   UNL     1      -2.175  12.464  22.006  0.00  0.00    +0.000 A 
ATOM     21  C   UNL     1      -2.812  12.530  23.259  0.00  0.00    +0.000 A 
ATOM     22  C   UNL     1      -4.192  12.729  23.348  0.00  0.00    +0.000 A 
ATOM     23  C   UNL     1      -4.941  12.862  22.187  0.00  0.00    +0.000 A 
ATOM     24  F   UNL     1      -6.264  13.056  22.271  0.00  0.00    +0.000 F 
ATOM     25  C   UNL     1      -4.337  12.804  20.937  0.00  0.00    +0.000 A 
ATOM     26  C   UNL     1      -2.956  12.608  20.845  0.00  0.00    +0.000 A 
ENDBRANCH  18  20
ENDBRANCH  16  18
ENDBRANCH  13  14
ENDBRANCH  12  13
ENDBRANCH   4  12
BRANCH   5  27
ATOM     27  C   UNL     1       3.618   5.768  19.640  0.00  0.00    +0.000 C 
BRANCH  27  28
ATOM     28  C   UNL     1       2.588   4.656  19.628  0.00  0.00    +0.000 A 
ATOM     29  C   UNL     1       2.185   4.006  18.450  0.00  0.00    +0.000 A 
ATOM     30  C   UNL     1       1.258   2.960  18.487  0.00  0.00    +0.000 A 
ATOM     31  C   UNL     1       0.735   2.532  19.703  0.00  0.00    +0.000 A 
ATOM     32  C   UNL     1       1.149   3.138  20.885  0.00  0.00    +0.000 A 
ATOM     33  C   UNL     1       2.073   4.188  20.850  0.00  0.00    +0.000 A 
ENDBRANCH  27  28
ENDBRANCH   5  27
TORSDOF 8
ENDMDL
MODEL 7
REMARK VINA RESULT:      -7.9      1.037      1.360
REMARK  Name = 
REMARK  10 active torsions:
REMARK  status: ('A' for Active; 'I' for Inactive)
REMARK    1  A    between atoms: C_1  and  C_2
REMARK    2  A    between atoms: C_6  and  C_7
REMARK    3  A    between atoms: C_10  and  S_11
REMARK    4  A    between atoms: S_11  and  C_12
REMARK    5  A    between atoms: C_12  and  C_13
REMARK    6  A    between atoms: N_15  and  C_16
REMARK    7  A    between atoms: C_16  and  C_17
REMARK    8  A    between atoms: C_16  and  C_18
REMARK    9  A    between atoms: N_25  and  C_26
REMARK   10  A    between atoms: C_26  and  C_27
REMARK                            x       y       z     vdW  Elec       q    Type
REMARK                         _______ _______ _______ _____ _____    ______ ____
ROOT
ATOM      1  C   UNL     1       3.820   6.675  18.139  0.00  0.00    +0.000 A 
ATOM      2  N   UNL     1       3.417   7.874  17.748  0.00  0.00    +0.000 NA
ATOM      3  N   UNL     1       2.420   8.311  18.585  0.00  0.00    +0.000 NA
ATOM      4  C   UNL     1       2.234   7.386  19.493  0.00  0.00    +0.000 A 
ATOM      5  N   UNL     1       3.126   6.353  19.294  0.00  0.00    +0.000 N 
ENDROOT
BRANCH   1  11
ATOM      6  C   UNL     1       6.719   5.612  19.216  0.00  0.00    +0.000 C 
ATOM      7  C   UNL     1       6.064   5.494  17.891  0.00  0.00    +0.000 A 
ATOM      8  O   UNL     1       6.801   4.842  16.944  0.00  0.00    +0.000 OA
ATOM      9  C   UNL     1       6.057   4.816  15.815  0.00  0.00    +0.000 A 
ATOM     10  C   UNL     1       4.846   5.437  16.023  0.00  0.00    +0.000 A 
ATOM     11  C   UNL     1       4.842   5.895  17.367  0.00  0.00    +0.000 A 
ENDBRANCH   1  11
BRANCH   4  12
ATOM     12  S   UNL     1       1.054   7.442  20.768  0.00  0.00    +0.000 S 
BRANCH  12  13
ATOM     13  C   UNL     1       1.563   8.923  21.697  0.00  0.00    +0.000 C 
BRANCH  13  14
ATOM     14  C   UNL     1       0.661  10.111  21.354  0.00  0.00    +0.000 C 
ATOM     15  O   UNL     1      -0.167  10.561  22.144  0.00  0.00    +0.000 OA
ATOM     16  N   UNL     1       0.887  10.683  20.111  0.00  0.00    +0.000 N 
ATOM     17  H   UNL     1       1.438  10.173  19.435  0.00  0.00    +0.000 HD
BRANCH  16  18
ATOM     18  C   UNL     1       0.127  11.839  19.636  0.00  0.00    +0.000 C 
ATOM     19  C   UNL     1       0.968  12.694  18.684  0.00  0.00    +0.000 C 
BRANCH  18  20
ATOM     20  C   UNL     1      -1.172  11.425  18.958  0.00  0.00    +0.000 A 
ATOM     21  C   UNL     1      -2.364  12.110  19.255  0.00  0.00    +0.000 A 
ATOM     22  C   UNL     1      -3.559  11.773  18.615  0.00  0.00    +0.000 A 
ATOM     23  C   UNL     1      -3.568  10.750  17.677  0.00  0.00    +0.000 A 
ATOM     24  F   UNL     1      -4.713  10.428  17.060  0.00  0.00    +0.000 F 
ATOM     25  C   UNL     1      -2.405  10.059  17.363  0.00  0.00    +0.000 A 
ATOM     26  C   UNL     1      -1.207  10.396  17.999  0.00  0.00    +0.000 A 
ENDBRANCH  18  20
ENDBRANCH  16  18
ENDBRANCH  13  14
ENDBRANCH  12  13
ENDBRANCH   4  12
BRANCH   5  27
ATOM     27  C   UNL     1       3.296   5.186  20.142  0.00  0.00    +0.000 C 
BRANCH  27  28
ATOM     28  C   UNL     1       2.763   3.901  19.543  0.00  0.00    +0.000 A 
ATOM     29  C   UNL     1       3.601   2.870  19.085  0.00  0.00    +0.000 A 
ATOM     30  C   UNL     1       3.069   1.685  18.571  0.00  0.00    +0.000 A 
ATOM     31  C   UNL     1       1.691   1.499  18.526  0.00  0.00    +0.000 A 
ATOM     32  C   UNL     1       0.843   2.492  19.008  0.00  0.00    +0.000 A 
ATOM     33  C   UNL     1       1.374   3.681  19.519  0.00  0.00    +0.000 A 
ENDBRANCH  27  28
ENDBRANCH   5  27
TORSDOF 8
ENDMDL
MODEL 8
REMARK VINA RESULT:      -7.8      1.788      3.711
REMARK  Name = 
REMARK  10 active torsions:
REMARK  status: ('A' for Active; 'I' for Inactive)
REMARK    1  A    between atoms: C_1  and  C_2
REMARK    2  A    between atoms: C_6  and  C_7
REMARK    3  A    between atoms: C_10  and  S_11
REMARK    4  A    between atoms: S_11  and  C_12
REMARK    5  A    between atoms: C_12  and  C_13
REMARK    6  A    between atoms: N_15  and  C_16
REMARK    7  A    between atoms: C_16  and  C_17
REMARK    8  A    between atoms: C_16  and  C_18
REMARK    9  A    between atoms: N_25  and  C_26
REMARK   10  A    between atoms: C_26  and  C_27
REMARK                            x       y       z     vdW  Elec       q    Type
REMARK                         _______ _______ _______ _____ _____    ______ ____
ROOT
ATOM      1  C   UNL     1       2.643   5.200  19.592  0.00  0.00    +0.000 A 
ATOM      2  N   UNL     1       2.023   5.642  20.674  0.00  0.00    +0.000 NA
ATOM      3  N   UNL     1       1.719   6.971  20.509  0.00  0.00    +0.000 NA
ATOM      4  C   UNL     1       2.138   7.327  19.320  0.00  0.00    +0.000 A 
ATOM      5  N   UNL     1       2.683   6.237  18.675  0.00  0.00    +0.000 N 
ENDROOT
BRANCH   1  11
ATOM      6  C   UNL     1       1.012   2.506  18.713  0.00  0.00    +0.000 C 
ATOM      7  C   UNL     1       2.417   2.702  19.141  0.00  0.00    +0.000 A 
ATOM      8  O   UNL     1       3.164   1.560  19.196  0.00  0.00    +0.000 OA
ATOM      9  C   UNL     1       4.407   1.921  19.590  0.00  0.00    +0.000 A 
ATOM     10  C   UNL     1       4.473   3.282  19.782  0.00  0.00    +0.000 A 
ATOM     11  C   UNL     1       3.182   3.802  19.507  0.00  0.00    +0.000 A 
ENDBRANCH   1  11
BRANCH   4  12
ATOM     12  S   UNL     1       2.025   8.923  18.643  0.00  0.00    +0.000 S 
BRANCH  12  13
ATOM     13  C   UNL     1       1.555   9.922  20.091  0.00  0.00    +0.000 C 
BRANCH  13  14
ATOM     14  C   UNL     1       0.032  10.031  20.200  0.00  0.00    +0.000 C 
ATOM     15  O   UNL     1      -0.612   9.431  21.059  0.00  0.00    +0.000 OA
ATOM     16  N   UNL     1      -0.562  10.902  19.301  0.00  0.00    +0.000 N 
ATOM     17  H   UNL     1      -0.025  11.223  18.508  0.00  0.00    +0.000 HD
BRANCH  16  18
ATOM     18  C   UNL     1      -2.006  11.138  19.285  0.00  0.00    +0.000 C 
ATOM     19  C   UNL     1      -2.331  12.570  19.721  0.00  0.00    +0.000 C 
BRANCH  18  20
ATOM     20  C   UNL     1      -2.612  10.858  17.917  0.00  0.00    +0.000 A 
ATOM     21  C   UNL     1      -3.807  11.495  17.539  0.00  0.00    +0.000 A 
ATOM     22  C   UNL     1      -4.360  11.282  16.274  0.00  0.00    +0.000 A 
ATOM     23  C   UNL     1      -3.721  10.432  15.381  0.00  0.00    +0.000 A 
ATOM     24  F   UNL     1      -4.248  10.230  14.167  0.00  0.00    +0.000 F 
ATOM     25  C   UNL     1      -2.537   9.793  15.728  0.00  0.00    +0.000 A 
ATOM     26  C   UNL     1      -1.981  10.006  16.992  0.00  0.00    +0.000 A 
ENDBRANCH  18  20
ENDBRANCH  16  18
ENDBRANCH  13  14
ENDBRANCH  12  13
ENDBRANCH   4  12
BRANCH   5  27
ATOM     27  C   UNL     1       3.175   6.203  17.308  0.00  0.00    +0.000 C 
BRANCH  27  28
ATOM     28  C   UNL     1       4.576   5.643  17.167  0.00  0.00    +0.000 A 
ATOM     29  C   UNL     1       4.878   4.546  16.344  0.00  0.00    +0.000 A 
ATOM     30  C   UNL     1       6.189   4.082  16.214  0.00  0.00    +0.000 A 
ATOM     31  C   UNL     1       7.226   4.720  16.887  0.00  0.00    +0.000 A 
ATOM     32  C   UNL     1       6.955   5.832  17.680  0.00  0.00    +0.000 A 
ATOM     33  C   UNL     1       5.641   6.295  17.814  0.00  0.00    +0.000 A 
ENDBRANCH  27  28
ENDBRANCH   5  27
TORSDOF 8
ENDMDL
MODEL 9
REMARK VINA RESULT:      -7.8      1.826      4.017
REMARK  Name = 
REMARK  10 active torsions:
REMARK  status: ('A' for Active; 'I' for Inactive)
REMARK    1  A    between atoms: C_1  and  C_2
REMARK    2  A    between atoms: C_6  and  C_7
REMARK    3  A    between atoms: C_10  and  S_11
REMARK    4  A    between atoms: S_11  and  C_12
REMARK    5  A    between atoms: C_12  and  C_13
REMARK    6  A    between atoms: N_15  and  C_16
REMARK    7  A    between atoms: C_16  and  C_17
REMARK    8  A    between atoms: C_16  and  C_18
REMARK    9  A    between atoms: N_25  and  C_26
REMARK   10  A    between atoms: C_26  and  C_27
REMARK                            x       y       z     vdW  Elec       q    Type
REMARK                         _______ _______ _______ _____ _____    ______ ____
ROOT
ATOM      1  C   UNL     1       2.835   4.143  19.958  0.00  0.00    +0.000 A 
ATOM      2  N   UNL     1       2.040   4.290  21.006  0.00  0.00    +0.000 NA
ATOM      3  N   UNL     1       1.624   5.597  21.078  0.00  0.00    +0.000 NA
ATOM      4  C   UNL     1       2.151   6.235  20.063  0.00  0.00    +0.000 A 
ATOM      5  N   UNL     1       2.882   5.356  19.291  0.00  0.00    +0.000 N 
ENDROOT
BRANCH   1  11
ATOM      6  C   UNL     1       2.383   2.215  17.356  0.00  0.00    +0.000 C 
ATOM      7  C   UNL     1       3.260   2.067  18.541  0.00  0.00    +0.000 A 
ATOM      8  O   UNL     1       4.002   0.922  18.567  0.00  0.00    +0.000 OA
ATOM      9  C   UNL     1       4.743   0.956  19.698  0.00  0.00    +0.000 A 
ATOM     10  C   UNL     1       4.494   2.114  20.399  0.00  0.00    +0.000 A 
ATOM     11  C   UNL     1       3.521   2.842  19.665  0.00  0.00    +0.000 A 
ENDBRANCH   1  11
BRANCH   4  12
ATOM     12  S   UNL     1       1.959   7.927  19.720  0.00  0.00    +0.000 S 
BRANCH  12  13
ATOM     13  C   UNL     1       1.597   8.613  21.368  0.00  0.00    +0.000 C 
BRANCH  13  14
ATOM     14  C   UNL     1       0.704   9.851  21.253  0.00  0.00    +0.000 C 
ATOM     15  O   UNL     1       0.285  10.456  22.238  0.00  0.00    +0.000 OA
ATOM     16  N   UNL     1       0.453  10.277  19.959  0.00  0.00    +0.000 N 
ATOM     17  H   UNL     1       0.660   9.653  19.192  0.00  0.00    +0.000 HD
BRANCH  16  18
ATOM     18  C   UNL     1      -0.364  11.456  19.672  0.00  0.00    +0.000 C 
ATOM     19  C   UNL     1       0.510  12.635  19.233  0.00  0.00    +0.000 C 
BRANCH  18  20
ATOM     20  C   UNL     1      -1.424  11.170  18.618  0.00  0.00    +0.000 A 
ATOM     21  C   UNL     1      -1.215  10.146  17.677  0.00  0.00    +0.000 A 
ATOM     22  C   UNL     1      -2.191   9.842  16.725  0.00  0.00    +0.000 A 
ATOM     23  C   UNL     1      -3.380  10.557  16.711  0.00  0.00    +0.000 A 
ATOM     24  F   UNL     1      -4.319  10.263  15.801  0.00  0.00    +0.000 F 
ATOM     25  C   UNL     1      -3.614  11.571  17.631  0.00  0.00    +0.000 A 
ATOM     26  C   UNL     1      -2.640  11.877  18.586  0.00  0.00    +0.000 A 
ENDBRANCH  18  20
ENDBRANCH  16  18
ENDBRANCH  13  14
ENDBRANCH  12  13
ENDBRANCH   4  12
BRANCH   5  27
ATOM     27  C   UNL     1       3.542   5.658  18.033  0.00  0.00    +0.000 C 
BRANCH  27  28
ATOM     28  C   UNL     1       5.009   6.014  18.172  0.00  0.00    +0.000 A 
ATOM     29  C   UNL     1       5.862   5.380  19.091  0.00  0.00    +0.000 A 
ATOM     30  C   UNL     1       7.217   5.714  19.163  0.00  0.00    +0.000 A 
ATOM     31  C   UNL     1       7.748   6.670  18.305  0.00  0.00    +0.000 A 
ATOM     32  C   UNL     1       6.929   7.285  17.363  0.00  0.00    +0.000 A 
ATOM     33  C   UNL     1       5.571   6.955  17.291  0.00  0.00    +0.000 A 
ENDBRANCH  27  28
ENDBRANCH   5  27
TORSDOF 8
ENDMDL
