MODEL 1
REMARK VINA RESULT:      -8.9      0.000      0.000
REMARK  Name = 
REMARK  5 active torsions:
REMARK  status: ('A' for Active; 'I' for Inactive)
REMARK    1  A    between atoms: C_2  and  C_4
REMARK    2  A    between atoms: C_10  and  N_11
REMARK    3  A    between atoms: C_12  and  C_14
REMARK    4  A    between atoms: C_18  and  C_19
REMARK    5  A    between atoms: C_19  and  N_20
REMARK                            x       y       z     vdW  Elec       q    Type
REMARK                         _______ _______ _______ _____ _____    ______ ____
ROOT
ATOM      1  N   UNL     1       1.901   7.622  19.653  0.00  0.00    +0.000 N 
ATOM      2  C   UNL     1       2.506   7.717  18.406  0.00  0.00    +0.000 C 
ATOM      3  O   UNL     1       2.553   8.712  17.691  0.00  0.00    +0.000 OA
ATOM      4  H   UNL     1       2.098   6.807  20.219  0.00  0.00    +0.000 HD
ENDROOT
BRANCH   1  11
ATOM      5  C   UNL     1      -1.195  11.615  19.692  0.00  0.00    +0.000 A 
ATOM      6  N   UNL     1      -1.631  12.341  20.741  0.00  0.00    +0.000 NA
ATOM      7  N   UNL     1      -1.062  11.747  21.800  0.00  0.00    +0.000 N 
ATOM      8  C   UNL     1      -0.262  10.687  21.490  0.00  0.00    +0.000 A 
ATOM      9  C   UNL     1       0.490   9.848  22.303  0.00  0.00    +0.000 A 
ATOM     10  C   UNL     1       1.216   8.840  21.670  0.00  0.00    +0.000 A 
ATOM     11  C   UNL     1       1.184   8.661  20.285  0.00  0.00    +0.000 A 
ATOM     12  C   UNL     1       0.431   9.537  19.485  0.00  0.00    +0.000 A 
ATOM     13  C   UNL     1      -0.319  10.566  20.105  0.00  0.00    +0.000 A 
ATOM     14  H   UNL     1      -1.259  12.111  22.727  0.00  0.00    +0.000 HD
BRANCH   5  16
ATOM     15  N   UNL     1      -0.907  12.974  17.745  0.00  0.00    +0.000 N 
ATOM     16  C   UNL     1      -1.610  11.941  18.318  0.00  0.00    +0.000 C 
ATOM     17  O   UNL     1      -2.482  11.352  17.702  0.00  0.00    +0.000 OA
ATOM     18  H   UNL     1      -1.050  13.166  16.767  0.00  0.00    +0.000 HD
ATOM     19  H   UNL     1      -0.096  13.333  18.234  0.00  0.00    +0.000 HD
ENDBRANCH   5  16
ENDBRANCH   1  11
BRANCH   2  20
ATOM     20  C   UNL     1       3.239   6.515  17.944  0.00  0.00    +0.000 A 
ATOM     21  C   UNL     1       4.586   6.568  17.573  0.00  0.00    +0.000 A 
ATOM     22  C   UNL     1       5.182   5.438  17.024  0.00  0.00    +0.000 A 
ATOM     23  C   UNL     1       4.470   4.239  16.924  0.00  0.00    +0.000 A 
ATOM     24  C   UNL     1       3.180   4.126  17.457  0.00  0.00    +0.000 A 
ATOM     25  C   UNL     1       2.551   5.293  17.905  0.00  0.00    +0.000 A 
BRANCH  24  26
ATOM     26  C   UNL     1       2.474   2.791  17.576  0.00  0.00    +0.000 C 
BRANCH  26  27
ATOM     27  N   UNL     1       2.230   2.277  18.928  0.00  0.00    +0.000 NA
ATOM     28  C   UNL     1       0.903   2.476  19.501  0.00  0.00    +0.000 C 
ATOM     29  C   UNL     1       1.069   3.514  20.594  0.00  0.00    +0.000 C 
ATOM     30  C   UNL     1       2.501   3.347  21.064  0.00  0.00    +0.000 C 
ATOM     31  C   UNL     1       3.223   2.609  19.943  0.00  0.00    +0.000 C 
ENDBRANCH  26  27
ENDBRANCH  24  26
ENDBRANCH   2  20
TORSDOF 5
ENDMDL
MODEL 2
REMARK VINA RESULT:      -8.8      0.717      1.049
REMARK  Name = 
REMARK  5 active torsions:
REMARK  status: ('A' for Active; 'I' for Inactive)
REMARK    1  A    between atoms: C_2  and  C_4
REMARK    2  A    between atoms: C_10  and  N_11
REMARK    3  A    between atoms: C_12  and  C_14
REMARK    4  A    between atoms: C_18  and  C_19
REMARK    5  A    between atoms: C_19  and  N_20
REMARK                            x       y       z     vdW  Elec       q    Type
REMARK                         _______ _______ _______ _____ _____    ______ ____
ROOT
ATOM      1  N   UNL     1       2.032   7.835  19.658  0.00  0.00    +0.000 N 
ATOM      2  C   UNL     1       2.539   7.896  18.367  0.00  0.00    +0.000 C 
ATOM      3  O   UNL     1       2.380   8.807  17.562  0.00  0.00    +0.000 OA
ATOM      4  H   UNL     1       2.393   7.125  20.280  0.00  0.00    +0.000 HD
ENDROOT
BRANCH   1  11
ATOM      5  C   UNL     1      -1.351  11.585  19.497  0.00  0.00    +0.000 A 
ATOM      6  N   UNL     1      -1.921  12.259  20.516  0.00  0.00    +0.000 NA
ATOM      7  N   UNL     1      -1.392  11.691  21.610  0.00  0.00    +0.000 N 
ATOM      8  C   UNL     1      -0.493  10.700  21.352  0.00  0.00    +0.000 A 
ATOM      9  C   UNL     1       0.255   9.906  22.212  0.00  0.00    +0.000 A 
ATOM     10  C   UNL     1       1.102   8.965  21.628  0.00  0.00    +0.000 A 
ATOM     11  C   UNL     1       1.192   8.808  20.243  0.00  0.00    +0.000 A 
ATOM     12  C   UNL     1       0.439   9.638  19.396  0.00  0.00    +0.000 A 
ATOM     13  C   UNL     1      -0.433  10.598  19.966  0.00  0.00    +0.000 A 
ATOM     14  H   UNL     1      -1.687  12.025  22.522  0.00  0.00    +0.000 HD
BRANCH   5  16
ATOM     15  N   UNL     1      -0.938  12.923  17.558  0.00  0.00    +0.000 N 
ATOM     16  C   UNL     1      -1.682  11.902  18.098  0.00  0.00    +0.000 C 
ATOM     17  O   UNL     1      -2.521  11.315  17.437  0.00  0.00    +0.000 OA
ATOM     18  H   UNL     1      -1.021  13.108  16.571  0.00  0.00    +0.000 HD
ATOM     19  H   UNL     1      -0.154  13.280  18.091  0.00  0.00    +0.000 HD
ENDBRANCH   5  16
ENDBRANCH   1  11
BRANCH   2  20
ATOM     20  C   UNL     1       3.432   6.784  17.964  0.00  0.00    +0.000 A 
ATOM     21  C   UNL     1       4.237   6.859  16.823  0.00  0.00    +0.000 A 
ATOM     22  C   UNL     1       4.953   5.734  16.425  0.00  0.00    +0.000 A 
ATOM     23  C   UNL     1       4.938   4.573  17.202  0.00  0.00    +0.000 A 
ATOM     24  C   UNL     1       4.281   4.548  18.439  0.00  0.00    +0.000 A 
ATOM     25  C   UNL     1       3.475   5.641  18.776  0.00  0.00    +0.000 A 
BRANCH  24  26
ATOM     26  C   UNL     1       4.438   3.395  19.408  0.00  0.00    +0.000 C 
BRANCH  26  27
ATOM     27  N   UNL     1       3.290   2.498  19.581  0.00  0.00    +0.000 NA
ATOM     28  C   UNL     1       2.531   2.129  18.390  0.00  0.00    +0.000 C 
ATOM     29  C   UNL     1       1.200   2.849  18.501  0.00  0.00    +0.000 C 
ATOM     30  C   UNL     1       0.976   3.008  19.993  0.00  0.00    +0.000 C 
ATOM     31  C   UNL     1       2.346   2.841  20.639  0.00  0.00    +0.000 C 
ENDBRANCH  26  27
ENDBRANCH  24  26
ENDBRANCH   2  20
TORSDOF 5
ENDMDL
MODEL 3
REMARK VINA RESULT:      -8.7      2.546      8.435
REMARK  Name = 
REMARK  5 active torsions:
REMARK  status: ('A' for Active; 'I' for Inactive)
REMARK    1  A    between atoms: C_2  and  C_4
REMARK    2  A    between atoms: C_10  and  N_11
REMARK    3  A    between atoms: C_12  and  C_14
REMARK    4  A    between atoms: C_18  and  C_19
REMARK    5  A    between atoms: C_19  and  N_20
REMARK                            x       y       z     vdW  Elec       q    Type
REMARK                         _______ _______ _______ _____ _____    ______ ____
ROOT
ATOM      1  N   UNL     1       2.052   7.422  18.983  0.00  0.00    +0.000 N 
ATOM      2  C   UNL     1       1.800   8.662  18.411  0.00  0.00    +0.000 C 
ATOM      3  O   UNL     1       2.201   9.059  17.322  0.00  0.00    +0.000 OA
ATOM      4  H   UNL     1       1.508   7.150  19.791  0.00  0.00    +0.000 HD
ENDROOT
BRANCH   1  11
ATOM      5  C   UNL     1       6.467   5.534  17.409  0.00  0.00    +0.000 A 
ATOM      6  N   UNL     1       6.730   4.326  16.870  0.00  0.00    +0.000 NA
ATOM      7  N   UNL     1       5.537   3.715  16.858  0.00  0.00    +0.000 N 
ATOM      8  C   UNL     1       4.510   4.471  17.340  0.00  0.00    +0.000 A 
ATOM      9  C   UNL     1       3.157   4.187  17.471  0.00  0.00    +0.000 A 
ATOM     10  C   UNL     1       2.350   5.189  18.008  0.00  0.00    +0.000 A 
ATOM     11  C   UNL     1       2.870   6.421  18.415  0.00  0.00    +0.000 A 
ATOM     12  C   UNL     1       4.240   6.688  18.253  0.00  0.00    +0.000 A 
ATOM     13  C   UNL     1       5.080   5.684  17.714  0.00  0.00    +0.000 A 
ATOM     14  H   UNL     1       5.480   2.765  16.505  0.00  0.00    +0.000 HD
BRANCH   5  16
ATOM     15  N   UNL     1       8.105   6.495  18.862  0.00  0.00    +0.000 N 
ATOM     16  C   UNL     1       7.537   6.524  17.612  0.00  0.00    +0.000 C 
ATOM     17  O   UNL     1       7.927   7.303  16.759  0.00  0.00    +0.000 OA
ATOM     18  H   UNL     1       8.925   7.056  19.030  0.00  0.00    +0.000 HD
ATOM     19  H   UNL     1       7.855   5.738  19.487  0.00  0.00    +0.000 HD
ENDBRANCH   5  16
ENDBRANCH   1  11
BRANCH   2  20
ATOM     20  C   UNL     1       0.882   9.552  19.160  0.00  0.00    +0.000 A 
ATOM     21  C   UNL     1       0.869   9.592  20.558  0.00  0.00    +0.000 A 
ATOM     22  C   UNL     1      -0.104  10.348  21.204  0.00  0.00    +0.000 A 
ATOM     23  C   UNL     1      -1.001  11.127  20.467  0.00  0.00    +0.000 A 
ATOM     24  C   UNL     1      -0.881  11.234  19.076  0.00  0.00    +0.000 A 
ATOM     25  C   UNL     1       0.025  10.387  18.428  0.00  0.00    +0.000 A 
BRANCH  24  26
ATOM     26  C   UNL     1      -1.681  12.242  18.277  0.00  0.00    +0.000 C 
BRANCH  26  27
ATOM     27  N   UNL     1      -2.816  11.737  17.497  0.00  0.00    +0.000 NA
ATOM     28  C   UNL     1      -3.740  10.821  18.159  0.00  0.00    +0.000 C 
ATOM     29  C   UNL     1      -3.500   9.459  17.535  0.00  0.00    +0.000 C 
ATOM     30  C   UNL     1      -3.002   9.765  16.135  0.00  0.00    +0.000 C 
ATOM     31  C   UNL     1      -2.515  11.207  16.172  0.00  0.00    +0.000 C 
ENDBRANCH  26  27
ENDBRANCH  24  26
ENDBRANCH   2  20
TORSDOF 5
ENDMDL
MODEL 4
REMARK VINA RESULT:      -8.7      2.878      4.315
REMARK  Name = 
REMARK  5 active torsions:
REMARK  status: ('A' for Active; 'I' for Inactive)
REMARK    1  A    between atoms: C_2  and  C_4
REMARK    2  A    between atoms: C_10  and  N_11
REMARK    3  A    between atoms: C_12  and  C_14
REMARK    4  A    between atoms: C_18  and  C_19
REMARK    5  A    between atoms: C_19  and  N_20
REMARK                            x       y       z     vdW  Elec       q    Type
REMARK                         _______ _______ _______ _____ _____    ______ ____
ROOT
ATOM      1  N   UNL     1       1.813   8.670  17.734  0.00  0.00    +0.000 N 
ATOM      2  C   UNL     1       2.279   7.716  18.630  0.00  0.00    +0.000 C 
ATOM      3  O   UNL     1       2.180   7.752  19.851  0.00  0.00    +0.000 OA
ATOM      4  H   UNL     1       1.786   8.430  16.752  0.00  0.00    +0.000 HD
ENDROOT
BRANCH   1  11
ATOM      5  C   UNL     1       1.803  13.574  18.953  0.00  0.00    +0.000 A 
ATOM      6  N   UNL     1       0.757  14.376  19.238  0.00  0.00    +0.000 NA
ATOM      7  N   UNL     1      -0.308  13.571  19.107  0.00  0.00    +0.000 N 
ATOM      8  C   UNL     1      -0.005  12.284  18.775  0.00  0.00    +0.000 A 
ATOM      9  C   UNL     1      -0.826  11.182  18.570  0.00  0.00    +0.000 A 
ATOM     10  C   UNL     1      -0.200   9.982  18.236  0.00  0.00    +0.000 A 
ATOM     11  C   UNL     1       1.187   9.883  18.098  0.00  0.00    +0.000 A 
ATOM     12  C   UNL     1       1.995  11.009  18.331  0.00  0.00    +0.000 A 
ATOM     13  C   UNL     1       1.382  12.241  18.666  0.00  0.00    +0.000 A 
ATOM     14  H   UNL     1      -1.233  13.960  19.258  0.00  0.00    +0.000 HD
BRANCH   5  16
ATOM     15  N   UNL     1       3.745  14.245  17.728  0.00  0.00    +0.000 N 
ATOM     16  C   UNL     1       3.182  14.089  18.972  0.00  0.00    +0.000 C 
ATOM     17  O   UNL     1       3.795  14.383  19.984  0.00  0.00    +0.000 OA
ATOM     18  H   UNL     1       4.636  14.711  17.660  0.00  0.00    +0.000 HD
ATOM     19  H   UNL     1       3.152  14.132  16.915  0.00  0.00    +0.000 HD
ENDBRANCH   5  16
ENDBRANCH   1  11
BRANCH   2  20
ATOM     20  C   UNL     1       2.873   6.497  18.033  0.00  0.00    +0.000 A 
ATOM     21  C   UNL     1       2.267   5.243  18.158  0.00  0.00    +0.000 A 
ATOM     22  C   UNL     1       2.939   4.117  17.690  0.00  0.00    +0.000 A 
ATOM     23  C   UNL     1       4.163   4.247  17.027  0.00  0.00    +0.000 A 
ATOM     24  C   UNL     1       4.690   5.512  16.739  0.00  0.00    +0.000 A 
ATOM     25  C   UNL     1       4.066   6.629  17.307  0.00  0.00    +0.000 A 
BRANCH  24  26
ATOM     26  C   UNL     1       5.884   5.695  15.825  0.00  0.00    +0.000 C 
BRANCH  26  27
ATOM     27  N   UNL     1       7.205   5.800  16.455  0.00  0.00    +0.000 NA
ATOM     28  C   UNL     1       7.612   4.731  17.361  0.00  0.00    +0.000 C 
ATOM     29  C   UNL     1       7.583   5.329  18.755  0.00  0.00    +0.000 C 
ATOM     30  C   UNL     1       7.848   6.807  18.541  0.00  0.00    +0.000 C 
ATOM     31  C   UNL     1       7.532   7.079  17.076  0.00  0.00    +0.000 C 
ENDBRANCH  26  27
ENDBRANCH  24  26
ENDBRANCH   2  20
TORSDOF 5
ENDMDL
MODEL 5
REMARK VINA RESULT:      -8.6      2.333      2.845
REMARK  Name = 
REMARK  5 active torsions:
REMARK  status: ('A' for Active; 'I' for Inactive)
REMARK    1  A    between atoms: C_2  and  C_4
REMARK    2  A    between atoms: C_10  and  N_11
REMARK    3  A    between atoms: C_12  and  C_14
REMARK    4  A    between atoms: C_18  and  C_19
REMARK    5  A    between atoms: C_19  and  N_20
REMARK                            x       y       z     vdW  Elec       q    Type
REMARK                         _______ _______ _______ _____ _____    ______ ____
ROOT
ATOM      1  N   UNL     1       2.081   8.752  17.749  0.00  0.00    +0.000 N 
ATOM      2  C   UNL     1       2.417   7.752  18.651  0.00  0.00    +0.000 C 
ATOM      3  O   UNL     1       2.132   7.717  19.843  0.00  0.00    +0.000 OA
ATOM      4  H   UNL     1       2.208   8.569  16.763  0.00  0.00    +0.000 HD
ENDROOT
BRANCH   1  11
ATOM      5  C   UNL     1       1.790  13.702  18.722  0.00  0.00    +0.000 A 
ATOM      6  N   UNL     1       0.705  14.449  19.013  0.00  0.00    +0.000 NA
ATOM      7  N   UNL     1      -0.307  13.571  18.969  0.00  0.00    +0.000 N 
ATOM      8  C   UNL     1       0.067  12.290  18.688  0.00  0.00    +0.000 A 
ATOM      9  C   UNL     1      -0.685  11.128  18.573  0.00  0.00    +0.000 A 
ATOM     10  C   UNL     1       0.006   9.955  18.273  0.00  0.00    +0.000 A 
ATOM     11  C   UNL     1       1.390   9.939  18.079  0.00  0.00    +0.000 A 
ATOM     12  C   UNL     1       2.129  11.126  18.221  0.00  0.00    +0.000 A 
ATOM     13  C   UNL     1       1.448  12.331  18.520  0.00  0.00    +0.000 A 
ATOM     14  H   UNL     1      -1.250  13.906  19.140  0.00  0.00    +0.000 HD
BRANCH   5  16
ATOM     15  N   UNL     1       3.485  14.762  17.409  0.00  0.00    +0.000 N 
ATOM     16  C   UNL     1       3.131  14.306  18.656  0.00  0.00    +0.000 C 
ATOM     17  O   UNL     1       3.881  14.429  19.610  0.00  0.00    +0.000 OA
ATOM     18  H   UNL     1       4.333  15.298  17.318  0.00  0.00    +0.000 HD
ATOM     19  H   UNL     1       2.779  14.775  16.684  0.00  0.00    +0.000 HD
ENDBRANCH   5  16
ENDBRANCH   1  11
BRANCH   2  20
ATOM     20  C   UNL     1       3.112   6.571  18.086  0.00  0.00    +0.000 A 
ATOM     21  C   UNL     1       4.437   6.636  17.643  0.00  0.00    +0.000 A 
ATOM     22  C   UNL     1       4.991   5.532  17.003  0.00  0.00    +0.000 A 
ATOM     23  C   UNL     1       4.264   4.344  16.882  0.00  0.00    +0.000 A 
ATOM     24  C   UNL     1       3.005   4.211  17.481  0.00  0.00    +0.000 A 
ATOM     25  C   UNL     1       2.412   5.357  18.024  0.00  0.00    +0.000 A 
BRANCH  24  26
ATOM     26  C   UNL     1       2.295   2.876  17.570  0.00  0.00    +0.000 C 
BRANCH  26  27
ATOM     27  N   UNL     1       2.128   2.291  18.905  0.00  0.00    +0.000 NA
ATOM     28  C   UNL     1       0.847   2.487  19.577  0.00  0.00    +0.000 C 
ATOM     29  C   UNL     1       1.114   3.457  20.712  0.00  0.00    +0.000 C 
ATOM     30  C   UNL     1       2.569   3.230  21.073  0.00  0.00    +0.000 C 
ATOM     31  C   UNL     1       3.195   2.541  19.867  0.00  0.00    +0.000 C 
ENDBRANCH  26  27
ENDBRANCH  24  26
ENDBRANCH   2  20
TORSDOF 5
ENDMDL
MODEL 6
REMARK VINA RESULT:      -8.6      2.067      3.488
REMARK  Name = 
REMARK  5 active torsions:
REMARK  status: ('A' for Active; 'I' for Inactive)
REMARK    1  A    between atoms: C_2  and  C_4
REMARK    2  A    between atoms: C_10  and  N_11
REMARK    3  A    between atoms: C_12  and  C_14
REMARK    4  A    between atoms: C_18  and  C_19
REMARK    5  A    between atoms: C_19  and  N_20
REMARK                            x       y       z     vdW  Elec       q    Type
REMARK                         _______ _______ _______ _____ _____    ______ ____
ROOT
ATOM      1  N   UNL     1       2.009   7.681  19.303  0.00  0.00    +0.000 N 
ATOM      2  C   UNL     1       2.196   6.333  19.582  0.00  0.00    +0.000 C 
ATOM      3  O   UNL     1       1.799   5.731  20.574  0.00  0.00    +0.000 OA
ATOM      4  H   UNL     1       2.216   8.009  18.369  0.00  0.00    +0.000 HD
ENDROOT
BRANCH   1  11
ATOM      5  C   UNL     1      -0.828  11.750  20.266  0.00  0.00    +0.000 A 
ATOM      6  N   UNL     1      -1.205  12.260  21.456  0.00  0.00    +0.000 NA
ATOM      7  N   UNL     1      -0.661  11.421  22.350  0.00  0.00    +0.000 N 
ATOM      8  C   UNL     1       0.066  10.407  21.802  0.00  0.00    +0.000 A 
ATOM      9  C   UNL     1       0.774   9.371  22.399  0.00  0.00    +0.000 A 
ATOM     10  C   UNL     1       1.427   8.479  21.549  0.00  0.00    +0.000 A 
ATOM     11  C   UNL     1       1.367   8.603  20.159  0.00  0.00    +0.000 A 
ATOM     12  C   UNL     1       0.661   9.672  19.582  0.00  0.00    +0.000 A 
ATOM     13  C   UNL     1      -0.015  10.587  20.425  0.00  0.00    +0.000 A 
ATOM     14  H   UNL     1      -0.823  11.591  23.337  0.00  0.00    +0.000 HD
BRANCH   5  16
ATOM     15  N   UNL     1      -2.579  12.272  18.723  0.00  0.00    +0.000 N 
ATOM     16  C   UNL     1      -1.238  12.385  19.003  0.00  0.00    +0.000 C 
ATOM     17  O   UNL     1      -0.486  12.989  18.258  0.00  0.00    +0.000 OA
ATOM     18  H   UNL     1      -2.951  12.790  17.943  0.00  0.00    +0.000 HD
ATOM     19  H   UNL     1      -3.190  11.896  19.438  0.00  0.00    +0.000 HD
ENDBRANCH   5  16
ENDBRANCH   1  11
BRANCH   2  20
ATOM     20  C   UNL     1       2.864   5.536  18.528  0.00  0.00    +0.000 A 
ATOM     21  C   UNL     1       2.428   4.253  18.183  0.00  0.00    +0.000 A 
ATOM     22  C   UNL     1       3.175   3.503  17.280  0.00  0.00    +0.000 A 
ATOM     23  C   UNL     1       4.299   4.057  16.658  0.00  0.00    +0.000 A 
ATOM     24  C   UNL     1       4.639   5.401  16.861  0.00  0.00    +0.000 A 
ATOM     25  C   UNL     1       3.951   6.110  17.851  0.00  0.00    +0.000 A 
BRANCH  24  26
ATOM     26  C   UNL     1       5.701   6.093  16.031  0.00  0.00    +0.000 C 
BRANCH  26  27
ATOM     27  N   UNL     1       7.077   6.064  16.539  0.00  0.00    +0.000 NA
ATOM     28  C   UNL     1       7.509   4.872  17.263  0.00  0.00    +0.000 C 
ATOM     29  C   UNL     1       7.638   5.289  18.716  0.00  0.00    +0.000 C 
ATOM     30  C   UNL     1       7.960   6.770  18.661  0.00  0.00    +0.000 C 
ATOM     31  C   UNL     1       7.527   7.238  17.277  0.00  0.00    +0.000 C 
ENDBRANCH  26  27
ENDBRANCH  24  26
ENDBRANCH   2  20
TORSDOF 5
ENDMDL
MODEL 7
REMARK VINA RESULT:      -8.5      1.512      1.933
REMARK  Name = 
REMARK  5 active torsions:
REMARK  status: ('A' for Active; 'I' for Inactive)
REMARK    1  A    between atoms: C_2  and  C_4
REMARK    2  A    between atoms: C_10  and  N_11
REMARK    3  A    between atoms: C_12  and  C_14
REMARK    4  A    between atoms: C_18  and  C_19
REMARK    5  A    between atoms: C_19  and  N_20
REMARK                            x       y       z     vdW  Elec       q    Type
REMARK                         _______ _______ _______ _____ _____    ______ ____
ROOT
ATOM      1  N   UNL     1       1.647   8.906  18.711  0.00  0.00    +0.000 N 
ATOM      2  C   UNL     1       2.084   7.779  19.395  0.00  0.00    +0.000 C 
ATOM      3  O   UNL     1       1.683   7.386  20.485  0.00  0.00    +0.000 OA
ATOM      4  H   UNL     1       1.917   9.012  17.742  0.00  0.00    +0.000 HD
ENDROOT
BRANCH   1  11
ATOM      5  C   UNL     1      -2.650  11.549  18.416  0.00  0.00    +0.000 A 
ATOM      6  N   UNL     1      -3.180  12.411  19.307  0.00  0.00    +0.000 NA
ATOM      7  N   UNL     1      -2.304  12.399  20.322  0.00  0.00    +0.000 N 
ATOM      8  C   UNL     1      -1.222  11.593  20.125  0.00  0.00    +0.000 A 
ATOM      9  C   UNL     1      -0.120  11.339  20.931  0.00  0.00    +0.000 A 
ATOM     10  C   UNL     1       0.833  10.449  20.437  0.00  0.00    +0.000 A 
ATOM     11  C   UNL     1       0.690   9.826  19.195  0.00  0.00    +0.000 A 
ATOM     12  C   UNL     1      -0.425  10.117  18.391  0.00  0.00    +0.000 A 
ATOM     13  C   UNL     1      -1.409  11.013  18.874  0.00  0.00    +0.000 A 
ATOM     14  H   UNL     1      -2.498  12.970  21.139  0.00  0.00    +0.000 HD
BRANCH   5  16
ATOM     15  N   UNL     1      -2.549  11.468  16.028  0.00  0.00    +0.000 N 
ATOM     16  C   UNL     1      -3.328  11.263  17.141  0.00  0.00    +0.000 C 
ATOM     17  O   UNL     1      -4.473  10.856  17.044  0.00  0.00    +0.000 OA
ATOM     18  H   UNL     1      -2.905  11.173  15.132  0.00  0.00    +0.000 HD
ATOM     19  H   UNL     1      -1.564  11.662  16.159  0.00  0.00    +0.000 HD
ENDBRANCH   5  16
ENDBRANCH   1  11
BRANCH   2  20
ATOM     20  C   UNL     1       3.069   6.928  18.687  0.00  0.00    +0.000 A 
ATOM     21  C   UNL     1       3.711   7.354  17.520  0.00  0.00    +0.000 A 
ATOM     22  C   UNL     1       4.525   6.461  16.831  0.00  0.00    +0.000 A 
ATOM     23  C   UNL     1       4.767   5.183  17.342  0.00  0.00    +0.000 A 
ATOM     24  C   UNL     1       4.274   4.810  18.600  0.00  0.00    +0.000 A 
ATOM     25  C   UNL     1       3.369   5.671  19.232  0.00  0.00    +0.000 A 
BRANCH  24  26
ATOM     26  C   UNL     1       4.708   3.530  19.284  0.00  0.00    +0.000 C 
BRANCH  26  27
ATOM     27  N   UNL     1       3.698   2.479  19.449  0.00  0.00    +0.000 NA
ATOM     28  C   UNL     1       2.971   2.043  18.261  0.00  0.00    +0.000 C 
ATOM     29  C   UNL     1       1.556   2.568  18.420  0.00  0.00    +0.000 C 
ATOM     30  C   UNL     1       1.347   2.652  19.920  0.00  0.00    +0.000 C 
ATOM     31  C   UNL     1       2.740   2.657  20.535  0.00  0.00    +0.000 C 
ENDBRANCH  26  27
ENDBRANCH  24  26
ENDBRANCH   2  20
TORSDOF 5
ENDMDL
MODEL 8
REMARK VINA RESULT:      -8.4      1.725      2.035
REMARK  Name = 
REMARK  5 active torsions:
REMARK  status: ('A' for Active; 'I' for Inactive)
REMARK    1  A    between atoms: C_2  and  C_4
REMARK    2  A    between atoms: C_10  and  N_11
REMARK    3  A    between atoms: C_12  and  C_14
REMARK    4  A    between atoms: C_18  and  C_19
REMARK    5  A    between atoms: C_19  and  N_20
REMARK                            x       y       z     vdW  Elec       q    Type
REMARK                         _______ _______ _______ _____ _____    ______ ____
ROOT
ATOM      1  N   UNL     1       1.812   8.603  17.765  0.00  0.00    +0.000 N 
ATOM      2  C   UNL     1       2.313   7.678  18.672  0.00  0.00    +0.000 C 
ATOM      3  O   UNL     1       2.124   7.666  19.884  0.00  0.00    +0.000 OA
ATOM      4  H   UNL     1       1.882   8.391  16.779  0.00  0.00    +0.000 HD
ENDROOT
BRANCH   1  11
ATOM      5  C   UNL     1      -2.516  11.191  18.082  0.00  0.00    +0.000 A 
ATOM      6  N   UNL     1      -2.735  12.421  18.591  0.00  0.00    +0.000 NA
ATOM      7  N   UNL     1      -1.526  12.809  19.020  0.00  0.00    +0.000 N 
ATOM      8  C   UNL     1      -0.530  11.905  18.796  0.00  0.00    +0.000 A 
ATOM      9  C   UNL     1       0.828  11.959  19.084  0.00  0.00    +0.000 A 
ATOM     10  C   UNL     1       1.595  10.853  18.720  0.00  0.00    +0.000 A 
ATOM     11  C   UNL     1       1.034   9.730  18.108  0.00  0.00    +0.000 A 
ATOM     12  C   UNL     1      -0.339   9.711  17.809  0.00  0.00    +0.000 A 
ATOM     13  C   UNL     1      -1.141  10.820  18.174  0.00  0.00    +0.000 A 
ATOM     14  H   UNL     1      -1.436  13.715  19.468  0.00  0.00    +0.000 HD
BRANCH   5  16
ATOM     15  N   UNL     1      -3.447  10.075  16.183  0.00  0.00    +0.000 N 
ATOM     16  C   UNL     1      -3.617  10.400  17.507  0.00  0.00    +0.000 C 
ATOM     17  O   UNL     1      -4.597  10.028  18.128  0.00  0.00    +0.000 OA
ATOM     18  H   UNL     1      -4.096   9.430  15.760  0.00  0.00    +0.000 HD
ATOM     19  H   UNL     1      -2.554  10.274  15.749  0.00  0.00    +0.000 HD
ENDBRANCH   5  16
ENDBRANCH   1  11
BRANCH   2  20
ATOM     20  C   UNL     1       3.077   6.547  18.095  0.00  0.00    +0.000 A 
ATOM     21  C   UNL     1       4.402   6.690  17.670  0.00  0.00    +0.000 A 
ATOM     22  C   UNL     1       5.022   5.630  17.018  0.00  0.00    +0.000 A 
ATOM     23  C   UNL     1       4.361   4.407  16.865  0.00  0.00    +0.000 A 
ATOM     24  C   UNL     1       3.104   4.197  17.446  0.00  0.00    +0.000 A 
ATOM     25  C   UNL     1       2.444   5.299  18.002  0.00  0.00    +0.000 A 
BRANCH  24  26
ATOM     26  C   UNL     1       2.466   2.824  17.502  0.00  0.00    +0.000 C 
BRANCH  26  27
ATOM     27  N   UNL     1       2.299   2.213  18.825  0.00  0.00    +0.000 NA
ATOM     28  C   UNL     1       0.986   2.305  19.456  0.00  0.00    +0.000 C 
ATOM     29  C   UNL     1       1.142   3.280  20.608  0.00  0.00    +0.000 C 
ATOM     30  C   UNL     1       2.598   3.158  21.015  0.00  0.00    +0.000 C 
ATOM     31  C   UNL     1       3.312   2.531  19.825  0.00  0.00    +0.000 C 
ENDBRANCH  26  27
ENDBRANCH  24  26
ENDBRANCH   2  20
TORSDOF 5
ENDMDL
MODEL 9
REMARK VINA RESULT:      -8.4      2.587      8.652
REMARK  Name = 
REMARK  5 active torsions:
REMARK  status: ('A' for Active; 'I' for Inactive)
REMARK    1  A    between atoms: C_2  and  C_4
REMARK    2  A    between atoms: C_10  and  N_11
REMARK    3  A    between atoms: C_12  and  C_14
REMARK    4  A    between atoms: C_18  and  C_19
REMARK    5  A    between atoms: C_19  and  N_20
REMARK                            x       y       z     vdW  Elec       q    Type
REMARK                         _______ _______ _______ _____ _____    ______ ____
ROOT
ATOM      1  N   UNL     1       1.981   7.375  19.054  0.00  0.00    +0.000 N 
ATOM      2  C   UNL     1       1.725   8.629  18.515  0.00  0.00    +0.000 C 
ATOM      3  O   UNL     1       2.059   9.029  17.405  0.00  0.00    +0.000 OA
ATOM      4  H   UNL     1       1.488   7.106  19.895  0.00  0.00    +0.000 HD
ENDROOT
BRANCH   1  11
ATOM      5  C   UNL     1       6.231   5.365  17.202  0.00  0.00    +0.000 A 
ATOM      6  N   UNL     1       6.418   4.163  16.619  0.00  0.00    +0.000 NA
ATOM      7  N   UNL     1       5.203   3.598  16.654  0.00  0.00    +0.000 N 
ATOM      8  C   UNL     1       4.233   4.379  17.209  0.00  0.00    +0.000 A 
ATOM      9  C   UNL     1       2.878   4.143  17.403  0.00  0.00    +0.000 A 
ATOM     10  C   UNL     1       2.140   5.160  18.008  0.00  0.00    +0.000 A 
ATOM     11  C   UNL     1       2.728   6.359  18.418  0.00  0.00    +0.000 A 
ATOM     12  C   UNL     1       4.097   6.579  18.190  0.00  0.00    +0.000 A 
ATOM     13  C   UNL     1       4.869   5.559  17.582  0.00  0.00    +0.000 A 
ATOM     14  H   UNL     1       5.091   2.661  16.281  0.00  0.00    +0.000 HD
BRANCH   5  16
ATOM     15  N   UNL     1       7.847   6.368  18.651  0.00  0.00    +0.000 N 
ATOM     16  C   UNL     1       7.348   6.308  17.373  0.00  0.00    +0.000 C 
ATOM     17  O   UNL     1       7.829   6.978  16.475  0.00  0.00    +0.000 OA
ATOM     18  H   UNL     1       8.690   6.895  18.813  0.00  0.00    +0.000 HD
ATOM     19  H   UNL     1       7.519   5.689  19.328  0.00  0.00    +0.000 HD
ENDBRANCH   5  16
ENDBRANCH   1  11
BRANCH   2  20
ATOM     20  C   UNL     1       0.887   9.533  19.337  0.00  0.00    +0.000 A 
ATOM     21  C   UNL     1       1.164   9.774  20.687  0.00  0.00    +0.000 A 
ATOM     22  C   UNL     1       0.267  10.527  21.438  0.00  0.00    +0.000 A 
ATOM     23  C   UNL     1      -0.851  11.109  20.832  0.00  0.00    +0.000 A 
ATOM     24  C   UNL     1      -1.040  11.024  19.447  0.00  0.00    +0.000 A 
ATOM     25  C   UNL     1      -0.197  10.176  18.720  0.00  0.00    +0.000 A 
BRANCH  24  26
ATOM     26  C   UNL     1      -2.101  11.833  18.731  0.00  0.00    +0.000 C 
BRANCH  26  27
ATOM     27  N   UNL     1      -3.345  11.143  18.371  0.00  0.00    +0.000 NA
ATOM     28  C   UNL     1      -3.363  10.380  17.127  0.00  0.00    +0.000 C 
ATOM     29  C   UNL     1      -4.245  11.159  16.170  0.00  0.00    +0.000 C 
ATOM     30  C   UNL     1      -5.216  11.904  17.067  0.00  0.00    +0.000 C 
ATOM     31  C   UNL     1      -4.573  11.926  18.448  0.00  0.00    +0.000 C 
ENDBRANCH  26  27
ENDBRANCH  24  26
ENDBRANCH   2  20
TORSDOF 5
ENDMDL
