MODEL 1
REMARK VINA RESULT:      -9.7      0.000      0.000
REMARK  Name = 
REMARK  4 active torsions:
REMARK  status: ('A' for Active; 'I' for Inactive)
REMARK    1  A    between atoms: C_2  and  C_3
REMARK    2  A    between atoms: C_3  and  C_4
REMARK    3  A    between atoms: N_13  and  C_14
REMARK    4  A    between atoms: C_17  and  C_18
REMARK                            x       y       z     vdW  Elec       q    Type
REMARK                         _______ _______ _______ _____ _____    ______ ____
ROOT
ATOM      1  C   UNL     1       2.671   6.257  18.614  0.00  0.00    +0.000 A 
ATOM      2  C   UNL     1       2.228   5.901  19.886  0.00  0.00    +0.000 A 
ATOM      3  C   UNL     1       1.638   6.849  20.734  0.00  0.00    +0.000 A 
ATOM      4  C   UNL     1       1.511   8.184  20.325  0.00  0.00    +0.000 A 
ATOM      5  C   UNL     1       2.048   8.551  19.087  0.00  0.00    +0.000 A 
ATOM      6  C   UNL     1       2.605   7.596  18.232  0.00  0.00    +0.000 A 
ENDROOT
BRANCH   4   7
ATOM      7  C   UNL     1       0.834   9.149  21.200  0.00  0.00    +0.000 A 
ATOM      8  N   UNL     1       0.801   9.093  22.519  0.00  0.00    +0.000 NA
ATOM      9  N   UNL     1       0.113  10.179  22.990  0.00  0.00    +0.000 NA
ATOM     10  C   UNL     1      -0.301  10.884  21.959  0.00  0.00    +0.000 A 
ATOM     11  N   UNL     1       0.084  10.241  20.806  0.00  0.00    +0.000 N 
ATOM     12  C   UNL     1      -0.262  10.607  19.448  0.00  0.00    +0.000 C 
ATOM     13  C   UNL     1      -1.677  11.134  19.277  0.00  0.00    +0.000 C 
ATOM     14  C   UNL     1      -1.826  12.605  19.656  0.00  0.00    +0.000 C 
ATOM     15  C   UNL     1      -0.975  13.063  20.842  0.00  0.00    +0.000 C 
ATOM     16  C   UNL     1      -1.091  12.146  22.054  0.00  0.00    +0.000 C 
ENDBRANCH   4   7
BRANCH   1  19
ATOM     17  O   UNL     1       4.854   4.333  18.997  0.00  0.00    +0.000 OA
ATOM     18  C   UNL     1       4.266   4.477  17.927  0.00  0.00    +0.000 C 
ATOM     19  N   UNL     1       3.212   5.340  17.689  0.00  0.00    +0.000 N 
ATOM     20  H   UNL     1       2.686   5.187  16.839  0.00  0.00    +0.000 HD
BRANCH  18  21
ATOM     21  C   UNL     1       4.710   3.699  16.699  0.00  0.00    +0.000 C 
BRANCH  21  22
ATOM     22  C   UNL     1       5.781   4.379  15.908  0.00  0.00    +0.000 A 
ATOM     23  C   UNL     1       6.707   5.282  16.397  0.00  0.00    +0.000 A 
ATOM     24  N   UNL     1       7.546   5.636  15.374  0.00  0.00    +0.000 N 
ATOM     25  C   UNL     1       7.177   4.998  14.213  0.00  0.00    +0.000 A 
ATOM     26  C   UNL     1       7.735   5.067  12.931  0.00  0.00    +0.000 A 
ATOM     27  C   UNL     1       7.146   4.294  11.927  0.00  0.00    +0.000 A 
ATOM     28  C   UNL     1       6.054   3.475  12.200  0.00  0.00    +0.000 A 
ATOM     29  C   UNL     1       5.516   3.409  13.490  0.00  0.00    +0.000 A 
ATOM     30  C   UNL     1       6.079   4.193  14.519  0.00  0.00    +0.000 A 
ATOM     31  H   UNL     1       8.331   6.268  15.454  0.00  0.00    +0.000 HD
ENDBRANCH  21  22
ENDBRANCH  18  21
ENDBRANCH   1  19
TORSDOF 4
ENDMDL
MODEL 2
REMARK VINA RESULT:      -9.3      0.851      1.254
REMARK  Name = 
REMARK  4 active torsions:
REMARK  status: ('A' for Active; 'I' for Inactive)
REMARK    1  A    between atoms: C_2  and  C_3
REMARK    2  A    between atoms: C_3  and  C_4
REMARK    3  A    between atoms: N_13  and  C_14
REMARK    4  A    between atoms: C_17  and  C_18
REMARK                            x       y       z     vdW  Elec       q    Type
REMARK                         _______ _______ _______ _____ _____    ______ ____
ROOT
ATOM      1  C   UNL     1       3.254   6.467  18.413  0.00  0.00    +0.000 A 
ATOM      2  C   UNL     1       2.858   7.663  17.818  0.00  0.00    +0.000 A 
ATOM      3  C   UNL     1       2.066   8.586  18.514  0.00  0.00    +0.000 A 
ATOM      4  C   UNL     1       1.631   8.306  19.817  0.00  0.00    +0.000 A 
ATOM      5  C   UNL     1       1.951   7.062  20.369  0.00  0.00    +0.000 A 
ATOM      6  C   UNL     1       2.769   6.159  19.683  0.00  0.00    +0.000 A 
ENDROOT
BRANCH   4   7
ATOM      7  C   UNL     1       0.855   9.312  20.554  0.00  0.00    +0.000 A 
ATOM      8  N   UNL     1       0.893   9.500  21.860  0.00  0.00    +0.000 NA
ATOM      9  N   UNL     1       0.069  10.547  22.179  0.00  0.00    +0.000 NA
ATOM     10  C   UNL     1      -0.495  10.980  21.072  0.00  0.00    +0.000 A 
ATOM     11  N   UNL     1      -0.069  10.194  20.028  0.00  0.00    +0.000 N 
ATOM     12  C   UNL     1      -0.530  10.246  18.655  0.00  0.00    +0.000 C 
ATOM     13  C   UNL     1      -2.015  10.526  18.497  0.00  0.00    +0.000 C 
ATOM     14  C   UNL     1      -2.369  12.006  18.618  0.00  0.00    +0.000 C 
ATOM     15  C   UNL     1      -1.544  12.794  19.637  0.00  0.00    +0.000 C 
ATOM     16  C   UNL     1      -1.463  12.113  20.998  0.00  0.00    +0.000 C 
ENDBRANCH   4   7
BRANCH   1  19
ATOM     17  O   UNL     1       2.551   3.926  17.125  0.00  0.00    +0.000 OA
ATOM     18  C   UNL     1       3.708   4.329  17.228  0.00  0.00    +0.000 C 
ATOM     19  N   UNL     1       4.104   5.528  17.794  0.00  0.00    +0.000 N 
ATOM     20  H   UNL     1       5.051   5.825  17.604  0.00  0.00    +0.000 HD
BRANCH  18  21
ATOM     21  C   UNL     1       4.865   3.466  16.751  0.00  0.00    +0.000 C 
BRANCH  21  22
ATOM     22  C   UNL     1       5.881   4.209  15.946  0.00  0.00    +0.000 A 
ATOM     23  C   UNL     1       6.817   5.101  16.437  0.00  0.00    +0.000 A 
ATOM     24  N   UNL     1       7.596   5.527  15.393  0.00  0.00    +0.000 N 
ATOM     25  C   UNL     1       7.176   4.948  14.219  0.00  0.00    +0.000 A 
ATOM     26  C   UNL     1       7.664   5.099  12.916  0.00  0.00    +0.000 A 
ATOM     27  C   UNL     1       7.036   4.373  11.901  0.00  0.00    +0.000 A 
ATOM     28  C   UNL     1       5.973   3.519  12.183  0.00  0.00    +0.000 A 
ATOM     29  C   UNL     1       5.505   3.371  13.494  0.00  0.00    +0.000 A 
ATOM     30  C   UNL     1       6.108   4.106  14.535  0.00  0.00    +0.000 A 
ATOM     31  H   UNL     1       8.373   6.168  15.469  0.00  0.00    +0.000 HD
ENDBRANCH  21  22
ENDBRANCH  18  21
ENDBRANCH   1  19
TORSDOF 4
ENDMDL
MODEL 3
REMARK VINA RESULT:      -9.3      2.170      3.197
REMARK  Name = 
REMARK  4 active torsions:
REMARK  status: ('A' for Active; 'I' for Inactive)
REMARK    1  A    between atoms: C_2  and  C_3
REMARK    2  A    between atoms: C_3  and  C_4
REMARK    3  A    between atoms: N_13  and  C_14
REMARK    4  A    between atoms: C_17  and  C_18
REMARK                            x       y       z     vdW  Elec       q    Type
REMARK                         _______ _______ _______ _____ _____    ______ ____
ROOT
ATOM      1  C   UNL     1       2.441   7.452  19.025  0.00  0.00    +0.000 A 
ATOM      2  C   UNL     1       2.189   8.143  17.841  0.00  0.00    +0.000 A 
ATOM      3  C   UNL     1       1.418   9.313  17.841  0.00  0.00    +0.000 A 
ATOM      4  C   UNL     1       0.859   9.794  19.034  0.00  0.00    +0.000 A 
ATOM      5  C   UNL     1       1.036   9.041  20.198  0.00  0.00    +0.000 A 
ATOM      6  C   UNL     1       1.833   7.892  20.199  0.00  0.00    +0.000 A 
ENDROOT
BRANCH   4   7
ATOM      7  C   UNL     1       0.108  11.055  19.025  0.00  0.00    +0.000 A 
ATOM      8  N   UNL     1      -1.205  11.162  18.932  0.00  0.00    +0.000 NA
ATOM      9  N   UNL     1      -1.545  12.487  18.995  0.00  0.00    +0.000 NA
ATOM     10  C   UNL     1      -0.440  13.193  19.098  0.00  0.00    +0.000 A 
ATOM     11  N   UNL     1       0.632  12.333  19.064  0.00  0.00    +0.000 N 
ATOM     12  C   UNL     1       2.036  12.692  19.032  0.00  0.00    +0.000 C 
ATOM     13  C   UNL     1       2.354  13.921  18.196  0.00  0.00    +0.000 C 
ATOM     14  C   UNL     1       2.087  15.235  18.924  0.00  0.00    +0.000 C 
ATOM     15  C   UNL     1       0.871  15.233  19.851  0.00  0.00    +0.000 C 
ATOM     16  C   UNL     1      -0.387  14.681  19.191  0.00  0.00    +0.000 C 
ENDBRANCH   4   7
BRANCH   1  19
ATOM     17  O   UNL     1       1.658   4.625  18.990  0.00  0.00    +0.000 OA
ATOM     18  C   UNL     1       2.824   4.996  19.112  0.00  0.00    +0.000 C 
ATOM     19  N   UNL     1       3.263   6.308  19.104  0.00  0.00    +0.000 N 
ATOM     20  H   UNL     1       4.256   6.451  18.985  0.00  0.00    +0.000 HD
BRANCH  18  21
ATOM     21  C   UNL     1       3.932   3.981  19.337  0.00  0.00    +0.000 C 
BRANCH  21  22
ATOM     22  C   UNL     1       5.230   4.353  18.697  0.00  0.00    +0.000 A 
ATOM     23  C   UNL     1       6.394   4.704  19.356  0.00  0.00    +0.000 A 
ATOM     24  N   UNL     1       7.371   4.921  18.420  0.00  0.00    +0.000 N 
ATOM     25  C   UNL     1       6.867   4.740  17.155  0.00  0.00    +0.000 A 
ATOM     26  C   UNL     1       7.494   4.865  15.909  0.00  0.00    +0.000 A 
ATOM     27  C   UNL     1       6.726   4.613  14.769  0.00  0.00    +0.000 A 
ATOM     28  C   UNL     1       5.389   4.236  14.875  0.00  0.00    +0.000 A 
ATOM     29  C   UNL     1       4.781   4.104  16.129  0.00  0.00    +0.000 A 
ATOM     30  C   UNL     1       5.528   4.371  17.295  0.00  0.00    +0.000 A 
ATOM     31  H   UNL     1       8.329   5.171  18.624  0.00  0.00    +0.000 HD
ENDBRANCH  21  22
ENDBRANCH  18  21
ENDBRANCH   1  19
TORSDOF 4
ENDMDL
MODEL 4
REMARK VINA RESULT:      -9.3      1.224      1.581
REMARK  Name = 
REMARK  4 active torsions:
REMARK  status: ('A' for Active; 'I' for Inactive)
REMARK    1  A    between atoms: C_2  and  C_3
REMARK    2  A    between atoms: C_3  and  C_4
REMARK    3  A    between atoms: N_13  and  C_14
REMARK    4  A    between atoms: C_17  and  C_18
REMARK                            x       y       z     vdW  Elec       q    Type
REMARK                         _______ _______ _______ _____ _____    ______ ____
ROOT
ATOM      1  C   UNL     1       3.260   6.805  18.307  0.00  0.00    +0.000 A 
ATOM      2  C   UNL     1       2.698   6.702  19.577  0.00  0.00    +0.000 A 
ATOM      3  C   UNL     1       1.831   7.690  20.063  0.00  0.00    +0.000 A 
ATOM      4  C   UNL     1       1.537   8.820  19.286  0.00  0.00    +0.000 A 
ATOM      5  C   UNL     1       2.183   8.963  18.054  0.00  0.00    +0.000 A 
ATOM      6  C   UNL     1       3.021   7.958  17.561  0.00  0.00    +0.000 A 
ENDROOT
BRANCH   4   7
ATOM      7  C   UNL     1       0.578   9.813  19.785  0.00  0.00    +0.000 A 
ATOM      8  N   UNL     1       0.624  10.392  20.970  0.00  0.00    +0.000 NA
ATOM      9  N   UNL     1      -0.410  11.286  21.065  0.00  0.00    +0.000 NA
ATOM     10  C   UNL     1      -1.105  11.233  19.950  0.00  0.00    +0.000 A 
ATOM     11  N   UNL     1      -0.550  10.276  19.134  0.00  0.00    +0.000 N 
ATOM     12  C   UNL     1      -1.067   9.810  17.863  0.00  0.00    +0.000 C 
ATOM     13  C   UNL     1      -2.581   9.706  17.796  0.00  0.00    +0.000 C 
ATOM     14  C   UNL     1      -3.269  11.042  17.527  0.00  0.00    +0.000 C 
ATOM     15  C   UNL     1      -2.611  12.259  18.181  0.00  0.00    +0.000 C 
ATOM     16  C   UNL     1      -2.315  12.057  19.662  0.00  0.00    +0.000 C 
ENDBRANCH   4   7
BRANCH   1  19
ATOM     17  O   UNL     1       2.500   4.197  17.198  0.00  0.00    +0.000 OA
ATOM     18  C   UNL     1       3.664   4.589  17.253  0.00  0.00    +0.000 C 
ATOM     19  N   UNL     1       4.086   5.816  17.733  0.00  0.00    +0.000 N 
ATOM     20  H   UNL     1       5.033   6.087  17.507  0.00  0.00    +0.000 HD
BRANCH  18  21
ATOM     21  C   UNL     1       4.800   3.681  16.810  0.00  0.00    +0.000 C 
BRANCH  21  22
ATOM     22  C   UNL     1       5.838   4.371  15.986  0.00  0.00    +0.000 A 
ATOM     23  C   UNL     1       6.793   5.257  16.451  0.00  0.00    +0.000 A 
ATOM     24  N   UNL     1       7.587   5.627  15.398  0.00  0.00    +0.000 N 
ATOM     25  C   UNL     1       7.159   5.017  14.243  0.00  0.00    +0.000 A 
ATOM     26  C   UNL     1       7.658   5.111  12.938  0.00  0.00    +0.000 A 
ATOM     27  C   UNL     1       7.018   4.365  11.945  0.00  0.00    +0.000 A 
ATOM     28  C   UNL     1       5.933   3.547  12.250  0.00  0.00    +0.000 A 
ATOM     29  C   UNL     1       5.455   3.456  13.563  0.00  0.00    +0.000 A 
ATOM     30  C   UNL     1       6.070   4.213  14.581  0.00  0.00    +0.000 A 
ATOM     31  H   UNL     1       8.379   6.252  15.456  0.00  0.00    +0.000 HD
ENDBRANCH  21  22
ENDBRANCH  18  21
ENDBRANCH   1  19
TORSDOF 4
ENDMDL
MODEL 5
REMARK VINA RESULT:      -9.1      2.798      3.997
REMARK  Name = 
REMARK  4 active torsions:
REMARK  status: ('A' for Active; 'I' for Inactive)
REMARK    1  A    between atoms: C_2  and  C_3
REMARK    2  A    between atoms: C_3  and  C_4
REMARK    3  A    between atoms: N_13  and  C_14
REMARK    4  A    between atoms: C_17  and  C_18
REMARK                            x       y       z     vdW  Elec       q    Type
REMARK                         _______ _______ _______ _____ _____    ______ ____
ROOT
ATOM      1  C   UNL     1       2.185   7.443  19.333  0.00  0.00    +0.000 A 
ATOM      2  C   UNL     1       1.620   8.098  20.425  0.00  0.00    +0.000 A 
ATOM      3  C   UNL     1       0.988   9.339  20.271  0.00  0.00    +0.000 A 
ATOM      4  C   UNL     1       0.940   9.959  19.015  0.00  0.00    +0.000 A 
ATOM      5  C   UNL     1       1.595   9.341  17.945  0.00  0.00    +0.000 A 
ATOM      6  C   UNL     1       2.195   8.088  18.097  0.00  0.00    +0.000 A 
ENDROOT
BRANCH   4   7
ATOM      7  C   UNL     1       0.218  11.229  18.860  0.00  0.00    +0.000 A 
ATOM      8  N   UNL     1      -1.075  11.349  18.622  0.00  0.00    +0.000 NA
ATOM      9  N   UNL     1      -1.394  12.681  18.580  0.00  0.00    +0.000 NA
ATOM     10  C   UNL     1      -0.292  13.375  18.764  0.00  0.00    +0.000 A 
ATOM     11  N   UNL     1       0.761  12.500  18.891  0.00  0.00    +0.000 N 
ATOM     12  C   UNL     1       2.166  12.837  18.991  0.00  0.00    +0.000 C 
ATOM     13  C   UNL     1       2.596  14.015  18.132  0.00  0.00    +0.000 C 
ATOM     14  C   UNL     1       2.279  15.369  18.759  0.00  0.00    +0.000 C 
ATOM     15  C   UNL     1       0.971  15.434  19.549  0.00  0.00    +0.000 C 
ATOM     16  C   UNL     1      -0.219  14.865  18.787  0.00  0.00    +0.000 C 
ENDBRANCH   4   7
BRANCH   1  19
ATOM     17  O   UNL     1       1.141   5.008  20.595  0.00  0.00    +0.000 OA
ATOM     18  C   UNL     1       2.240   5.061  20.046  0.00  0.00    +0.000 C 
ATOM     19  N   UNL     1       2.776   6.164  19.407  0.00  0.00    +0.000 N 
ATOM     20  H   UNL     1       3.575   5.997  18.812  0.00  0.00    +0.000 HD
BRANCH  18  21
ATOM     21  C   UNL     1       3.166   3.856  20.068  0.00  0.00    +0.000 C 
BRANCH  21  22
ATOM     22  C   UNL     1       4.053   3.755  18.870  0.00  0.00    +0.000 A 
ATOM     23  C   UNL     1       3.795   3.028  17.722  0.00  0.00    +0.000 A 
ATOM     24  N   UNL     1       4.824   3.235  16.840  0.00  0.00    +0.000 N 
ATOM     25  C   UNL     1       5.766   4.068  17.395  0.00  0.00    +0.000 A 
ATOM     26  C   UNL     1       6.975   4.537  16.868  0.00  0.00    +0.000 A 
ATOM     27  C   UNL     1       7.743   5.388  17.667  0.00  0.00    +0.000 A 
ATOM     28  C   UNL     1       7.309   5.765  18.935  0.00  0.00    +0.000 A 
ATOM     29  C   UNL     1       6.091   5.296  19.442  0.00  0.00    +0.000 A 
ATOM     30  C   UNL     1       5.305   4.421  18.665  0.00  0.00    +0.000 A 
ATOM     31  H   UNL     1       4.884   2.841  15.911  0.00  0.00    +0.000 HD
ENDBRANCH  21  22
ENDBRANCH  18  21
ENDBRANCH   1  19
TORSDOF 4
ENDMDL
MODEL 6
REMARK VINA RESULT:      -9.1      4.168     10.607
REMARK  Name = 
REMARK  4 active torsions:
REMARK  status: ('A' for Active; 'I' for Inactive)
REMARK    1  A    between atoms: C_2  and  C_3
REMARK    2  A    between atoms: C_3  and  C_4
REMARK    3  A    between atoms: N_13  and  C_14
REMARK    4  A    between atoms: C_17  and  C_18
REMARK                            x       y       z     vdW  Elec       q    Type
REMARK                         _______ _______ _______ _____ _____    ______ ____
ROOT
ATOM      1  C   UNL     1       0.718   9.817  19.065  0.00  0.00    +0.000 A 
ATOM      2  C   UNL     1       1.330   9.345  17.906  0.00  0.00    +0.000 A 
ATOM      3  C   UNL     1       2.114   8.183  17.928  0.00  0.00    +0.000 A 
ATOM      4  C   UNL     1       2.321   7.490  19.129  0.00  0.00    +0.000 A 
ATOM      5  C   UNL     1       1.785   8.026  20.304  0.00  0.00    +0.000 A 
ATOM      6  C   UNL     1       0.976   9.167  20.270  0.00  0.00    +0.000 A 
ENDROOT
BRANCH   4   7
ATOM      7  C   UNL     1       3.092   6.241  19.121  0.00  0.00    +0.000 A 
ATOM      8  N   UNL     1       4.235   6.052  18.488  0.00  0.00    +0.000 NA
ATOM      9  N   UNL     1       4.675   4.780  18.742  0.00  0.00    +0.000 NA
ATOM     10  C   UNL     1       3.788   4.181  19.506  0.00  0.00    +0.000 A 
ATOM     11  N   UNL     1       2.744   5.048  19.726  0.00  0.00    +0.000 N 
ATOM     12  C   UNL     1       1.502   4.759  20.415  0.00  0.00    +0.000 C 
ATOM     13  C   UNL     1       0.950   3.365  20.165  0.00  0.00    +0.000 C 
ATOM     14  C   UNL     1       1.615   2.288  21.017  0.00  0.00    +0.000 C 
ATOM     15  C   UNL     1       3.110   2.486  21.272  0.00  0.00    +0.000 C 
ATOM     16  C   UNL     1       3.901   2.778  20.003  0.00  0.00    +0.000 C 
ENDBRANCH   4   7
BRANCH   1  19
ATOM     17  O   UNL     1      -2.109   9.995  18.303  0.00  0.00    +0.000 OA
ATOM     18  C   UNL     1      -1.458  10.962  18.695  0.00  0.00    +0.000 C 
ATOM     19  N   UNL     1      -0.135  10.939  19.098  0.00  0.00    +0.000 N 
ATOM     20  H   UNL     1       0.196  11.749  19.605  0.00  0.00    +0.000 HD
BRANCH  18  21
ATOM     21  C   UNL     1      -2.085  12.346  18.727  0.00  0.00    +0.000 C 
BRANCH  21  22
ATOM     22  C   UNL     1      -3.163  12.497  19.750  0.00  0.00    +0.000 A 
ATOM     23  C   UNL     1      -4.523  12.387  19.524  0.00  0.00    +0.000 A 
ATOM     24  N   UNL     1      -5.173  12.538  20.721  0.00  0.00    +0.000 N 
ATOM     25  C   UNL     1      -4.266  12.767  21.729  0.00  0.00    +0.000 A 
ATOM     26  C   UNL     1      -4.476  12.988  23.095  0.00  0.00    +0.000 A 
ATOM     27  C   UNL     1      -3.350  13.191  23.898  0.00  0.00    +0.000 A 
ATOM     28  C   UNL     1      -2.068  13.159  23.357  0.00  0.00    +0.000 A 
ATOM     29  C   UNL     1      -1.876  12.925  21.990  0.00  0.00    +0.000 A 
ATOM     30  C   UNL     1      -2.995  12.735  21.153  0.00  0.00    +0.000 A 
ATOM     31  H   UNL     1      -6.173  12.483  20.854  0.00  0.00    +0.000 HD
ENDBRANCH  21  22
ENDBRANCH  18  21
ENDBRANCH   1  19
TORSDOF 4
ENDMDL
MODEL 7
REMARK VINA RESULT:      -9.1      7.057      8.559
REMARK  Name = 
REMARK  4 active torsions:
REMARK  status: ('A' for Active; 'I' for Inactive)
REMARK    1  A    between atoms: C_2  and  C_3
REMARK    2  A    between atoms: C_3  and  C_4
REMARK    3  A    between atoms: N_13  and  C_14
REMARK    4  A    between atoms: C_17  and  C_18
REMARK                            x       y       z     vdW  Elec       q    Type
REMARK                         _______ _______ _______ _____ _____    ______ ____
ROOT
ATOM      1  C   UNL     1       8.957   9.827  18.799  0.00  0.00    +0.000 A 
ATOM      2  C   UNL     1       8.299  10.568  17.821  0.00  0.00    +0.000 A 
ATOM      3  C   UNL     1       8.646  11.904  17.575  0.00  0.00    +0.000 A 
ATOM      4  C   UNL     1       9.645  12.528  18.335  0.00  0.00    +0.000 A 
ATOM      5  C   UNL     1      10.231  11.806  19.379  0.00  0.00    +0.000 A 
ATOM      6  C   UNL     1       9.905  10.464  19.598  0.00  0.00    +0.000 A 
ENDROOT
BRANCH   4   7
ATOM      7  C   UNL     1      10.039  13.907  18.021  0.00  0.00    +0.000 A 
ATOM      8  N   UNL     1      11.041  14.257  17.235  0.00  0.00    +0.000 NA
ATOM      9  N   UNL     1      11.079  15.623  17.150  0.00  0.00    +0.000 NA
ATOM     10  C   UNL     1      10.119  16.111  17.906  0.00  0.00    +0.000 A 
ATOM     11  N   UNL     1       9.471  15.065  18.519  0.00  0.00    +0.000 N 
ATOM     12  C   UNL     1       8.430  15.154  19.523  0.00  0.00    +0.000 C 
ATOM     13  C   UNL     1       8.611  16.285  20.522  0.00  0.00    +0.000 C 
ATOM     14  C   UNL     1       8.147  17.640  19.994  0.00  0.00    +0.000 C 
ATOM     15  C   UNL     1       8.402  17.884  18.506  0.00  0.00    +0.000 C 
ATOM     16  C   UNL     1       9.831  17.564  18.082  0.00  0.00    +0.000 C 
ENDBRANCH   4   7
BRANCH   1  19
ATOM     17  O   UNL     1       7.601   7.866  17.088  0.00  0.00    +0.000 OA
ATOM     18  C   UNL     1       8.029   7.596  18.208  0.00  0.00    +0.000 C 
ATOM     19  N   UNL     1       8.703   8.462  19.051  0.00  0.00    +0.000 N 
ATOM     20  H   UNL     1       9.190   8.045  19.831  0.00  0.00    +0.000 HD
BRANCH  18  21
ATOM     21  C   UNL     1       7.797   6.218  18.805  0.00  0.00    +0.000 C 
BRANCH  21  22
ATOM     22  C   UNL     1       6.924   5.338  17.971  0.00  0.00    +0.000 A 
ATOM     23  C   UNL     1       7.343   4.502  16.953  0.00  0.00    +0.000 A 
ATOM     24  N   UNL     1       6.252   3.827  16.471  0.00  0.00    +0.000 N 
ATOM     25  C   UNL     1       5.117   4.220  17.140  0.00  0.00    +0.000 A 
ATOM     26  C   UNL     1       3.789   3.810  16.976  0.00  0.00    +0.000 A 
ATOM     27  C   UNL     1       2.826   4.384  17.811  0.00  0.00    +0.000 A 
ATOM     28  C   UNL     1       3.183   5.319  18.780  0.00  0.00    +0.000 A 
ATOM     29  C   UNL     1       4.518   5.709  18.937  0.00  0.00    +0.000 A 
ATOM     30  C   UNL     1       5.508   5.159  18.096  0.00  0.00    +0.000 A 
ATOM     31  H   UNL     1       6.272   3.134  15.736  0.00  0.00    +0.000 HD
ENDBRANCH  21  22
ENDBRANCH  18  21
ENDBRANCH   1  19
TORSDOF 4
ENDMDL
MODEL 8
REMARK VINA RESULT:      -9.1      4.063     10.735
REMARK  Name = 
REMARK  4 active torsions:
REMARK  status: ('A' for Active; 'I' for Inactive)
REMARK    1  A    between atoms: C_2  and  C_3
REMARK    2  A    between atoms: C_3  and  C_4
REMARK    3  A    between atoms: N_13  and  C_14
REMARK    4  A    between atoms: C_17  and  C_18
REMARK                            x       y       z     vdW  Elec       q    Type
REMARK                         _______ _______ _______ _____ _____    ______ ____
ROOT
ATOM      1  C   UNL     1       0.512  10.055  19.607  0.00  0.00    +0.000 A 
ATOM      2  C   UNL     1       1.104   9.773  18.378  0.00  0.00    +0.000 A 
ATOM      3  C   UNL     1       1.886   8.624  18.203  0.00  0.00    +0.000 A 
ATOM      4  C   UNL     1       2.112   7.750  19.276  0.00  0.00    +0.000 A 
ATOM      5  C   UNL     1       1.596   8.092  20.529  0.00  0.00    +0.000 A 
ATOM      6  C   UNL     1       0.789   9.223  20.690  0.00  0.00    +0.000 A 
ENDROOT
BRANCH   4   7
ATOM      7  C   UNL     1       2.881   6.518  19.057  0.00  0.00    +0.000 A 
ATOM      8  N   UNL     1       3.915   6.396  18.245  0.00  0.00    +0.000 NA
ATOM      9  N   UNL     1       4.397   5.118  18.333  0.00  0.00    +0.000 NA
ATOM     10  C   UNL     1       3.642   4.449  19.177  0.00  0.00    +0.000 A 
ATOM     11  N   UNL     1       2.638   5.279  19.618  0.00  0.00    +0.000 N 
ATOM     12  C   UNL     1       1.520   4.918  20.466  0.00  0.00    +0.000 C 
ATOM     13  C   UNL     1       0.946   3.537  20.200  0.00  0.00    +0.000 C 
ATOM     14  C   UNL     1       1.741   2.413  20.859  0.00  0.00    +0.000 C 
ATOM     15  C   UNL     1       3.256   2.619  20.896  0.00  0.00    +0.000 C 
ATOM     16  C   UNL     1       3.840   3.017  19.545  0.00  0.00    +0.000 C 
ENDBRANCH   4   7
BRANCH   1  19
ATOM     17  O   UNL     1      -2.127  10.602  18.446  0.00  0.00    +0.000 OA
ATOM     18  C   UNL     1      -1.565  11.369  19.226  0.00  0.00    +0.000 C 
ATOM     19  N   UNL     1      -0.340  11.157  19.832  0.00  0.00    +0.000 N 
ATOM     20  H   UNL     1      -0.113  11.756  20.614  0.00  0.00    +0.000 HD
BRANCH  18  21
ATOM     21  C   UNL     1      -2.195  12.709  19.571  0.00  0.00    +0.000 C 
BRANCH  21  22
ATOM     22  C   UNL     1      -3.462  12.596  20.354  0.00  0.00    +0.000 A 
ATOM     23  C   UNL     1      -3.589  12.731  21.724  0.00  0.00    +0.000 A 
ATOM     24  N   UNL     1      -4.915  12.613  22.049  0.00  0.00    +0.000 N 
ATOM     25  C   UNL     1      -5.663  12.381  20.918  0.00  0.00    +0.000 A 
ATOM     26  C   UNL     1      -7.041  12.186  20.775  0.00  0.00    +0.000 A 
ATOM     27  C   UNL     1      -7.535  11.972  19.485  0.00  0.00    +0.000 A 
ATOM     28  C   UNL     1      -6.683  11.968  18.384  0.00  0.00    +0.000 A 
ATOM     29  C   UNL     1      -5.308  12.177  18.544  0.00  0.00    +0.000 A 
ATOM     30  C   UNL     1      -4.781  12.377  19.837  0.00  0.00    +0.000 A 
ATOM     31  H   UNL     1      -5.298  12.691  22.981  0.00  0.00    +0.000 HD
ENDBRANCH  21  22
ENDBRANCH  18  21
ENDBRANCH   1  19
TORSDOF 4
ENDMDL
MODEL 9
REMARK VINA RESULT:      -9.1      3.039     11.021
REMARK  Name = 
REMARK  4 active torsions:
REMARK  status: ('A' for Active; 'I' for Inactive)
REMARK    1  A    between atoms: C_2  and  C_3
REMARK    2  A    between atoms: C_3  and  C_4
REMARK    3  A    between atoms: N_13  and  C_14
REMARK    4  A    between atoms: C_17  and  C_18
REMARK                            x       y       z     vdW  Elec       q    Type
REMARK                         _______ _______ _______ _____ _____    ______ ____
ROOT
ATOM      1  C   UNL     1       0.621   9.550  20.361  0.00  0.00    +0.000 A 
ATOM      2  C   UNL     1       0.966   9.809  19.037  0.00  0.00    +0.000 A 
ATOM      3  C   UNL     1       1.784   8.925  18.320  0.00  0.00    +0.000 A 
ATOM      4  C   UNL     1       2.297   7.775  18.937  0.00  0.00    +0.000 A 
ATOM      5  C   UNL     1       2.026   7.575  20.294  0.00  0.00    +0.000 A 
ATOM      6  C   UNL     1       1.182   8.442  20.994  0.00  0.00    +0.000 A 
ENDROOT
BRANCH   4   7
ATOM      7  C   UNL     1       3.100   6.829  18.152  0.00  0.00    +0.000 A 
ATOM      8  N   UNL     1       4.069   7.157  17.318  0.00  0.00    +0.000 NA
ATOM      9  N   UNL     1       4.613   6.011  16.801  0.00  0.00    +0.000 NA
ATOM     10  C   UNL     1       3.958   4.984  17.296  0.00  0.00    +0.000 A 
ATOM     11  N   UNL     1       2.957   5.455  18.113  0.00  0.00    +0.000 N 
ATOM     12  C   UNL     1       1.927   4.674  18.767  0.00  0.00    +0.000 C 
ATOM     13  C   UNL     1       1.395   3.513  17.943  0.00  0.00    +0.000 C 
ATOM     14  C   UNL     1       2.289   2.277  17.989  0.00  0.00    +0.000 C 
ATOM     15  C   UNL     1       3.792   2.560  18.035  0.00  0.00    +0.000 C 
ATOM     16  C   UNL     1       4.248   3.556  16.976  0.00  0.00    +0.000 C 
ENDBRANCH   4   7
BRANCH   1  19
ATOM     17  O   UNL     1       1.046  12.284  21.340  0.00  0.00    +0.000 OA
ATOM     18  C   UNL     1       0.025  11.639  21.573  0.00  0.00    +0.000 C 
ATOM     19  N   UNL     1      -0.251  10.362  21.117  0.00  0.00    +0.000 N 
ATOM     20  H   UNL     1      -1.209  10.052  21.194  0.00  0.00    +0.000 HD
BRANCH  18  21
ATOM     21  C   UNL     1      -1.057  12.215  22.471  0.00  0.00    +0.000 C 
BRANCH  21  22
ATOM     22  C   UNL     1      -2.311  12.583  21.745  0.00  0.00    +0.000 A 
ATOM     23  C   UNL     1      -2.438  12.775  20.382  0.00  0.00    +0.000 A 
ATOM     24  N   UNL     1      -3.752  13.048  20.105  0.00  0.00    +0.000 N 
ATOM     25  C   UNL     1      -4.489  13.060  21.265  0.00  0.00    +0.000 A 
ATOM     26  C   UNL     1      -5.854  13.303  21.461  0.00  0.00    +0.000 A 
ATOM     27  C   UNL     1      -6.340  13.246  22.770  0.00  0.00    +0.000 A 
ATOM     28  C   UNL     1      -5.496  12.943  23.835  0.00  0.00    +0.000 A 
ATOM     29  C   UNL     1      -4.136  12.691  23.620  0.00  0.00    +0.000 A 
ATOM     30  C   UNL     1      -3.615  12.761  22.311  0.00  0.00    +0.000 A 
ATOM     31  H   UNL     1      -4.133  13.210  19.183  0.00  0.00    +0.000 HD
ENDBRANCH  21  22
ENDBRANCH  18  21
ENDBRANCH   1  19
TORSDOF 4
ENDMDL
