MODEL 1
REMARK VINA RESULT:      -9.1      0.000      0.000
REMARK  Name = 
REMARK  5 active torsions:
REMARK  status: ('A' for Active; 'I' for Inactive)
REMARK    1  A    between atoms: C_2  and  C_18
REMARK    2  A    between atoms: N_3  and  C_4
REMARK    3  A    between atoms: C_4  and  C_5
REMARK    4  A    between atoms: C_5  and  C_6
REMARK    5  A    between atoms: C_5  and  N_13
REMARK                            x       y       z     vdW  Elec       q    Type
REMARK                         _______ _______ _______ _____ _____    ______ ____
ROOT
ATOM      1  O   UNL     1       2.245   9.443  17.142  0.00  0.00    +0.000 OA
ATOM      2  C   UNL     1       1.849   9.109  18.254  0.00  0.00    +0.000 C 
ATOM      3  N   UNL     1       2.205   7.934  18.882  0.00  0.00    +0.000 N 
ATOM      4  H   UNL     1       1.598   7.604  19.621  0.00  0.00    +0.000 HD
ENDROOT
BRANCH   2   5
ATOM      5  C   UNL     1       0.867   9.939  19.026  0.00  0.00    +0.000 A 
ATOM      6  C   UNL     1       0.679   9.665  20.325  0.00  0.00    +0.000 A 
ATOM      7  C   UNL     1      -0.262  10.471  21.106  0.00  0.00    +0.000 A 
ATOM      8  C   UNL     1      -0.467  10.228  22.468  0.00  0.00    +0.000 A 
ATOM      9  C   UNL     1      -1.361  11.018  23.196  0.00  0.00    +0.000 A 
ATOM     10  C   UNL     1      -2.059  12.051  22.568  0.00  0.00    +0.000 A 
ATOM     11  C   UNL     1      -1.867  12.298  21.208  0.00  0.00    +0.000 A 
ATOM     12  C   UNL     1      -0.970  11.509  20.482  0.00  0.00    +0.000 A 
ATOM     13  C   UNL     1      -0.751  11.756  19.033  0.00  0.00    +0.000 A 
ATOM     14  O   UNL     1      -1.359  12.630  18.426  0.00  0.00    +0.000 OA
ATOM     15  N   UNL     1       0.176  10.954  18.406  0.00  0.00    +0.000 N 
ATOM     16  H   UNL     1       0.269  11.090  17.406  0.00  0.00    +0.000 HD
ENDBRANCH   2   5
BRANCH   3  17
ATOM     17  C   UNL     1       2.958   6.912  18.168  0.00  0.00    +0.000 C 
BRANCH  17  18
ATOM     18  C   UNL     1       3.664   5.831  19.045  0.00  0.00    +0.000 C 
BRANCH  18  19
ATOM     19  C   UNL     1       2.857   4.617  19.542  0.00  0.00    +0.000 A 
ATOM     20  C   UNL     1       2.545   4.596  20.927  0.00  0.00    +0.000 A 
ATOM     21  C   UNL     1       1.873   3.532  21.536  0.00  0.00    +0.000 A 
ATOM     22  C   UNL     1       1.454   2.456  20.772  0.00  0.00    +0.000 A 
ATOM     23  C   UNL     1       1.707   2.459  19.404  0.00  0.00    +0.000 A 
ATOM     24  C   UNL     1       2.402   3.519  18.788  0.00  0.00    +0.000 A 
ATOM     25 CL   UNL     1       2.628   3.337  17.087  0.00  0.00    +0.000 Cl
ENDBRANCH  18  19
BRANCH  18  26
ATOM     26  N   UNL     1       4.949   5.496  18.405  0.00  0.00    +0.000 NA
ATOM     27  C   UNL     1       6.020   4.904  19.182  0.00  0.00    +0.000 C 
ATOM     28  C   UNL     1       7.208   5.814  18.941  0.00  0.00    +0.000 C 
ATOM     29  C   UNL     1       6.991   6.316  17.527  0.00  0.00    +0.000 C 
ATOM     30  C   UNL     1       5.477   6.386  17.382  0.00  0.00    +0.000 C 
ENDBRANCH  18  26
ENDBRANCH  17  18
ENDBRANCH   3  17
TORSDOF 5
ENDMDL
MODEL 2
REMARK VINA RESULT:      -9.0      1.107      1.439
REMARK  Name = 
REMARK  5 active torsions:
REMARK  status: ('A' for Active; 'I' for Inactive)
REMARK    1  A    between atoms: C_2  and  C_18
REMARK    2  A    between atoms: N_3  and  C_4
REMARK    3  A    between atoms: C_4  and  C_5
REMARK    4  A    between atoms: C_5  and  C_6
REMARK    5  A    between atoms: C_5  and  N_13
REMARK                            x       y       z     vdW  Elec       q    Type
REMARK                         _______ _______ _______ _____ _____    ______ ____
ROOT
ATOM      1  O   UNL     1       2.272   9.435  16.996  0.00  0.00    +0.000 OA
ATOM      2  C   UNL     1       2.007   9.052  18.130  0.00  0.00    +0.000 C 
ATOM      3  N   UNL     1       2.499   7.892  18.690  0.00  0.00    +0.000 N 
ATOM      4  H   UNL     1       1.989   7.506  19.474  0.00  0.00    +0.000 HD
ENDROOT
BRANCH   2   5
ATOM      5  C   UNL     1       1.050   9.797  19.013  0.00  0.00    +0.000 A 
ATOM      6  C   UNL     1       0.904   9.392  20.284  0.00  0.00    +0.000 A 
ATOM      7  C   UNL     1      -0.012  10.113  21.171  0.00  0.00    +0.000 A 
ATOM      8  C   UNL     1      -0.173   9.733  22.507  0.00  0.00    +0.000 A 
ATOM      9  C   UNL     1      -1.044  10.442  23.339  0.00  0.00    +0.000 A 
ATOM     10  C   UNL     1      -1.762  11.531  22.841  0.00  0.00    +0.000 A 
ATOM     11  C   UNL     1      -1.615  11.914  21.507  0.00  0.00    +0.000 A 
ATOM     12  C   UNL     1      -0.741  11.206  20.678  0.00  0.00    +0.000 A 
ATOM     13  C   UNL     1      -0.568  11.598  19.254  0.00  0.00    +0.000 A 
ATOM     14  O   UNL     1      -1.196  12.526  18.757  0.00  0.00    +0.000 OA
ATOM     15  N   UNL     1       0.339  10.867  18.520  0.00  0.00    +0.000 N 
ATOM     16  H   UNL     1       0.399  11.102  17.537  0.00  0.00    +0.000 HD
ENDBRANCH   2   5
BRANCH   3  17
ATOM     17  C   UNL     1       3.248   6.939  17.882  0.00  0.00    +0.000 C 
BRANCH  17  18
ATOM     18  C   UNL     1       3.791   5.678  18.623  0.00  0.00    +0.000 C 
BRANCH  18  19
ATOM     19  C   UNL     1       2.884   4.443  18.778  0.00  0.00    +0.000 A 
ATOM     20  C   UNL     1       3.134   3.366  17.888  0.00  0.00    +0.000 A 
ATOM     21  C   UNL     1       2.355   2.205  17.866  0.00  0.00    +0.000 A 
ATOM     22  C   UNL     1       1.309   2.061  18.762  0.00  0.00    +0.000 A 
ATOM     23  C   UNL     1       1.057   3.080  19.676  0.00  0.00    +0.000 A 
ATOM     24  C   UNL     1       1.826   4.261  19.688  0.00  0.00    +0.000 A 
ATOM     25 CL   UNL     1       1.355   5.411  20.887  0.00  0.00    +0.000 Cl
ENDBRANCH  18  19
BRANCH  18  26
ATOM     26  N   UNL     1       5.139   5.390  18.100  0.00  0.00    +0.000 NA
ATOM     27  C   UNL     1       6.213   5.033  19.005  0.00  0.00    +0.000 C 
ATOM     28  C   UNL     1       7.320   6.018  18.683  0.00  0.00    +0.000 C 
ATOM     29  C   UNL     1       7.140   6.282  17.201  0.00  0.00    +0.000 C 
ATOM     30  C   UNL     1       5.639   6.171  16.979  0.00  0.00    +0.000 C 
ENDBRANCH  18  26
ENDBRANCH  17  18
ENDBRANCH   3  17
TORSDOF 5
ENDMDL
MODEL 3
REMARK VINA RESULT:      -9.0      1.462      1.922
REMARK  Name = 
REMARK  5 active torsions:
REMARK  status: ('A' for Active; 'I' for Inactive)
REMARK    1  A    between atoms: C_2  and  C_18
REMARK    2  A    between atoms: N_3  and  C_4
REMARK    3  A    between atoms: C_4  and  C_5
REMARK    4  A    between atoms: C_5  and  C_6
REMARK    5  A    between atoms: C_5  and  N_13
REMARK                            x       y       z     vdW  Elec       q    Type
REMARK                         _______ _______ _______ _____ _____    ______ ____
ROOT
ATOM      1  O   UNL     1       1.218   9.324  17.857  0.00  0.00    +0.000 OA
ATOM      2  C   UNL     1       1.342   9.027  19.040  0.00  0.00    +0.000 C 
ATOM      3  N   UNL     1       2.141   8.003  19.503  0.00  0.00    +0.000 N 
ATOM      4  H   UNL     1       1.934   7.636  20.423  0.00  0.00    +0.000 HD
ENDROOT
BRANCH   2   5
ATOM      5  C   UNL     1       0.566   9.728  20.116  0.00  0.00    +0.000 A 
ATOM      6  C   UNL     1      -0.314  10.675  19.757  0.00  0.00    +0.000 A 
ATOM      7  C   UNL     1      -1.095  11.363  20.787  0.00  0.00    +0.000 A 
ATOM      8  C   UNL     1      -2.038  12.339  20.448  0.00  0.00    +0.000 A 
ATOM      9  C   UNL     1      -2.781  12.975  21.447  0.00  0.00    +0.000 A 
ATOM     10  C   UNL     1      -2.585  12.643  22.789  0.00  0.00    +0.000 A 
ATOM     11  C   UNL     1      -1.642  11.675  23.138  0.00  0.00    +0.000 A 
ATOM     12  C   UNL     1      -0.903  11.038  22.138  0.00  0.00    +0.000 A 
ATOM     13  C   UNL     1       0.106  10.004  22.489  0.00  0.00    +0.000 A 
ATOM     14  O   UNL     1       0.340   9.696  23.652  0.00  0.00    +0.000 OA
ATOM     15  N   UNL     1       0.763   9.404  21.439  0.00  0.00    +0.000 N 
ATOM     16  H   UNL     1       1.492   8.749  21.694  0.00  0.00    +0.000 HD
ENDBRANCH   2   5
BRANCH   3  17
ATOM     17  C   UNL     1       2.771   7.077  18.571  0.00  0.00    +0.000 C 
BRANCH  17  18
ATOM     18  C   UNL     1       3.547   5.879  19.202  0.00  0.00    +0.000 C 
BRANCH  18  19
ATOM     19  C   UNL     1       2.769   4.626  19.646  0.00  0.00    +0.000 A 
ATOM     20  C   UNL     1       2.504   4.513  21.036  0.00  0.00    +0.000 A 
ATOM     21  C   UNL     1       1.862   3.404  21.597  0.00  0.00    +0.000 A 
ATOM     22  C   UNL     1       1.429   2.374  20.780  0.00  0.00    +0.000 A 
ATOM     23  C   UNL     1       1.636   2.467  19.407  0.00  0.00    +0.000 A 
ATOM     24  C   UNL     1       2.300   3.573  18.839  0.00  0.00    +0.000 A 
ATOM     25 CL   UNL     1       2.471   3.503  17.122  0.00  0.00    +0.000 Cl
ENDBRANCH  18  19
BRANCH  18  26
ATOM     26  N   UNL     1       4.724   5.606  18.359  0.00  0.00    +0.000 NA
ATOM     27  C   UNL     1       5.878   4.925  18.913  0.00  0.00    +0.000 C 
ATOM     28  C   UNL     1       7.042   5.848  18.608  0.00  0.00    +0.000 C 
ATOM     29  C   UNL     1       6.644   6.501  17.299  0.00  0.00    +0.000 C 
ATOM     30  C   UNL     1       5.127   6.598  17.373  0.00  0.00    +0.000 C 
ENDBRANCH  18  26
ENDBRANCH  17  18
ENDBRANCH   3  17
TORSDOF 5
ENDMDL
MODEL 4
REMARK VINA RESULT:      -8.9      0.960      1.013
REMARK  Name = 
REMARK  5 active torsions:
REMARK  status: ('A' for Active; 'I' for Inactive)
REMARK    1  A    between atoms: C_2  and  C_18
REMARK    2  A    between atoms: N_3  and  C_4
REMARK    3  A    between atoms: C_4  and  C_5
REMARK    4  A    between atoms: C_5  and  C_6
REMARK    5  A    between atoms: C_5  and  N_13
REMARK                            x       y       z     vdW  Elec       q    Type
REMARK                         _______ _______ _______ _____ _____    ______ ____
ROOT
ATOM      1  O   UNL     1       2.266   8.820  16.957  0.00  0.00    +0.000 OA
ATOM      2  C   UNL     1       2.108   8.616  18.156  0.00  0.00    +0.000 C 
ATOM      3  N   UNL     1       2.709   7.589  18.853  0.00  0.00    +0.000 N 
ATOM      4  H   UNL     1       2.281   7.313  19.727  0.00  0.00    +0.000 HD
ENDROOT
BRANCH   2   5
ATOM      5  C   UNL     1       1.174   9.450  18.984  0.00  0.00    +0.000 A 
ATOM      6  C   UNL     1       0.990   9.118  20.270  0.00  0.00    +0.000 A 
ATOM      7  C   UNL     1       0.096   9.925  21.103  0.00  0.00    +0.000 A 
ATOM      8  C   UNL     1      -0.103   9.622  22.455  0.00  0.00    +0.000 A 
ATOM      9  C   UNL     1      -0.952  10.413  23.234  0.00  0.00    +0.000 A 
ATOM     10  C   UNL     1      -1.609  11.507  22.669  0.00  0.00    +0.000 A 
ATOM     11  C   UNL     1      -1.424  11.814  21.320  0.00  0.00    +0.000 A 
ATOM     12  C   UNL     1      -0.572  11.024  20.543  0.00  0.00    +0.000 A 
ATOM     13  C   UNL     1      -0.359  11.334  19.105  0.00  0.00    +0.000 A 
ATOM     14  O   UNL     1      -0.935  12.264  18.551  0.00  0.00    +0.000 OA
ATOM     15  N   UNL     1       0.522  10.525  18.425  0.00  0.00    +0.000 N 
ATOM     16  H   UNL     1       0.609  10.707  17.432  0.00  0.00    +0.000 HD
ENDBRANCH   2   5
BRANCH   3  17
ATOM     17  C   UNL     1       3.452   6.553  18.149  0.00  0.00    +0.000 C 
BRANCH  17  18
ATOM     18  C   UNL     1       3.897   5.321  18.998  0.00  0.00    +0.000 C 
BRANCH  18  19
ATOM     19  C   UNL     1       2.826   4.426  19.649  0.00  0.00    +0.000 A 
ATOM     20  C   UNL     1       3.010   4.128  21.024  0.00  0.00    +0.000 A 
ATOM     21  C   UNL     1       2.156   3.280  21.736  0.00  0.00    +0.000 A 
ATOM     22  C   UNL     1       1.059   2.721  21.105  0.00  0.00    +0.000 A 
ATOM     23  C   UNL     1       0.823   3.021  19.767  0.00  0.00    +0.000 A 
ATOM     24  C   UNL     1       1.692   3.859  19.039  0.00  0.00    +0.000 A 
ATOM     25 CL   UNL     1       1.239   4.105  17.391  0.00  0.00    +0.000 Cl
ENDBRANCH  18  19
BRANCH  18  26
ATOM     26  N   UNL     1       4.927   4.593  18.235  0.00  0.00    +0.000 NA
ATOM     27  C   UNL     1       6.333   4.834  18.493  0.00  0.00    +0.000 C 
ATOM     28  C   UNL     1       6.911   5.182  17.135  0.00  0.00    +0.000 C 
ATOM     29  C   UNL     1       6.068   4.370  16.171  0.00  0.00    +0.000 C 
ATOM     30  C   UNL     1       4.695   4.318  16.825  0.00  0.00    +0.000 C 
ENDBRANCH  18  26
ENDBRANCH  17  18
ENDBRANCH   3  17
TORSDOF 5
ENDMDL
MODEL 5
REMARK VINA RESULT:      -8.8      1.655      2.299
REMARK  Name = 
REMARK  5 active torsions:
REMARK  status: ('A' for Active; 'I' for Inactive)
REMARK    1  A    between atoms: C_2  and  C_18
REMARK    2  A    between atoms: N_3  and  C_4
REMARK    3  A    between atoms: C_4  and  C_5
REMARK    4  A    between atoms: C_5  and  C_6
REMARK    5  A    between atoms: C_5  and  N_13
REMARK                            x       y       z     vdW  Elec       q    Type
REMARK                         _______ _______ _______ _____ _____    ______ ____
ROOT
ATOM      1  O   UNL     1       0.840   9.472  17.919  0.00  0.00    +0.000 OA
ATOM      2  C   UNL     1       1.043   9.243  19.106  0.00  0.00    +0.000 C 
ATOM      3  N   UNL     1       1.919   8.286  19.573  0.00  0.00    +0.000 N 
ATOM      4  H   UNL     1       1.782   7.958  20.520  0.00  0.00    +0.000 HD
ENDROOT
BRANCH   2   5
ATOM      5  C   UNL     1       0.293   9.962  20.189  0.00  0.00    +0.000 A 
ATOM      6  C   UNL     1      -0.561  10.934  19.838  0.00  0.00    +0.000 A 
ATOM      7  C   UNL     1      -1.318  11.640  20.875  0.00  0.00    +0.000 A 
ATOM      8  C   UNL     1      -2.235  12.644  20.544  0.00  0.00    +0.000 A 
ATOM      9  C   UNL     1      -2.954  13.296  21.549  0.00  0.00    +0.000 A 
ATOM     10  C   UNL     1      -2.762  12.953  22.888  0.00  0.00    +0.000 A 
ATOM     11  C   UNL     1      -1.845  11.958  23.230  0.00  0.00    +0.000 A 
ATOM     12  C   UNL     1      -1.128  11.304  22.223  0.00  0.00    +0.000 A 
ATOM     13  C   UNL     1      -0.148  10.241  22.565  0.00  0.00    +0.000 A 
ATOM     14  O   UNL     1       0.082   9.921  23.726  0.00  0.00    +0.000 OA
ATOM     15  N   UNL     1       0.487   9.627  21.509  0.00  0.00    +0.000 N 
ATOM     16  H   UNL     1       1.198   8.950  21.758  0.00  0.00    +0.000 HD
ENDBRANCH   2   5
BRANCH   3  17
ATOM     17  C   UNL     1       2.543   7.344  18.654  0.00  0.00    +0.000 C 
BRANCH  17  18
ATOM     18  C   UNL     1       3.290   6.136  19.300  0.00  0.00    +0.000 C 
BRANCH  18  19
ATOM     19  C   UNL     1       2.483   4.907  19.760  0.00  0.00    +0.000 A 
ATOM     20  C   UNL     1       2.589   4.566  21.134  0.00  0.00    +0.000 A 
ATOM     21  C   UNL     1       1.965   3.443  21.686  0.00  0.00    +0.000 A 
ATOM     22  C   UNL     1       1.179   2.631  20.886  0.00  0.00    +0.000 A 
ATOM     23  C   UNL     1       1.020   2.955  19.542  0.00  0.00    +0.000 A 
ATOM     24  C   UNL     1       1.663   4.074  18.976  0.00  0.00    +0.000 A 
ATOM     25 CL   UNL     1       1.353   4.306  17.294  0.00  0.00    +0.000 Cl
ENDBRANCH  18  19
BRANCH  18  26
ATOM     26  N   UNL     1       4.461   5.825  18.461  0.00  0.00    +0.000 NA
ATOM     27  C   UNL     1       4.516   6.279  17.085  0.00  0.00    +0.000 C 
ATOM     28  C   UNL     1       4.782   5.021  16.283  0.00  0.00    +0.000 C 
ATOM     29  C   UNL     1       5.620   4.172  17.220  0.00  0.00    +0.000 C 
ATOM     30  C   UNL     1       5.107   4.529  18.608  0.00  0.00    +0.000 C 
ENDBRANCH  18  26
ENDBRANCH  17  18
ENDBRANCH   3  17
TORSDOF 5
ENDMDL
MODEL 6
REMARK VINA RESULT:      -8.8      1.724      2.331
REMARK  Name = 
REMARK  5 active torsions:
REMARK  status: ('A' for Active; 'I' for Inactive)
REMARK    1  A    between atoms: C_2  and  C_18
REMARK    2  A    between atoms: N_3  and  C_4
REMARK    3  A    between atoms: C_4  and  C_5
REMARK    4  A    between atoms: C_5  and  C_6
REMARK    5  A    between atoms: C_5  and  N_13
REMARK                            x       y       z     vdW  Elec       q    Type
REMARK                         _______ _______ _______ _____ _____    ______ ____
ROOT
ATOM      1  O   UNL     1       1.167   9.092  17.456  0.00  0.00    +0.000 OA
ATOM      2  C   UNL     1       1.509   8.928  18.622  0.00  0.00    +0.000 C 
ATOM      3  N   UNL     1       2.530   8.092  19.019  0.00  0.00    +0.000 N 
ATOM      4  H   UNL     1       2.524   7.782  19.982  0.00  0.00    +0.000 HD
ENDROOT
BRANCH   2   5
ATOM      5  C   UNL     1       0.788   9.592  19.758  0.00  0.00    +0.000 A 
ATOM      6  C   UNL     1      -0.159  10.498  19.472  0.00  0.00    +0.000 A 
ATOM      7  C   UNL     1      -0.889  11.149  20.562  0.00  0.00    +0.000 A 
ATOM      8  C   UNL     1      -1.899  12.081  20.301  0.00  0.00    +0.000 A 
ATOM      9  C   UNL     1      -2.590  12.681  21.358  0.00  0.00    +0.000 A 
ATOM     10  C   UNL     1      -2.275  12.358  22.679  0.00  0.00    +0.000 A 
ATOM     11  C   UNL     1      -1.265  11.434  22.950  0.00  0.00    +0.000 A 
ATOM     12  C   UNL     1      -0.577  10.832  21.893  0.00  0.00    +0.000 A 
ATOM     13  C   UNL     1       0.502   9.845  22.160  0.00  0.00    +0.000 A 
ATOM     14  O   UNL     1       0.839   9.547  23.300  0.00  0.00    +0.000 OA
ATOM     15  N   UNL     1       1.102   9.277  21.059  0.00  0.00    +0.000 N 
ATOM     16  H   UNL     1       1.878   8.655  21.254  0.00  0.00    +0.000 HD
ENDBRANCH   2   5
BRANCH   3  17
ATOM     17  C   UNL     1       3.168   7.197  18.063  0.00  0.00    +0.000 C 
BRANCH  17  18
ATOM     18  C   UNL     1       3.760   5.873  18.641  0.00  0.00    +0.000 C 
BRANCH  18  19
ATOM     19  C   UNL     1       2.867   4.621  18.727  0.00  0.00    +0.000 A 
ATOM     20  C   UNL     1       3.117   3.606  17.766  0.00  0.00    +0.000 A 
ATOM     21  C   UNL     1       2.350   2.440  17.680  0.00  0.00    +0.000 A 
ATOM     22  C   UNL     1       1.317   2.228  18.577  0.00  0.00    +0.000 A 
ATOM     23  C   UNL     1       1.067   3.183  19.558  0.00  0.00    +0.000 A 
ATOM     24  C   UNL     1       1.824   4.369  19.637  0.00  0.00    +0.000 A 
ATOM     25 CL   UNL     1       1.357   5.434  20.913  0.00  0.00    +0.000 Cl
ENDBRANCH  18  19
BRANCH  18  26
ATOM     26  N   UNL     1       5.074   5.651  18.011  0.00  0.00    +0.000 NA
ATOM     27  C   UNL     1       6.176   5.120  18.788  0.00  0.00    +0.000 C 
ATOM     28  C   UNL     1       7.296   6.122  18.585  0.00  0.00    +0.000 C 
ATOM     29  C   UNL     1       7.059   6.641  17.180  0.00  0.00    +0.000 C 
ATOM     30  C   UNL     1       5.546   6.602  17.017  0.00  0.00    +0.000 C 
ENDBRANCH  18  26
ENDBRANCH  17  18
ENDBRANCH   3  17
TORSDOF 5
ENDMDL
MODEL 7
REMARK VINA RESULT:      -8.6      2.215      4.236
REMARK  Name = 
REMARK  5 active torsions:
REMARK  status: ('A' for Active; 'I' for Inactive)
REMARK    1  A    between atoms: C_2  and  C_18
REMARK    2  A    between atoms: N_3  and  C_4
REMARK    3  A    between atoms: C_4  and  C_5
REMARK    4  A    between atoms: C_5  and  C_6
REMARK    5  A    between atoms: C_5  and  N_13
REMARK                            x       y       z     vdW  Elec       q    Type
REMARK                         _______ _______ _______ _____ _____    ______ ____
ROOT
ATOM      1  O   UNL     1       1.703   5.611  20.730  0.00  0.00    +0.000 OA
ATOM      2  C   UNL     1       2.079   6.629  20.159  0.00  0.00    +0.000 C 
ATOM      3  N   UNL     1       3.174   6.688  19.323  0.00  0.00    +0.000 N 
ATOM      4  H   UNL     1       3.584   7.600  19.165  0.00  0.00    +0.000 HD
ENDROOT
BRANCH   2   5
ATOM      5  C   UNL     1       1.401   7.951  20.372  0.00  0.00    +0.000 A 
ATOM      6  C   UNL     1       0.742   8.154  21.522  0.00  0.00    +0.000 A 
ATOM      7  C   UNL     1       0.085   9.441  21.761  0.00  0.00    +0.000 A 
ATOM      8  C   UNL     1      -0.592   9.696  22.958  0.00  0.00    +0.000 A 
ATOM      9  C   UNL     1      -1.201  10.936  23.169  0.00  0.00    +0.000 A 
ATOM     10  C   UNL     1      -1.141  11.927  22.186  0.00  0.00    +0.000 A 
ATOM     11  C   UNL     1      -0.473  11.680  20.986  0.00  0.00    +0.000 A 
ATOM     12  C   UNL     1       0.138  10.440  20.778  0.00  0.00    +0.000 A 
ATOM     13  C   UNL     1       0.855  10.158  19.507  0.00  0.00    +0.000 A 
ATOM     14  O   UNL     1       0.913  10.979  18.599  0.00  0.00    +0.000 OA
ATOM     15  N   UNL     1       1.457   8.924  19.401  0.00  0.00    +0.000 N 
ATOM     16  H   UNL     1       1.886   8.720  18.507  0.00  0.00    +0.000 HD
ENDBRANCH   2   5
BRANCH   3  17
ATOM     17  C   UNL     1       4.075   5.551  19.202  0.00  0.00    +0.000 C 
BRANCH  17  18
ATOM     18  C   UNL     1       3.933   4.688  17.910  0.00  0.00    +0.000 C 
BRANCH  18  19
ATOM     19  C   UNL     1       5.076   4.679  16.878  0.00  0.00    +0.000 A 
ATOM     20  C   UNL     1       4.695   4.494  15.522  0.00  0.00    +0.000 A 
ATOM     21  C   UNL     1       5.623   4.402  14.481  0.00  0.00    +0.000 A 
ATOM     22  C   UNL     1       6.975   4.527  14.751  0.00  0.00    +0.000 A 
ATOM     23  C   UNL     1       7.385   4.748  16.062  0.00  0.00    +0.000 A 
ATOM     24  C   UNL     1       6.455   4.821  17.119  0.00  0.00    +0.000 A 
ATOM     25 CL   UNL     1       7.155   5.090  18.674  0.00  0.00    +0.000 Cl
ENDBRANCH  18  19
BRANCH  18  26
ATOM     26  N   UNL     1       3.452   3.352  18.307  0.00  0.00    +0.000 NA
ATOM     27  C   UNL     1       2.309   2.759  17.640  0.00  0.00    +0.000 C 
ATOM     28  C   UNL     1       1.358   2.406  18.766  0.00  0.00    +0.000 C 
ATOM     29  C   UNL     1       2.281   2.074  19.922  0.00  0.00    +0.000 C 
ATOM     30  C   UNL     1       3.483   2.984  19.714  0.00  0.00    +0.000 C 
ENDBRANCH  18  26
ENDBRANCH  17  18
ENDBRANCH   3  17
TORSDOF 5
ENDMDL
MODEL 8
REMARK VINA RESULT:      -8.5      1.763      2.502
REMARK  Name = 
REMARK  5 active torsions:
REMARK  status: ('A' for Active; 'I' for Inactive)
REMARK    1  A    between atoms: C_2  and  C_18
REMARK    2  A    between atoms: N_3  and  C_4
REMARK    3  A    between atoms: C_4  and  C_5
REMARK    4  A    between atoms: C_5  and  C_6
REMARK    5  A    between atoms: C_5  and  N_13
REMARK                            x       y       z     vdW  Elec       q    Type
REMARK                         _______ _______ _______ _____ _____    ______ ____
ROOT
ATOM      1  O   UNL     1       1.791   9.577  17.551  0.00  0.00    +0.000 OA
ATOM      2  C   UNL     1       1.681   9.116  18.682  0.00  0.00    +0.000 C 
ATOM      3  N   UNL     1       2.260   7.935  19.097  0.00  0.00    +0.000 N 
ATOM      4  H   UNL     1       1.861   7.488  19.912  0.00  0.00    +0.000 HD
ENDROOT
BRANCH   2   5
ATOM      5  C   UNL     1       0.834   9.780  19.728  0.00  0.00    +0.000 A 
ATOM      6  C   UNL     1      -0.133  10.619  19.329  0.00  0.00    +0.000 A 
ATOM      7  C   UNL     1      -0.984  11.268  20.329  0.00  0.00    +0.000 A 
ATOM      8  C   UNL     1      -2.017  12.131  19.949  0.00  0.00    +0.000 A 
ATOM      9  C   UNL     1      -2.824  12.729  20.920  0.00  0.00    +0.000 A 
ATOM     10  C   UNL     1      -2.604  12.473  22.275  0.00  0.00    +0.000 A 
ATOM     11  C   UNL     1      -1.572  11.619  22.665  0.00  0.00    +0.000 A 
ATOM     12  C   UNL     1      -0.767  11.018  21.693  0.00  0.00    +0.000 A 
ATOM     13  C   UNL     1       0.337  10.104  22.087  0.00  0.00    +0.000 A 
ATOM     14  O   UNL     1       0.594   9.868  23.262  0.00  0.00    +0.000 OA
ATOM     15  N   UNL     1       1.056   9.531  21.062  0.00  0.00    +0.000 N 
ATOM     16  H   UNL     1       1.845   8.962  21.345  0.00  0.00    +0.000 HD
ENDBRANCH   2   5
BRANCH   3  17
ATOM     17  C   UNL     1       2.913   7.054  18.138  0.00  0.00    +0.000 C 
BRANCH  17  18
ATOM     18  C   UNL     1       3.716   5.855  18.732  0.00  0.00    +0.000 C 
BRANCH  18  19
ATOM     19  C   UNL     1       3.082   4.452  18.742  0.00  0.00    +0.000 A 
ATOM     20  C   UNL     1       3.097   3.749  17.508  0.00  0.00    +0.000 A 
ATOM     21  C   UNL     1       2.506   2.492  17.345  0.00  0.00    +0.000 A 
ATOM     22  C   UNL     1       1.902   1.872  18.425  0.00  0.00    +0.000 A 
ATOM     23  C   UNL     1       1.901   2.512  19.660  0.00  0.00    +0.000 A 
ATOM     24  C   UNL     1       2.478   3.788  19.825  0.00  0.00    +0.000 A 
ATOM     25 CL   UNL     1       2.369   4.423  21.427  0.00  0.00    +0.000 Cl
ENDBRANCH  18  19
BRANCH  18  26
ATOM     26  N   UNL     1       5.083   5.910  18.185  0.00  0.00    +0.000 NA
ATOM     27  C   UNL     1       5.312   6.390  16.837  0.00  0.00    +0.000 C 
ATOM     28  C   UNL     1       6.097   5.277  16.169  0.00  0.00    +0.000 C 
ATOM     29  C   UNL     1       6.909   4.684  17.304  0.00  0.00    +0.000 C 
ATOM     30  C   UNL     1       6.020   4.851  18.528  0.00  0.00    +0.000 C 
ENDBRANCH  18  26
ENDBRANCH  17  18
ENDBRANCH   3  17
TORSDOF 5
ENDMDL
MODEL 9
REMARK VINA RESULT:      -8.5      2.093      4.068
REMARK  Name = 
REMARK  5 active torsions:
REMARK  status: ('A' for Active; 'I' for Inactive)
REMARK    1  A    between atoms: C_2  and  C_18
REMARK    2  A    between atoms: N_3  and  C_4
REMARK    3  A    between atoms: C_4  and  C_5
REMARK    4  A    between atoms: C_5  and  C_6
REMARK    5  A    between atoms: C_5  and  N_13
REMARK                            x       y       z     vdW  Elec       q    Type
REMARK                         _______ _______ _______ _____ _____    ______ ____
ROOT
ATOM      1  O   UNL     1       2.241   7.695  18.625  0.00  0.00    +0.000 OA
ATOM      2  C   UNL     1       1.996   7.621  19.824  0.00  0.00    +0.000 C 
ATOM      3  N   UNL     1       2.393   6.577  20.633  0.00  0.00    +0.000 N 
ATOM      4  H   UNL     1       1.885   6.446  21.499  0.00  0.00    +0.000 HD
ENDROOT
BRANCH   2   5
ATOM      5  C   UNL     1       1.167   8.656  20.527  0.00  0.00    +0.000 A 
ATOM      6  C   UNL     1       0.475   9.533  19.785  0.00  0.00    +0.000 A 
ATOM      7  C   UNL     1      -0.355  10.542  20.446  0.00  0.00    +0.000 A 
ATOM      8  C   UNL     1      -1.108  11.458  19.704  0.00  0.00    +0.000 A 
ATOM      9  C   UNL     1      -1.902  12.406  20.357  0.00  0.00    +0.000 A 
ATOM     10  C   UNL     1      -1.945  12.447  21.752  0.00  0.00    +0.000 A 
ATOM     11  C   UNL     1      -1.193  11.543  22.501  0.00  0.00    +0.000 A 
ATOM     12  C   UNL     1      -0.402  10.594  21.847  0.00  0.00    +0.000 A 
ATOM     13  C   UNL     1       0.407   9.620  22.627  0.00  0.00    +0.000 A 
ATOM     14  O   UNL     1       0.429   9.632  23.852  0.00  0.00    +0.000 OA
ATOM     15  N   UNL     1       1.129   8.699  21.902  0.00  0.00    +0.000 N 
ATOM     16  H   UNL     1       1.725   8.084  22.442  0.00  0.00    +0.000 HD
ENDBRANCH   2   5
BRANCH   3  17
ATOM     17  C   UNL     1       2.996   5.383  20.058  0.00  0.00    +0.000 C 
BRANCH  17  18
ATOM     18  C   UNL     1       3.533   5.511  18.599  0.00  0.00    +0.000 C 
BRANCH  18  19
ATOM     19  C   UNL     1       5.033   5.771  18.367  0.00  0.00    +0.000 A 
ATOM     20  C   UNL     1       5.905   5.395  19.422  0.00  0.00    +0.000 A 
ATOM     21  C   UNL     1       7.284   5.625  19.383  0.00  0.00    +0.000 A 
ATOM     22  C   UNL     1       7.852   6.213  18.266  0.00  0.00    +0.000 A 
ATOM     23  C   UNL     1       7.035   6.560  17.195  0.00  0.00    +0.000 A 
ATOM     24  C   UNL     1       5.641   6.349  17.237  0.00  0.00    +0.000 A 
ATOM     25 CL   UNL     1       4.796   6.854  15.818  0.00  0.00    +0.000 Cl
ENDBRANCH  18  19
BRANCH  18  26
ATOM     26  N   UNL     1       2.971   4.401  17.809  0.00  0.00    +0.000 NA
ATOM     27  C   UNL     1       1.547   4.130  17.840  0.00  0.00    +0.000 C 
ATOM     28  C   UNL     1       1.451   2.666  18.223  0.00  0.00    +0.000 C 
ATOM     29  C   UNL     1       2.698   2.056  17.614  0.00  0.00    +0.000 C 
ATOM     30  C   UNL     1       3.734   3.168  17.688  0.00  0.00    +0.000 C 
ENDBRANCH  18  26
ENDBRANCH  17  18
ENDBRANCH   3  17
TORSDOF 5
ENDMDL
