MODEL 1
REMARK VINA RESULT:      -8.0      0.000      0.000
REMARK  Name = 
REMARK  4 active torsions:
REMARK  status: ('A' for Active; 'I' for Inactive)
REMARK    1  A    between atoms: C_2  and  C_19
REMARK    2  A    between atoms: N_3  and  C_4
REMARK    3  A    between atoms: C_8  and  C_9
REMARK    4  A    between atoms: C_23  and  C_24
REMARK                            x       y       z     vdW  Elec       q    Type
REMARK                         _______ _______ _______ _____ _____    ______ ____
ROOT
ATOM      1  C   UNL     1       4.496   4.726  16.913  0.00  0.00    +0.000 A 
ATOM      2  C   UNL     1       4.421   3.522  17.619  0.00  0.00    +0.000 A 
ATOM      3  C   UNL     1       3.730   3.446  18.824  0.00  0.00    +0.000 A 
ATOM      4  C   UNL     1       3.093   4.572  19.330  0.00  0.00    +0.000 A 
ATOM      5  C   UNL     1       3.160   5.795  18.652  0.00  0.00    +0.000 A 
ATOM      6  C   UNL     1       3.889   5.872  17.453  0.00  0.00    +0.000 A 
ENDROOT
BRANCH   5   7
ATOM      7  C   UNL     1       2.466   6.961  19.175  0.00  0.00    +0.000 A 
ATOM      8  C   UNL     1       2.214   8.119  18.473  0.00  0.00    +0.000 A 
ATOM      9  N   UNL     1       1.527   8.917  19.339  0.00  0.00    +0.000 N 
ATOM     10  C   UNL     1       1.401   8.255  20.522  0.00  0.00    +0.000 A 
ATOM     11  N   UNL     1       1.979   7.070  20.456  0.00  0.00    +0.000 NA
ATOM     12  C   UNL     1       0.694   8.824  21.690  0.00  0.00    +0.000 C 
ATOM     13  C   UNL     1       0.149  10.238  21.514  0.00  0.00    +0.000 C 
ATOM     14  C   UNL     1       0.313  10.951  20.172  0.00  0.00    +0.000 C 
ATOM     15  C   UNL     1       1.025  10.228  19.037  0.00  0.00    +0.000 C 
ENDBRANCH   5   7
BRANCH   1  18
ATOM     16  O   UNL     1       7.341   4.511  16.315  0.00  0.00    +0.000 OA
ATOM     17  C   UNL     1       6.504   4.695  15.437  0.00  0.00    +0.000 C 
ATOM     18  N   UNL     1       5.145   4.836  15.662  0.00  0.00    +0.000 N 
ATOM     19  H   UNL     1       4.555   4.981  14.858  0.00  0.00    +0.000 HD
BRANCH  17  20
ATOM     20  C   UNL     1       6.951   4.793  14.041  0.00  0.00    +0.000 A 
ATOM     21  C   UNL     1       8.036   5.653  13.651  0.00  0.00    +0.000 A 
ATOM     22  C   UNL     1       8.241   5.521  12.302  0.00  0.00    +0.000 A 
ATOM     23  N   UNL     1       7.328   4.617  11.840  0.00  0.00    +0.000 N 
ATOM     24  C   UNL     1       6.555   4.142  12.876  0.00  0.00    +0.000 A 
ATOM     25  H   UNL     1       7.270   4.298  10.883  0.00  0.00    +0.000 HD
BRANCH  24  26
ATOM     26  C   UNL     1       5.500   3.053  12.701  0.00  0.00    +0.000 C 
ATOM     27  C   UNL     1       5.515   2.173  11.471  0.00  0.00    +0.000 C 
ATOM     28  C   UNL     1       4.489   3.247  11.585  0.00  0.00    +0.000 C 
ENDBRANCH  24  26
ENDBRANCH  17  20
ENDBRANCH   1  18
TORSDOF 4
ENDMDL
MODEL 2
REMARK VINA RESULT:      -7.9      2.134      3.951
REMARK  Name = 
REMARK  4 active torsions:
REMARK  status: ('A' for Active; 'I' for Inactive)
REMARK    1  A    between atoms: C_2  and  C_19
REMARK    2  A    between atoms: N_3  and  C_4
REMARK    3  A    between atoms: C_8  and  C_9
REMARK    4  A    between atoms: C_23  and  C_24
REMARK                            x       y       z     vdW  Elec       q    Type
REMARK                         _______ _______ _______ _____ _____    ______ ____
ROOT
ATOM      1  C   UNL     1       3.175   5.538  19.227  0.00  0.00    +0.000 A 
ATOM      2  C   UNL     1       2.562   4.361  19.664  0.00  0.00    +0.000 A 
ATOM      3  C   UNL     1       1.459   4.405  20.510  0.00  0.00    +0.000 A 
ATOM      4  C   UNL     1       0.947   5.631  20.918  0.00  0.00    +0.000 A 
ATOM      5  C   UNL     1       1.546   6.828  20.505  0.00  0.00    +0.000 A 
ATOM      6  C   UNL     1       2.681   6.773  19.679  0.00  0.00    +0.000 A 
ENDROOT
BRANCH   5   7
ATOM      7  C   UNL     1       0.986   8.106  20.915  0.00  0.00    +0.000 A 
ATOM      8  C   UNL     1       0.192   8.309  22.022  0.00  0.00    +0.000 A 
ATOM      9  N   UNL     1      -0.074   9.646  22.027  0.00  0.00    +0.000 N 
ATOM     10  C   UNL     1       0.529  10.206  20.942  0.00  0.00    +0.000 A 
ATOM     11  N   UNL     1       1.165   9.289  20.238  0.00  0.00    +0.000 NA
ATOM     12  C   UNL     1       0.458  11.653  20.641  0.00  0.00    +0.000 C 
ATOM     13  C   UNL     1      -0.382  12.492  21.599  0.00  0.00    +0.000 C 
ATOM     14  C   UNL     1      -1.046  11.827  22.805  0.00  0.00    +0.000 C 
ATOM     15  C   UNL     1      -0.854  10.332  23.019  0.00  0.00    +0.000 C 
ENDBRANCH   5   7
BRANCH   1  18
ATOM     16  O   UNL     1       3.547   3.940  16.817  0.00  0.00    +0.000 OA
ATOM     17  C   UNL     1       4.372   4.774  17.179  0.00  0.00    +0.000 C 
ATOM     18  N   UNL     1       4.266   5.539  18.327  0.00  0.00    +0.000 N 
ATOM     19  H   UNL     1       5.008   6.193  18.519  0.00  0.00    +0.000 HD
BRANCH  17  20
ATOM     20  C   UNL     1       5.576   4.981  16.361  0.00  0.00    +0.000 A 
ATOM     21  C   UNL     1       5.844   4.188  15.192  0.00  0.00    +0.000 A 
ATOM     22  C   UNL     1       7.016   4.618  14.626  0.00  0.00    +0.000 A 
ATOM     23  N   UNL     1       7.485   5.643  15.396  0.00  0.00    +0.000 N 
ATOM     24  C   UNL     1       6.619   5.899  16.436  0.00  0.00    +0.000 A 
ATOM     25  H   UNL     1       8.320   6.176  15.195  0.00  0.00    +0.000 HD
BRANCH  24  26
ATOM     26  C   UNL     1       6.817   7.044  17.426  0.00  0.00    +0.000 C 
ATOM     27  C   UNL     1       8.065   7.895  17.362  0.00  0.00    +0.000 C 
ATOM     28  C   UNL     1       7.927   6.885  18.449  0.00  0.00    +0.000 C 
ENDBRANCH  24  26
ENDBRANCH  17  20
ENDBRANCH   1  18
TORSDOF 4
ENDMDL
MODEL 3
REMARK VINA RESULT:      -7.9      2.057      3.638
REMARK  Name = 
REMARK  4 active torsions:
REMARK  status: ('A' for Active; 'I' for Inactive)
REMARK    1  A    between atoms: C_2  and  C_19
REMARK    2  A    between atoms: N_3  and  C_4
REMARK    3  A    between atoms: C_8  and  C_9
REMARK    4  A    between atoms: C_23  and  C_24
REMARK                            x       y       z     vdW  Elec       q    Type
REMARK                         _______ _______ _______ _____ _____    ______ ____
ROOT
ATOM      1  C   UNL     1       3.148   5.381  19.064  0.00  0.00    +0.000 A 
ATOM      2  C   UNL     1       2.525   4.223  19.537  0.00  0.00    +0.000 A 
ATOM      3  C   UNL     1       1.452   4.301  20.419  0.00  0.00    +0.000 A 
ATOM      4  C   UNL     1       0.980   5.543  20.827  0.00  0.00    +0.000 A 
ATOM      5  C   UNL     1       1.590   6.721  20.379  0.00  0.00    +0.000 A 
ATOM      6  C   UNL     1       2.695   6.631  19.516  0.00  0.00    +0.000 A 
ENDROOT
BRANCH   5   7
ATOM      7  C   UNL     1       1.071   8.016  20.789  0.00  0.00    +0.000 A 
ATOM      8  C   UNL     1       1.197   9.187  20.075  0.00  0.00    +0.000 A 
ATOM      9  N   UNL     1       0.545  10.127  20.817  0.00  0.00    +0.000 N 
ATOM     10  C   UNL     1       0.071   9.529  21.944  0.00  0.00    +0.000 A 
ATOM     11  N   UNL     1       0.392   8.249  21.962  0.00  0.00    +0.000 NA
ATOM     12  C   UNL     1      -0.703  10.256  22.975  0.00  0.00    +0.000 C 
ATOM     13  C   UNL     1      -0.900  11.748  22.729  0.00  0.00    +0.000 C 
ATOM     14  C   UNL     1      -0.351  12.385  21.453  0.00  0.00    +0.000 C 
ATOM     15  C   UNL     1       0.390  11.508  20.453  0.00  0.00    +0.000 C 
ENDBRANCH   5   7
BRANCH   1  18
ATOM     16  O   UNL     1       4.061   3.147  17.429  0.00  0.00    +0.000 OA
ATOM     17  C   UNL     1       4.577   4.258  17.358  0.00  0.00    +0.000 C 
ATOM     18  N   UNL     1       4.208   5.348  18.129  0.00  0.00    +0.000 N 
ATOM     19  H   UNL     1       4.705   6.211  17.979  0.00  0.00    +0.000 HD
BRANCH  17  20
ATOM     20  C   UNL     1       5.678   4.469  16.408  0.00  0.00    +0.000 A 
ATOM     21  C   UNL     1       5.477   4.394  14.987  0.00  0.00    +0.000 A 
ATOM     22  C   UNL     1       6.667   4.654  14.358  0.00  0.00    +0.000 A 
ATOM     23  N   UNL     1       7.597   4.885  15.331  0.00  0.00    +0.000 N 
ATOM     24  C   UNL     1       7.017   4.806  16.578  0.00  0.00    +0.000 A 
ATOM     25  H   UNL     1       8.560   5.138  15.157  0.00  0.00    +0.000 HD
BRANCH  24  26
ATOM     26  C   UNL     1       7.774   5.099  17.871  0.00  0.00    +0.000 C 
ATOM     27  C   UNL     1       7.018   5.500  19.118  0.00  0.00    +0.000 C 
ATOM     28  C   UNL     1       7.772   6.536  18.359  0.00  0.00    +0.000 C 
ENDBRANCH  24  26
ENDBRANCH  17  20
ENDBRANCH   1  18
TORSDOF 4
ENDMDL
MODEL 4
REMARK VINA RESULT:      -7.8      4.183      7.595
REMARK  Name = 
REMARK  4 active torsions:
REMARK  status: ('A' for Active; 'I' for Inactive)
REMARK    1  A    between atoms: C_2  and  C_19
REMARK    2  A    between atoms: N_3  and  C_4
REMARK    3  A    between atoms: C_8  and  C_9
REMARK    4  A    between atoms: C_23  and  C_24
REMARK                            x       y       z     vdW  Elec       q    Type
REMARK                         _______ _______ _______ _____ _____    ______ ____
ROOT
ATOM      1  C   UNL     1       1.267  10.287  18.352  0.00  0.00    +0.000 A 
ATOM      2  C   UNL     1       2.031  11.451  18.474  0.00  0.00    +0.000 A 
ATOM      3  C   UNL     1       1.420  12.686  18.660  0.00  0.00    +0.000 A 
ATOM      4  C   UNL     1       0.035  12.769  18.741  0.00  0.00    +0.000 A 
ATOM      5  C   UNL     1      -0.758  11.622  18.611  0.00  0.00    +0.000 A 
ATOM      6  C   UNL     1      -0.133  10.383  18.388  0.00  0.00    +0.000 A 
ENDROOT
BRANCH   5   7
ATOM      7  C   UNL     1      -2.204  11.715  18.724  0.00  0.00    +0.000 A 
ATOM      8  C   UNL     1      -2.884  12.330  19.753  0.00  0.00    +0.000 A 
ATOM      9  N   UNL     1      -4.203  12.199  19.434  0.00  0.00    +0.000 N 
ATOM     10  C   UNL     1      -4.294  11.508  18.265  0.00  0.00    +0.000 A 
ATOM     11  N   UNL     1      -3.094  11.185  17.820  0.00  0.00    +0.000 NA
ATOM     12  C   UNL     1      -5.586  11.195  17.615  0.00  0.00    +0.000 C 
ATOM     13  C   UNL     1      -6.835  11.650  18.363  0.00  0.00    +0.000 C 
ATOM     14  C   UNL     1      -6.693  12.421  19.676  0.00  0.00    +0.000 C 
ATOM     15  C   UNL     1      -5.298  12.714  20.209  0.00  0.00    +0.000 C 
ENDBRANCH   5   7
BRANCH   1  18
ATOM     16  O   UNL     1       1.747   8.272  20.404  0.00  0.00    +0.000 OA
ATOM     17  C   UNL     1       2.025   8.078  19.224  0.00  0.00    +0.000 C 
ATOM     18  N   UNL     1       1.850   9.006  18.211  0.00  0.00    +0.000 N 
ATOM     19  H   UNL     1       2.115   8.730  17.279  0.00  0.00    +0.000 HD
BRANCH  17  20
ATOM     20  C   UNL     1       2.603   6.784  18.836  0.00  0.00    +0.000 A 
ATOM     21  C   UNL     1       3.555   6.670  17.765  0.00  0.00    +0.000 A 
ATOM     22  C   UNL     1       3.931   5.356  17.647  0.00  0.00    +0.000 A 
ATOM     23  N   UNL     1       3.251   4.653  18.599  0.00  0.00    +0.000 N 
ATOM     24  C   UNL     1       2.461   5.498  19.348  0.00  0.00    +0.000 A 
ATOM     25  H   UNL     1       3.358   3.663  18.767  0.00  0.00    +0.000 HD
BRANCH  24  26
ATOM     26  C   UNL     1       1.642   5.031  20.548  0.00  0.00    +0.000 C 
ATOM     27  C   UNL     1       2.085   3.825  21.346  0.00  0.00    +0.000 C 
ATOM     28  C   UNL     1       0.928   3.698  20.417  0.00  0.00    +0.000 C 
ENDBRANCH  24  26
ENDBRANCH  17  20
ENDBRANCH   1  18
TORSDOF 4
ENDMDL
MODEL 5
REMARK VINA RESULT:      -7.8      0.520      1.197
REMARK  Name = 
REMARK  4 active torsions:
REMARK  status: ('A' for Active; 'I' for Inactive)
REMARK    1  A    between atoms: C_2  and  C_19
REMARK    2  A    between atoms: N_3  and  C_4
REMARK    3  A    between atoms: C_8  and  C_9
REMARK    4  A    between atoms: C_23  and  C_24
REMARK                            x       y       z     vdW  Elec       q    Type
REMARK                         _______ _______ _______ _____ _____    ______ ____
ROOT
ATOM      1  C   UNL     1       4.539   4.807  16.904  0.00  0.00    +0.000 A 
ATOM      2  C   UNL     1       4.497   3.621  17.641  0.00  0.00    +0.000 A 
ATOM      3  C   UNL     1       3.812   3.559  18.850  0.00  0.00    +0.000 A 
ATOM      4  C   UNL     1       3.147   4.682  19.329  0.00  0.00    +0.000 A 
ATOM      5  C   UNL     1       3.179   5.887  18.617  0.00  0.00    +0.000 A 
ATOM      6  C   UNL     1       3.903   5.950  17.414  0.00  0.00    +0.000 A 
ENDROOT
BRANCH   5   7
ATOM      7  C   UNL     1       2.457   7.049  19.111  0.00  0.00    +0.000 A 
ATOM      8  C   UNL     1       1.969   7.197  20.391  0.00  0.00    +0.000 A 
ATOM      9  N   UNL     1       1.397   8.435  20.411  0.00  0.00    +0.000 N 
ATOM     10  C   UNL     1       1.525   8.985  19.173  0.00  0.00    +0.000 A 
ATOM     11  N   UNL     1       2.151   8.157  18.357  0.00  0.00    +0.000 NA
ATOM     12  C   UNL     1       1.025  10.337  18.838  0.00  0.00    +0.000 C 
ATOM     13  C   UNL     1       0.298  11.073  19.959  0.00  0.00    +0.000 C 
ATOM     14  C   UNL     1       0.170  10.421  21.336  0.00  0.00    +0.000 C 
ATOM     15  C   UNL     1       0.773   9.040  21.554  0.00  0.00    +0.000 C 
ENDBRANCH   5   7
BRANCH   1  18
ATOM     16  O   UNL     1       7.372   4.508  16.284  0.00  0.00    +0.000 OA
ATOM     17  C   UNL     1       6.533   4.719  15.412  0.00  0.00    +0.000 C 
ATOM     18  N   UNL     1       5.181   4.900  15.647  0.00  0.00    +0.000 N 
ATOM     19  H   UNL     1       4.589   5.064  14.849  0.00  0.00    +0.000 HD
BRANCH  17  20
ATOM     20  C   UNL     1       6.973   4.807  14.012  0.00  0.00    +0.000 A 
ATOM     21  C   UNL     1       8.048   5.672  13.609  0.00  0.00    +0.000 A 
ATOM     22  C   UNL     1       8.248   5.527  12.260  0.00  0.00    +0.000 A 
ATOM     23  N   UNL     1       7.341   4.611  11.812  0.00  0.00    +0.000 N 
ATOM     24  C   UNL     1       6.576   4.140  12.857  0.00  0.00    +0.000 A 
ATOM     25  H   UNL     1       7.280   4.282  10.858  0.00  0.00    +0.000 HD
BRANCH  24  26
ATOM     26  C   UNL     1       5.530   3.041  12.698  0.00  0.00    +0.000 C 
ATOM     27  C   UNL     1       5.521   2.175  11.458  0.00  0.00    +0.000 C 
ATOM     28  C   UNL     1       4.486   3.235  11.613  0.00  0.00    +0.000 C 
ENDBRANCH  24  26
ENDBRANCH  17  20
ENDBRANCH   1  18
TORSDOF 4
ENDMDL
MODEL 6
REMARK VINA RESULT:      -7.7      4.145      7.450
REMARK  Name = 
REMARK  4 active torsions:
REMARK  status: ('A' for Active; 'I' for Inactive)
REMARK    1  A    between atoms: C_2  and  C_19
REMARK    2  A    between atoms: N_3  and  C_4
REMARK    3  A    between atoms: C_8  and  C_9
REMARK    4  A    between atoms: C_23  and  C_24
REMARK                            x       y       z     vdW  Elec       q    Type
REMARK                         _______ _______ _______ _____ _____    ______ ____
ROOT
ATOM      1  C   UNL     1       1.265  10.006  18.315  0.00  0.00    +0.000 A 
ATOM      2  C   UNL     1       2.071  11.137  18.475  0.00  0.00    +0.000 A 
ATOM      3  C   UNL     1       1.503  12.392  18.670  0.00  0.00    +0.000 A 
ATOM      4  C   UNL     1       0.121  12.528  18.720  0.00  0.00    +0.000 A 
ATOM      5  C   UNL     1      -0.712  11.415  18.552  0.00  0.00    +0.000 A 
ATOM      6  C   UNL     1      -0.131  10.157  18.321  0.00  0.00    +0.000 A 
ENDROOT
BRANCH   5   7
ATOM      7  C   UNL     1      -2.156  11.562  18.634  0.00  0.00    +0.000 A 
ATOM      8  C   UNL     1      -3.061  11.056  17.727  0.00  0.00    +0.000 A 
ATOM      9  N   UNL     1      -4.285  11.408  18.213  0.00  0.00    +0.000 N 
ATOM     10  C   UNL     1      -4.102  12.121  19.359  0.00  0.00    +0.000 A 
ATOM     11  N   UNL     1      -2.816  12.245  19.629  0.00  0.00    +0.000 NA
ATOM     12  C   UNL     1      -5.224  12.653  20.162  0.00  0.00    +0.000 C 
ATOM     13  C   UNL     1      -6.621  12.403  19.603  0.00  0.00    +0.000 C 
ATOM     14  C   UNL     1      -6.787  11.602  18.311  0.00  0.00    +0.000 C 
ATOM     15  C   UNL     1      -5.544  11.073  17.609  0.00  0.00    +0.000 C 
ENDBRANCH   5   7
BRANCH   1  18
ATOM     16  O   UNL     1       1.861   8.035  20.379  0.00  0.00    +0.000 OA
ATOM     17  C   UNL     1       2.036   7.802  19.187  0.00  0.00    +0.000 C 
ATOM     18  N   UNL     1       1.801   8.706  18.165  0.00  0.00    +0.000 N 
ATOM     19  H   UNL     1       1.980   8.398  17.223  0.00  0.00    +0.000 HD
BRANCH  17  20
ATOM     20  C   UNL     1       2.546   6.482  18.791  0.00  0.00    +0.000 A 
ATOM     21  C   UNL     1       3.469   6.322  17.701  0.00  0.00    +0.000 A 
ATOM     22  C   UNL     1       3.782   4.992  17.579  0.00  0.00    +0.000 A 
ATOM     23  N   UNL     1       3.091   4.323  18.547  0.00  0.00    +0.000 N 
ATOM     24  C   UNL     1       2.356   5.204  19.310  0.00  0.00    +0.000 A 
ATOM     25  H   UNL     1       3.156   3.329  18.716  0.00  0.00    +0.000 HD
BRANCH  24  26
ATOM     26  C   UNL     1       1.541   4.777  20.528  0.00  0.00    +0.000 C 
ATOM     27  C   UNL     1       2.067   3.703  21.453  0.00  0.00    +0.000 C 
ATOM     28  C   UNL     1       0.961   3.375  20.511  0.00  0.00    +0.000 C 
ENDBRANCH  24  26
ENDBRANCH  17  20
ENDBRANCH   1  18
TORSDOF 4
ENDMDL
MODEL 7
REMARK VINA RESULT:      -7.6      3.736      6.797
REMARK  Name = 
REMARK  4 active torsions:
REMARK  status: ('A' for Active; 'I' for Inactive)
REMARK    1  A    between atoms: C_2  and  C_19
REMARK    2  A    between atoms: N_3  and  C_4
REMARK    3  A    between atoms: C_8  and  C_9
REMARK    4  A    between atoms: C_23  and  C_24
REMARK                            x       y       z     vdW  Elec       q    Type
REMARK                         _______ _______ _______ _____ _____    ______ ____
ROOT
ATOM      1  C   UNL     1       1.428   9.755  18.073  0.00  0.00    +0.000 A 
ATOM      2  C   UNL     1       2.290  10.830  18.306  0.00  0.00    +0.000 A 
ATOM      3  C   UNL     1       1.787  12.090  18.616  0.00  0.00    +0.000 A 
ATOM      4  C   UNL     1       0.414  12.285  18.710  0.00  0.00    +0.000 A 
ATOM      5  C   UNL     1      -0.474  11.229  18.471  0.00  0.00    +0.000 A 
ATOM      6  C   UNL     1       0.041   9.968  18.125  0.00  0.00    +0.000 A 
ENDROOT
BRANCH   5   7
ATOM      7  C   UNL     1      -1.908  11.436  18.599  0.00  0.00    +0.000 A 
ATOM      8  C   UNL     1      -2.524  12.129  19.617  0.00  0.00    +0.000 A 
ATOM      9  N   UNL     1      -3.854  12.091  19.319  0.00  0.00    +0.000 N 
ATOM     10  C   UNL     1      -4.014  11.377  18.171  0.00  0.00    +0.000 A 
ATOM     11  N   UNL     1      -2.848  10.950  17.721  0.00  0.00    +0.000 NA
ATOM     12  C   UNL     1      -5.335  11.145  17.546  0.00  0.00    +0.000 C 
ATOM     13  C   UNL     1      -6.535  11.715  18.296  0.00  0.00    +0.000 C 
ATOM     14  C   UNL     1      -6.316  12.510  19.584  0.00  0.00    +0.000 C 
ATOM     15  C   UNL     1      -4.894  12.710  20.092  0.00  0.00    +0.000 C 
ENDBRANCH   5   7
BRANCH   1  18
ATOM     16  O   UNL     1       2.221   7.683  19.965  0.00  0.00    +0.000 OA
ATOM     17  C   UNL     1       2.233   7.495  18.751  0.00  0.00    +0.000 C 
ATOM     18  N   UNL     1       1.897   8.448  17.804  0.00  0.00    +0.000 N 
ATOM     19  H   UNL     1       1.944   8.175  16.836  0.00  0.00    +0.000 HD
BRANCH  17  20
ATOM     20  C   UNL     1       2.645   6.180  18.242  0.00  0.00    +0.000 A 
ATOM     21  C   UNL     1       1.855   5.000  18.464  0.00  0.00    +0.000 A 
ATOM     22  C   UNL     1       2.472   3.935  17.859  0.00  0.00    +0.000 A 
ATOM     23  N   UNL     1       3.611   4.407  17.273  0.00  0.00    +0.000 N 
ATOM     24  C   UNL     1       3.724   5.766  17.467  0.00  0.00    +0.000 A 
ATOM     25  H   UNL     1       4.248   3.847  16.724  0.00  0.00    +0.000 HD
BRANCH  24  26
ATOM     26  C   UNL     1       4.845   6.606  16.861  0.00  0.00    +0.000 C 
ATOM     27  C   UNL     1       6.017   5.932  16.183  0.00  0.00    +0.000 C 
ATOM     28  C   UNL     1       6.203   6.531  17.534  0.00  0.00    +0.000 C 
ENDBRANCH  24  26
ENDBRANCH  17  20
ENDBRANCH   1  18
TORSDOF 4
ENDMDL
MODEL 8
REMARK VINA RESULT:      -7.4      4.071      7.427
REMARK  Name = 
REMARK  4 active torsions:
REMARK  status: ('A' for Active; 'I' for Inactive)
REMARK    1  A    between atoms: C_2  and  C_19
REMARK    2  A    between atoms: N_3  and  C_4
REMARK    3  A    between atoms: C_8  and  C_9
REMARK    4  A    between atoms: C_23  and  C_24
REMARK                            x       y       z     vdW  Elec       q    Type
REMARK                         _______ _______ _______ _____ _____    ______ ____
ROOT
ATOM      1  C   UNL     1       0.858  10.403  18.968  0.00  0.00    +0.000 A 
ATOM      2  C   UNL     1       1.630  11.555  18.799  0.00  0.00    +0.000 A 
ATOM      3  C   UNL     1       1.026  12.800  18.654  0.00  0.00    +0.000 A 
ATOM      4  C   UNL     1      -0.360  12.908  18.692  0.00  0.00    +0.000 A 
ATOM      5  C   UNL     1      -1.159  11.769  18.849  0.00  0.00    +0.000 A 
ATOM      6  C   UNL     1      -0.542  10.511  18.959  0.00  0.00    +0.000 A 
ENDROOT
BRANCH   5   7
ATOM      7  C   UNL     1      -2.606  11.894  18.915  0.00  0.00    +0.000 A 
ATOM      8  C   UNL     1      -3.488  11.449  17.955  0.00  0.00    +0.000 A 
ATOM      9  N   UNL     1      -4.726  11.751  18.442  0.00  0.00    +0.000 N 
ATOM     10  C   UNL     1      -4.572  12.375  19.642  0.00  0.00    +0.000 A 
ATOM     11  N   UNL     1      -3.292  12.492  19.946  0.00  0.00    +0.000 NA
ATOM     12  C   UNL     1      -5.714  12.832  20.463  0.00  0.00    +0.000 C 
ATOM     13  C   UNL     1      -7.098  12.611  19.859  0.00  0.00    +0.000 C 
ATOM     14  C   UNL     1      -7.231  11.909  18.508  0.00  0.00    +0.000 C 
ATOM     15  C   UNL     1      -5.969  11.449  17.790  0.00  0.00    +0.000 C 
ENDBRANCH   5   7
BRANCH   1  18
ATOM     16  O   UNL     1       2.374   8.774  17.084  0.00  0.00    +0.000 OA
ATOM     17  C   UNL     1       2.168   8.412  18.239  0.00  0.00    +0.000 C 
ATOM     18  N   UNL     1       1.432   9.126  19.168  0.00  0.00    +0.000 N 
ATOM     19  H   UNL     1       1.333   8.726  20.088  0.00  0.00    +0.000 HD
BRANCH  17  20
ATOM     20  C   UNL     1       2.719   7.125  18.686  0.00  0.00    +0.000 A 
ATOM     21  C   UNL     1       2.207   6.442  19.843  0.00  0.00    +0.000 A 
ATOM     22  C   UNL     1       2.894   5.266  20.002  0.00  0.00    +0.000 A 
ATOM     23  N   UNL     1       3.810   5.193  18.993  0.00  0.00    +0.000 N 
ATOM     24  C   UNL     1       3.706   6.291  18.168  0.00  0.00    +0.000 A 
ATOM     25  H   UNL     1       4.434   4.413  18.840  0.00  0.00    +0.000 HD
BRANCH  24  26
ATOM     26  C   UNL     1       4.534   6.464  16.897  0.00  0.00    +0.000 C 
ATOM     27  C   UNL     1       5.650   5.494  16.582  0.00  0.00    +0.000 C 
ATOM     28  C   UNL     1       5.989   6.859  17.072  0.00  0.00    +0.000 C 
ENDBRANCH  24  26
ENDBRANCH  17  20
ENDBRANCH   1  18
TORSDOF 4
ENDMDL
MODEL 9
REMARK VINA RESULT:      -7.4      3.873      6.984
REMARK  Name = 
REMARK  4 active torsions:
REMARK  status: ('A' for Active; 'I' for Inactive)
REMARK    1  A    between atoms: C_2  and  C_19
REMARK    2  A    between atoms: N_3  and  C_4
REMARK    3  A    between atoms: C_8  and  C_9
REMARK    4  A    between atoms: C_23  and  C_24
REMARK                            x       y       z     vdW  Elec       q    Type
REMARK                         _______ _______ _______ _____ _____    ______ ____
ROOT
ATOM      1  C   UNL     1       1.323   9.965  18.246  0.00  0.00    +0.000 A 
ATOM      2  C   UNL     1       2.150  11.076  18.430  0.00  0.00    +0.000 A 
ATOM      3  C   UNL     1       1.608  12.338  18.649  0.00  0.00    +0.000 A 
ATOM      4  C   UNL     1       0.228  12.501  18.701  0.00  0.00    +0.000 A 
ATOM      5  C   UNL     1      -0.626  11.408  18.510  0.00  0.00    +0.000 A 
ATOM      6  C   UNL     1      -0.070  10.143  18.254  0.00  0.00    +0.000 A 
ENDROOT
BRANCH   5   7
ATOM      7  C   UNL     1      -2.067  11.583  18.594  0.00  0.00    +0.000 A 
ATOM      8  C   UNL     1      -2.976  11.164  17.647  0.00  0.00    +0.000 A 
ATOM      9  N   UNL     1      -4.196  11.509  18.150  0.00  0.00    +0.000 N 
ATOM     10  C   UNL     1      -4.006  12.133  19.345  0.00  0.00    +0.000 A 
ATOM     11  N   UNL     1      -2.719  12.208  19.631  0.00  0.00    +0.000 NA
ATOM     12  C   UNL     1      -5.121  12.632  20.178  0.00  0.00    +0.000 C 
ATOM     13  C   UNL     1      -6.519  12.455  19.593  0.00  0.00    +0.000 C 
ATOM     14  C   UNL     1      -6.694  11.753  18.247  0.00  0.00    +0.000 C 
ATOM     15  C   UNL     1      -5.458  11.247  17.515  0.00  0.00    +0.000 C 
ENDBRANCH   5   7
BRANCH   1  18
ATOM     16  O   UNL     1       1.983   7.982  20.278  0.00  0.00    +0.000 OA
ATOM     17  C   UNL     1       2.100   7.748  19.079  0.00  0.00    +0.000 C 
ATOM     18  N   UNL     1       1.832   8.658  18.070  0.00  0.00    +0.000 N 
ATOM     19  H   UNL     1       1.964   8.349  17.120  0.00  0.00    +0.000 HD
BRANCH  17  20
ATOM     20  C   UNL     1       2.573   6.422  18.658  0.00  0.00    +0.000 A 
ATOM     21  C   UNL     1       1.950   5.213  19.123  0.00  0.00    +0.000 A 
ATOM     22  C   UNL     1       2.585   4.141  18.551  0.00  0.00    +0.000 A 
ATOM     23  N   UNL     1       3.576   4.636  17.753  0.00  0.00    +0.000 N 
ATOM     24  C   UNL     1       3.572   6.013  17.779  0.00  0.00    +0.000 A 
ATOM     25  H   UNL     1       4.185   4.071  17.178  0.00  0.00    +0.000 HD
BRANCH  24  26
ATOM     26  C   UNL     1       4.503   6.868  16.924  0.00  0.00    +0.000 C 
ATOM     27  C   UNL     1       5.387   6.219  15.883  0.00  0.00    +0.000 C 
ATOM     28  C   UNL     1       5.994   6.704  17.154  0.00  0.00    +0.000 C 
ENDBRANCH  24  26
ENDBRANCH  17  20
ENDBRANCH   1  18
TORSDOF 4
ENDMDL
