MODEL 1
REMARK VINA RESULT:      -8.6      0.000      0.000
REMARK  Name = 
REMARK  3 active torsions:
REMARK  status: ('A' for Active; 'I' for Inactive)
REMARK    1  A    between atoms: S_2  and  N_4
REMARK    2  A    between atoms: S_2  and  C_14
REMARK    3  A    between atoms: N_4  and  C_5
REMARK                            x       y       z     vdW  Elec       q    Type
REMARK                         _______ _______ _______ _____ _____    ______ ____
ROOT
ATOM      1  O   UNL     1       3.351   3.538  17.303  0.00  0.00    +0.000 OA
ATOM      2  S   UNL     1       3.642   3.262  18.690  0.00  0.00    +0.000 S 
ATOM      3  O   UNL     1       3.125   2.113  19.402  0.00  0.00    +0.000 OA
ENDROOT
BRANCH   2   4
ATOM      4  C   UNL     1       2.943   4.602  19.532  0.00  0.00    +0.000 A 
ATOM      5  C   UNL     1       2.423   4.590  20.817  0.00  0.00    +0.000 A 
ATOM      6  N   UNL     1       1.965   5.856  21.086  0.00  0.00    +0.000 N 
ATOM      7  C   UNL     1       2.177   6.668  20.006  0.00  0.00    +0.000 A 
ATOM      8  N   UNL     1       1.829   7.966  19.964  0.00  0.00    +0.000 NA
ATOM      9  C   UNL     1       2.142   8.559  18.790  0.00  0.00    +0.000 A 
ATOM     10  C   UNL     1       2.760   7.939  17.712  0.00  0.00    +0.000 A 
ATOM     11  C   UNL     1       3.101   6.588  17.809  0.00  0.00    +0.000 A 
ATOM     12  C   UNL     1       2.795   5.919  19.008  0.00  0.00    +0.000 A 
ATOM     13  H   UNL     1       1.531   6.175  21.940  0.00  0.00    +0.000 HD
ENDBRANCH   2   4
BRANCH   2  14
ATOM     14  N   UNL     1       5.328   3.319  18.946  0.00  0.00    +0.000 N 
ATOM     15  H   UNL     1       5.702   2.419  18.643  0.00  0.00    +0.000 HD
BRANCH  14  16
ATOM     16  C   UNL     1       5.988   4.396  18.262  0.00  0.00    +0.000 A 
ATOM     17  C   UNL     1       6.491   5.488  18.979  0.00  0.00    +0.000 A 
ATOM     18  C   UNL     1       7.145   6.534  18.327  0.00  0.00    +0.000 A 
ATOM     19  C   UNL     1       7.324   6.510  16.940  0.00  0.00    +0.000 A 
ATOM     20  C   UNL     1       6.849   5.408  16.202  0.00  0.00    +0.000 A 
ATOM     21  C   UNL     1       6.864   5.067  14.821  0.00  0.00    +0.000 A 
ATOM     22  C   UNL     1       6.244   3.846  14.686  0.00  0.00    +0.000 A 
ATOM     23  N   UNL     1       5.867   3.426  15.935  0.00  0.00    +0.000 N 
ATOM     24  C   UNL     1       6.207   4.369  16.879  0.00  0.00    +0.000 A 
ATOM     25  H   UNL     1       5.414   2.549  16.152  0.00  0.00    +0.000 HD
ENDBRANCH  14  16
ENDBRANCH   2  14
TORSDOF 3
ENDMDL
MODEL 2
REMARK VINA RESULT:      -8.1      2.218      5.935
REMARK  Name = 
REMARK  3 active torsions:
REMARK  status: ('A' for Active; 'I' for Inactive)
REMARK    1  A    between atoms: S_2  and  N_4
REMARK    2  A    between atoms: S_2  and  C_14
REMARK    3  A    between atoms: N_4  and  C_5
REMARK                            x       y       z     vdW  Elec       q    Type
REMARK                         _______ _______ _______ _____ _____    ______ ____
ROOT
ATOM      1  O   UNL     1       6.887   5.193  20.303  0.00  0.00    +0.000 OA
ATOM      2  S   UNL     1       5.915   4.836  19.296  0.00  0.00    +0.000 S 
ATOM      3  O   UNL     1       5.563   3.469  18.974  0.00  0.00    +0.000 OA
ENDROOT
BRANCH   2   4
ATOM      4  C   UNL     1       6.608   5.428  17.825  0.00  0.00    +0.000 A 
ATOM      5  C   UNL     1       7.422   6.540  17.685  0.00  0.00    +0.000 A 
ATOM      6  N   UNL     1       7.737   6.653  16.354  0.00  0.00    +0.000 N 
ATOM      7  C   UNL     1       7.143   5.645  15.647  0.00  0.00    +0.000 A 
ATOM      8  N   UNL     1       7.261   5.492  14.316  0.00  0.00    +0.000 NA
ATOM      9  C   UNL     1       6.582   4.421  13.846  0.00  0.00    +0.000 A 
ATOM     10  C   UNL     1       5.831   3.540  14.613  0.00  0.00    +0.000 A 
ATOM     11  C   UNL     1       5.743   3.746  15.992  0.00  0.00    +0.000 A 
ATOM     12  C   UNL     1       6.427   4.849  16.536  0.00  0.00    +0.000 A 
ATOM     13  H   UNL     1       8.317   7.361  15.926  0.00  0.00    +0.000 HD
ENDBRANCH   2   4
BRANCH   2  14
ATOM     14  N   UNL     1       4.467   5.697  19.563  0.00  0.00    +0.000 N 
ATOM     15  H   UNL     1       4.545   6.572  19.043  0.00  0.00    +0.000 HD
BRANCH  14  16
ATOM     16  C   UNL     1       3.282   4.985  19.175  0.00  0.00    +0.000 A 
ATOM     17  C   UNL     1       2.808   5.060  17.859  0.00  0.00    +0.000 A 
ATOM     18  C   UNL     1       1.666   4.361  17.467  0.00  0.00    +0.000 A 
ATOM     19  C   UNL     1       0.971   3.559  18.378  0.00  0.00    +0.000 A 
ATOM     20  C   UNL     1       1.445   3.448  19.700  0.00  0.00    +0.000 A 
ATOM     21  C   UNL     1       0.999   2.739  20.850  0.00  0.00    +0.000 A 
ATOM     22  C   UNL     1       1.875   3.013  21.876  0.00  0.00    +0.000 A 
ATOM     23  N   UNL     1       2.844   3.851  21.387  0.00  0.00    +0.000 N 
ATOM     24  C   UNL     1       2.596   4.149  20.066  0.00  0.00    +0.000 A 
ATOM     25  H   UNL     1       3.639   4.201  21.904  0.00  0.00    +0.000 HD
ENDBRANCH  14  16
ENDBRANCH   2  14
TORSDOF 3
ENDMDL
MODEL 3
REMARK VINA RESULT:      -8.1      1.053      2.096
REMARK  Name = 
REMARK  3 active torsions:
REMARK  status: ('A' for Active; 'I' for Inactive)
REMARK    1  A    between atoms: S_2  and  N_4
REMARK    2  A    between atoms: S_2  and  C_14
REMARK    3  A    between atoms: N_4  and  C_5
REMARK                            x       y       z     vdW  Elec       q    Type
REMARK                         _______ _______ _______ _____ _____    ______ ____
ROOT
ATOM      1  O   UNL     1       2.289   3.362  17.006  0.00  0.00    +0.000 OA
ATOM      2  S   UNL     1       2.871   2.917  18.251  0.00  0.00    +0.000 S 
ATOM      3  O   UNL     1       2.401   1.762  18.985  0.00  0.00    +0.000 OA
ENDROOT
BRANCH   2   4
ATOM      4  C   UNL     1       2.573   4.230  19.337  0.00  0.00    +0.000 A 
ATOM      5  C   UNL     1       2.408   4.145  20.710  0.00  0.00    +0.000 A 
ATOM      6  N   UNL     1       2.183   5.416  21.176  0.00  0.00    +0.000 N 
ATOM      7  C   UNL     1       2.198   6.304  20.136  0.00  0.00    +0.000 A 
ATOM      8  N   UNL     1       2.001   7.627  20.276  0.00  0.00    +0.000 NA
ATOM      9  C   UNL     1       2.062   8.296  19.103  0.00  0.00    +0.000 A 
ATOM     10  C   UNL     1       2.302   7.727  17.859  0.00  0.00    +0.000 A 
ATOM     11  C   UNL     1       2.501   6.347  17.771  0.00  0.00    +0.000 A 
ATOM     12  C   UNL     1       2.444   5.598  18.961  0.00  0.00    +0.000 A 
ATOM     13  H   UNL     1       2.027   5.692  22.136  0.00  0.00    +0.000 HD
ENDBRANCH   2   4
BRANCH   2  14
ATOM     14  N   UNL     1       4.562   2.770  18.076  0.00  0.00    +0.000 N 
ATOM     15  H   UNL     1       4.730   1.905  17.561  0.00  0.00    +0.000 HD
BRANCH  14  16
ATOM     16  C   UNL     1       5.180   3.882  17.408  0.00  0.00    +0.000 A 
ATOM     17  C   UNL     1       4.846   4.189  16.084  0.00  0.00    +0.000 A 
ATOM     18  C   UNL     1       5.429   5.274  15.429  0.00  0.00    +0.000 A 
ATOM     19  C   UNL     1       6.356   6.090  16.086  0.00  0.00    +0.000 A 
ATOM     20  C   UNL     1       6.687   5.816  17.428  0.00  0.00    +0.000 A 
ATOM     21  C   UNL     1       7.561   6.424  18.371  0.00  0.00    +0.000 A 
ATOM     22  C   UNL     1       7.470   5.712  19.545  0.00  0.00    +0.000 A 
ATOM     23  N   UNL     1       6.562   4.703  19.354  0.00  0.00    +0.000 N 
ATOM     24  C   UNL     1       6.082   4.730  18.064  0.00  0.00    +0.000 A 
ATOM     25  H   UNL     1       6.267   4.033  20.052  0.00  0.00    +0.000 HD
ENDBRANCH  14  16
ENDBRANCH   2  14
TORSDOF 3
ENDMDL
MODEL 4
REMARK VINA RESULT:      -8.0      2.848      6.000
REMARK  Name = 
REMARK  3 active torsions:
REMARK  status: ('A' for Active; 'I' for Inactive)
REMARK    1  A    between atoms: S_2  and  N_4
REMARK    2  A    between atoms: S_2  and  C_14
REMARK    3  A    between atoms: N_4  and  C_5
REMARK                            x       y       z     vdW  Elec       q    Type
REMARK                         _______ _______ _______ _____ _____    ______ ____
ROOT
ATOM      1  O   UNL     1       4.476   5.841  19.124  0.00  0.00    +0.000 OA
ATOM      2  S   UNL     1       5.647   4.997  19.114  0.00  0.00    +0.000 S 
ATOM      3  O   UNL     1       6.650   5.010  20.157  0.00  0.00    +0.000 OA
ENDROOT
BRANCH   2   4
ATOM      4  C   UNL     1       6.519   5.518  17.714  0.00  0.00    +0.000 A 
ATOM      5  C   UNL     1       7.418   6.571  17.645  0.00  0.00    +0.000 A 
ATOM      6  N   UNL     1       7.867   6.642  16.350  0.00  0.00    +0.000 N 
ATOM      7  C   UNL     1       7.276   5.667  15.596  0.00  0.00    +0.000 A 
ATOM      8  N   UNL     1       7.511   5.486  14.284  0.00  0.00    +0.000 NA
ATOM      9  C   UNL     1       6.809   4.457  13.759  0.00  0.00    +0.000 A 
ATOM     10  C   UNL     1       5.928   3.640  14.456  0.00  0.00    +0.000 A 
ATOM     11  C   UNL     1       5.721   3.872  15.818  0.00  0.00    +0.000 A 
ATOM     12  C   UNL     1       6.424   4.934  16.418  0.00  0.00    +0.000 A 
ATOM     13  H   UNL     1       8.534   7.303  15.975  0.00  0.00    +0.000 HD
ENDBRANCH   2   4
BRANCH   2  14
ATOM     14  N   UNL     1       5.185   3.375  18.856  0.00  0.00    +0.000 N 
ATOM     15  H   UNL     1       5.577   2.832  19.625  0.00  0.00    +0.000 HD
BRANCH  14  16
ATOM     16  C   UNL     1       3.765   3.177  18.771  0.00  0.00    +0.000 A 
ATOM     17  C   UNL     1       3.133   3.099  17.525  0.00  0.00    +0.000 A 
ATOM     18  C   UNL     1       1.756   2.894  17.430  0.00  0.00    +0.000 A 
ATOM     19  C   UNL     1       0.975   2.751  18.581  0.00  0.00    +0.000 A 
ATOM     20  C   UNL     1       1.593   2.800  19.845  0.00  0.00    +0.000 A 
ATOM     21  C   UNL     1       1.116   2.691  21.180  0.00  0.00    +0.000 A 
ATOM     22  C   UNL     1       2.197   2.816  22.023  0.00  0.00    +0.000 A 
ATOM     23  N   UNL     1       3.315   2.983  21.248  0.00  0.00    +0.000 N 
ATOM     24  C   UNL     1       2.974   2.995  19.913  0.00  0.00    +0.000 A 
ATOM     25  H   UNL     1       4.263   3.073  21.588  0.00  0.00    +0.000 HD
ENDBRANCH  14  16
ENDBRANCH   2  14
TORSDOF 3
ENDMDL
MODEL 5
REMARK VINA RESULT:      -7.9      2.421      5.511
REMARK  Name = 
REMARK  3 active torsions:
REMARK  status: ('A' for Active; 'I' for Inactive)
REMARK    1  A    between atoms: S_2  and  N_4
REMARK    2  A    between atoms: S_2  and  C_14
REMARK    3  A    between atoms: N_4  and  C_5
REMARK                            x       y       z     vdW  Elec       q    Type
REMARK                         _______ _______ _______ _____ _____    ______ ____
ROOT
ATOM      1  O   UNL     1       3.274   7.794  17.349  0.00  0.00    +0.000 OA
ATOM      2  S   UNL     1       3.159   6.746  18.336  0.00  0.00    +0.000 S 
ATOM      3  O   UNL     1       2.997   6.997  19.752  0.00  0.00    +0.000 OA
ENDROOT
BRANCH   2   4
ATOM      4  C   UNL     1       4.679   5.926  18.246  0.00  0.00    +0.000 A 
ATOM      5  C   UNL     1       5.451   5.497  19.313  0.00  0.00    +0.000 A 
ATOM      6  N   UNL     1       6.577   4.907  18.795  0.00  0.00    +0.000 N 
ATOM      7  C   UNL     1       6.541   4.953  17.429  0.00  0.00    +0.000 A 
ATOM      8  N   UNL     1       7.509   4.460  16.636  0.00  0.00    +0.000 NA
ATOM      9  C   UNL     1       7.246   4.623  15.320  0.00  0.00    +0.000 A 
ATOM     10  C   UNL     1       6.113   5.227  14.790  0.00  0.00    +0.000 A 
ATOM     11  C   UNL     1       5.139   5.722  15.660  0.00  0.00    +0.000 A 
ATOM     12  C   UNL     1       5.361   5.583  17.042  0.00  0.00    +0.000 A 
ATOM     13  H   UNL     1       7.338   4.491  19.314  0.00  0.00    +0.000 HD
ENDBRANCH   2   4
BRANCH   2  14
ATOM     14  N   UNL     1       1.950   5.639  17.862  0.00  0.00    +0.000 N 
ATOM     15  H   UNL     1       1.840   5.740  16.852  0.00  0.00    +0.000 HD
BRANCH  14  16
ATOM     16  C   UNL     1       2.239   4.275  18.205  0.00  0.00    +0.000 A 
ATOM     17  C   UNL     1       2.611   3.358  17.214  0.00  0.00    +0.000 A 
ATOM     18  C   UNL     1       2.907   2.034  17.537  0.00  0.00    +0.000 A 
ATOM     19  C   UNL     1       2.848   1.592  18.862  0.00  0.00    +0.000 A 
ATOM     20  C   UNL     1       2.501   2.503  19.879  0.00  0.00    +0.000 A 
ATOM     21  C   UNL     1       2.354   2.397  21.289  0.00  0.00    +0.000 A 
ATOM     22  C   UNL     1       1.995   3.636  21.768  0.00  0.00    +0.000 A 
ATOM     23  N   UNL     1       1.934   4.495  20.701  0.00  0.00    +0.000 N 
ATOM     24  C   UNL     1       2.220   3.826  19.532  0.00  0.00    +0.000 A 
ATOM     25  H   UNL     1       1.723   5.482  20.748  0.00  0.00    +0.000 HD
ENDBRANCH  14  16
ENDBRANCH   2  14
TORSDOF 3
ENDMDL
MODEL 6
REMARK VINA RESULT:      -7.4      1.743      6.105
REMARK  Name = 
REMARK  3 active torsions:
REMARK  status: ('A' for Active; 'I' for Inactive)
REMARK    1  A    between atoms: S_2  and  N_4
REMARK    2  A    between atoms: S_2  and  C_14
REMARK    3  A    between atoms: N_4  and  C_5
REMARK                            x       y       z     vdW  Elec       q    Type
REMARK                         _______ _______ _______ _____ _____    ______ ____
ROOT
ATOM      1  O   UNL     1       4.709   2.326  16.677  0.00  0.00    +0.000 OA
ATOM      2  S   UNL     1       4.615   3.684  17.160  0.00  0.00    +0.000 S 
ATOM      3  O   UNL     1       3.461   4.530  16.946  0.00  0.00    +0.000 OA
ENDROOT
BRANCH   2   4
ATOM      4  C   UNL     1       5.879   4.510  16.315  0.00  0.00    +0.000 A 
ATOM      5  C   UNL     1       6.761   5.435  16.850  0.00  0.00    +0.000 A 
ATOM      6  N   UNL     1       7.588   5.847  15.835  0.00  0.00    +0.000 N 
ATOM      7  C   UNL     1       7.252   5.211  14.672  0.00  0.00    +0.000 A 
ATOM      8  N   UNL     1       7.879   5.412  13.499  0.00  0.00    +0.000 NA
ATOM      9  C   UNL     1       7.366   4.667  12.493  0.00  0.00    +0.000 A 
ATOM     10  C   UNL     1       6.308   3.775  12.606  0.00  0.00    +0.000 A 
ATOM     11  C   UNL     1       5.693   3.605  13.848  0.00  0.00    +0.000 A 
ATOM     12  C   UNL     1       6.183   4.357  14.932  0.00  0.00    +0.000 A 
ATOM     13  H   UNL     1       8.342   6.517  15.900  0.00  0.00    +0.000 HD
ENDBRANCH   2   4
BRANCH   2  14
ATOM     14  N   UNL     1       4.994   3.730  18.823  0.00  0.00    +0.000 N 
ATOM     15  H   UNL     1       5.546   4.574  18.975  0.00  0.00    +0.000 HD
BRANCH  14  16
ATOM     16  C   UNL     1       3.845   3.716  19.685  0.00  0.00    +0.000 A 
ATOM     17  C   UNL     1       3.465   2.539  20.341  0.00  0.00    +0.000 A 
ATOM     18  C   UNL     1       2.359   2.517  21.191  0.00  0.00    +0.000 A 
ATOM     19  C   UNL     1       1.609   3.675  21.418  0.00  0.00    +0.000 A 
ATOM     20  C   UNL     1       1.989   4.877  20.789  0.00  0.00    +0.000 A 
ATOM     21  C   UNL     1       1.470   6.201  20.799  0.00  0.00    +0.000 A 
ATOM     22  C   UNL     1       2.269   6.970  19.984  0.00  0.00    +0.000 A 
ATOM     23  N   UNL     1       3.262   6.165  19.490  0.00  0.00    +0.000 N 
ATOM     24  C   UNL     1       3.106   4.876  19.951  0.00  0.00    +0.000 A 
ATOM     25  H   UNL     1       4.016   6.459  18.884  0.00  0.00    +0.000 HD
ENDBRANCH  14  16
ENDBRANCH   2  14
TORSDOF 3
ENDMDL
MODEL 7
REMARK VINA RESULT:      -7.4      1.558      5.904
REMARK  Name = 
REMARK  3 active torsions:
REMARK  status: ('A' for Active; 'I' for Inactive)
REMARK    1  A    between atoms: S_2  and  N_4
REMARK    2  A    between atoms: S_2  and  C_14
REMARK    3  A    between atoms: N_4  and  C_5
REMARK                            x       y       z     vdW  Elec       q    Type
REMARK                         _______ _______ _______ _____ _____    ______ ____
ROOT
ATOM      1  O   UNL     1       3.353   3.245  19.799  0.00  0.00    +0.000 OA
ATOM      2  S   UNL     1       3.342   4.501  19.087  0.00  0.00    +0.000 S 
ATOM      3  O   UNL     1       2.554   4.737  17.896  0.00  0.00    +0.000 OA
ENDROOT
BRANCH   2   4
ATOM      4  C   UNL     1       4.971   4.674  18.530  0.00  0.00    +0.000 A 
ATOM      5  C   UNL     1       6.084   4.949  19.307  0.00  0.00    +0.000 A 
ATOM      6  N   UNL     1       7.167   5.011  18.465  0.00  0.00    +0.000 N 
ATOM      7  C   UNL     1       6.769   4.786  17.176  0.00  0.00    +0.000 A 
ATOM      8  N   UNL     1       7.604   4.788  16.122  0.00  0.00    +0.000 NA
ATOM      9  C   UNL     1       6.976   4.539  14.951  0.00  0.00    +0.000 A 
ATOM     10  C   UNL     1       5.617   4.298  14.798  0.00  0.00    +0.000 A 
ATOM     11  C   UNL     1       4.795   4.307  15.927  0.00  0.00    +0.000 A 
ATOM     12  C   UNL     1       5.394   4.564  17.174  0.00  0.00    +0.000 A 
ATOM     13  H   UNL     1       8.126   5.194  18.723  0.00  0.00    +0.000 HD
ENDBRANCH   2   4
BRANCH   2  14
ATOM     14  N   UNL     1       3.035   5.777  20.177  0.00  0.00    +0.000 N 
ATOM     15  H   UNL     1       3.905   5.949  20.681  0.00  0.00    +0.000 HD
BRANCH  14  16
ATOM     16  C   UNL     1       2.569   6.983  19.550  0.00  0.00    +0.000 A 
ATOM     17  C   UNL     1       2.881   7.253  18.212  0.00  0.00    +0.000 A 
ATOM     18  C   UNL     1       2.423   8.413  17.588  0.00  0.00    +0.000 A 
ATOM     19  C   UNL     1       1.630   9.332  18.284  0.00  0.00    +0.000 A 
ATOM     20  C   UNL     1       1.281   9.068  19.623  0.00  0.00    +0.000 A 
ATOM     21  C   UNL     1       0.511   9.763  20.596  0.00  0.00    +0.000 A 
ATOM     22  C   UNL     1       0.515   9.011  21.748  0.00  0.00    +0.000 A 
ATOM     23  N   UNL     1       1.247   7.877  21.506  0.00  0.00    +0.000 N 
ATOM     24  C   UNL     1       1.743   7.894  20.221  0.00  0.00    +0.000 A 
ATOM     25  H   UNL     1       1.401   7.122  22.160  0.00  0.00    +0.000 HD
ENDBRANCH  14  16
ENDBRANCH   2  14
TORSDOF 3
ENDMDL
MODEL 8
REMARK VINA RESULT:      -7.3      2.332      4.811
REMARK  Name = 
REMARK  3 active torsions:
REMARK  status: ('A' for Active; 'I' for Inactive)
REMARK    1  A    between atoms: S_2  and  N_4
REMARK    2  A    between atoms: S_2  and  C_14
REMARK    3  A    between atoms: N_4  and  C_5
REMARK                            x       y       z     vdW  Elec       q    Type
REMARK                         _______ _______ _______ _____ _____    ______ ____
ROOT
ATOM      1  O   UNL     1       5.760   4.822  20.000  0.00  0.00    +0.000 OA
ATOM      2  S   UNL     1       5.880   4.480  18.602  0.00  0.00    +0.000 S 
ATOM      3  O   UNL     1       7.148   4.377  17.911  0.00  0.00    +0.000 OA
ENDROOT
BRANCH   2   4
ATOM      4  C   UNL     1       5.086   5.784  17.788  0.00  0.00    +0.000 A 
ATOM      5  C   UNL     1       5.412   6.303  16.545  0.00  0.00    +0.000 A 
ATOM      6  N   UNL     1       4.538   7.329  16.287  0.00  0.00    +0.000 N 
ATOM      7  C   UNL     1       3.670   7.478  17.334  0.00  0.00    +0.000 A 
ATOM      8  N   UNL     1       2.699   8.407  17.377  0.00  0.00    +0.000 NA
ATOM      9  C   UNL     1       1.970   8.355  18.515  0.00  0.00    +0.000 A 
ATOM     10  C   UNL     1       2.161   7.458  19.557  0.00  0.00    +0.000 A 
ATOM     11  C   UNL     1       3.184   6.512  19.460  0.00  0.00    +0.000 A 
ATOM     12  C   UNL     1       3.978   6.521  18.298  0.00  0.00    +0.000 A 
ATOM     13  H   UNL     1       4.510   7.909  15.460  0.00  0.00    +0.000 HD
ENDBRANCH   2   4
BRANCH   2  14
ATOM     14  N   UNL     1       4.994   3.059  18.279  0.00  0.00    +0.000 N 
ATOM     15  H   UNL     1       5.343   2.343  18.916  0.00  0.00    +0.000 HD
BRANCH  14  16
ATOM     16  C   UNL     1       3.573   3.210  18.422  0.00  0.00    +0.000 A 
ATOM     17  C   UNL     1       2.777   3.521  17.312  0.00  0.00    +0.000 A 
ATOM     18  C   UNL     1       1.395   3.658  17.436  0.00  0.00    +0.000 A 
ATOM     19  C   UNL     1       0.767   3.477  18.672  0.00  0.00    +0.000 A 
ATOM     20  C   UNL     1       1.544   3.138  19.797  0.00  0.00    +0.000 A 
ATOM     21  C   UNL     1       1.242   2.884  21.164  0.00  0.00    +0.000 A 
ATOM     22  C   UNL     1       2.423   2.595  21.807  0.00  0.00    +0.000 A 
ATOM     23  N   UNL     1       3.430   2.648  20.879  0.00  0.00    +0.000 N 
ATOM     24  C   UNL     1       2.925   2.996  19.645  0.00  0.00    +0.000 A 
ATOM     25  H   UNL     1       4.406   2.452  21.053  0.00  0.00    +0.000 HD
ENDBRANCH  14  16
ENDBRANCH   2  14
TORSDOF 3
ENDMDL
MODEL 9
REMARK VINA RESULT:      -7.3      2.177      6.187
REMARK  Name = 
REMARK  3 active torsions:
REMARK  status: ('A' for Active; 'I' for Inactive)
REMARK    1  A    between atoms: S_2  and  N_4
REMARK    2  A    between atoms: S_2  and  C_14
REMARK    3  A    between atoms: N_4  and  C_5
REMARK                            x       y       z     vdW  Elec       q    Type
REMARK                         _______ _______ _______ _____ _____    ______ ____
ROOT
ATOM      1  O   UNL     1       5.712   4.452  18.546  0.00  0.00    +0.000 OA
ATOM      2  S   UNL     1       5.023   4.228  17.297  0.00  0.00    +0.000 S 
ATOM      3  O   UNL     1       4.603   2.921  16.840  0.00  0.00    +0.000 OA
ENDROOT
BRANCH   2   4
ATOM      4  C   UNL     1       6.169   4.722  16.099  0.00  0.00    +0.000 A 
ATOM      5  C   UNL     1       7.252   5.564  16.290  0.00  0.00    +0.000 A 
ATOM      6  N   UNL     1       7.888   5.697  15.081  0.00  0.00    +0.000 N 
ATOM      7  C   UNL     1       7.235   4.965  14.129  0.00  0.00    +0.000 A 
ATOM      8  N   UNL     1       7.616   4.900  12.840  0.00  0.00    +0.000 NA
ATOM      9  C   UNL     1       6.813   4.112  12.091  0.00  0.00    +0.000 A 
ATOM     10  C   UNL     1       5.702   3.419  12.554  0.00  0.00    +0.000 A 
ATOM     11  C   UNL     1       5.350   3.521  13.902  0.00  0.00    +0.000 A 
ATOM     12  C   UNL     1       6.150   4.332  14.729  0.00  0.00    +0.000 A 
ATOM     13  H   UNL     1       8.714   6.245  14.887  0.00  0.00    +0.000 HD
ENDBRANCH   2   4
BRANCH   2  14
ATOM     14  N   UNL     1       3.680   5.275  17.185  0.00  0.00    +0.000 N 
ATOM     15  H   UNL     1       3.102   4.930  16.418  0.00  0.00    +0.000 HD
BRANCH  14  16
ATOM     16  C   UNL     1       2.910   5.370  18.394  0.00  0.00    +0.000 A 
ATOM     17  C   UNL     1       2.876   6.567  19.120  0.00  0.00    +0.000 A 
ATOM     18  C   UNL     1       2.121   6.676  20.288  0.00  0.00    +0.000 A 
ATOM     19  C   UNL     1       1.370   5.592  20.757  0.00  0.00    +0.000 A 
ATOM     20  C   UNL     1       1.369   4.387  20.027  0.00  0.00    +0.000 A 
ATOM     21  C   UNL     1       0.734   3.127  20.208  0.00  0.00    +0.000 A 
ATOM     22  C   UNL     1       1.106   2.317  19.159  0.00  0.00    +0.000 A 
ATOM     23  N   UNL     1       1.931   3.044  18.340  0.00  0.00    +0.000 N 
ATOM     24  C   UNL     1       2.124   4.307  18.856  0.00  0.00    +0.000 A 
ATOM     25  H   UNL     1       2.338   2.721  17.473  0.00  0.00    +0.000 HD
ENDBRANCH  14  16
ENDBRANCH   2  14
TORSDOF 3
ENDMDL
