MODEL 1
REMARK VINA RESULT:      -8.6      0.000      0.000
REMARK  Name = 
REMARK  5 active torsions:
REMARK  status: ('A' for Active; 'I' for Inactive)
REMARK    1  A    between atoms: C_1  and  S_2
REMARK    2  A    between atoms: S_2  and  C_5
REMARK    3  A    between atoms: C_9  and  C_10
REMARK    4  A    between atoms: N_12  and  C_13
REMARK    5  A    between atoms: C_17  and  C_18
REMARK                            x       y       z     vdW  Elec       q    Type
REMARK                         _______ _______ _______ _____ _____    ______ ____
ROOT
ATOM      1  C   UNL     1       1.527  10.173  18.043  0.00  0.00    +0.000 A 
ATOM      2  C   UNL     1       2.299  11.318  18.228  0.00  0.00    +0.000 A 
ATOM      3  C   UNL     1       1.710  12.525  18.611  0.00  0.00    +0.000 A 
ATOM      4  C   UNL     1       0.330  12.613  18.785  0.00  0.00    +0.000 A 
ATOM      5  C   UNL     1      -0.486  11.504  18.533  0.00  0.00    +0.000 A 
ATOM      6  C   UNL     1       0.132  10.281  18.176  0.00  0.00    +0.000 A 
ENDROOT
BRANCH   5   7
ATOM      7  C   UNL     1      -1.947  11.645  18.628  0.00  0.00    +0.000 A 
ATOM      8  N   UNL     1      -2.653  12.141  19.634  0.00  0.00    +0.000 NA
ATOM      9  C   UNL     1      -3.979  12.040  19.261  0.00  0.00    +0.000 A 
ATOM     10  C   UNL     1      -5.157  12.385  19.944  0.00  0.00    +0.000 A 
ATOM     11  C   UNL     1      -6.394  12.128  19.328  0.00  0.00    +0.000 A 
ATOM     12  C   UNL     1      -6.458  11.557  18.055  0.00  0.00    +0.000 A 
ATOM     13  C   UNL     1      -5.296  11.240  17.347  0.00  0.00    +0.000 A 
ATOM     14  C   UNL     1      -4.084  11.494  17.991  0.00  0.00    +0.000 A 
ATOM     15  N   UNL     1      -2.788  11.309  17.594  0.00  0.00    +0.000 N 
ATOM     16  H   UNL     1      -2.497  10.993  16.687  0.00  0.00    +0.000 HD
ENDBRANCH   5   7
BRANCH   1  19
ATOM     17  C   UNL     1       2.319   7.868  18.619  0.00  0.00    +0.000 C 
ATOM     18  O   UNL     1       2.062   7.885  19.820  0.00  0.00    +0.000 OA
ATOM     19  N   UNL     1       2.086   8.906  17.721  0.00  0.00    +0.000 N 
ATOM     20  H   UNL     1       2.304   8.757  16.747  0.00  0.00    +0.000 HD
BRANCH  17  25
ATOM     21  C   UNL     1       4.706   5.346  17.034  0.00  0.00    +0.000 A 
ATOM     22  C   UNL     1       3.955   4.171  17.122  0.00  0.00    +0.000 A 
ATOM     23  C   UNL     1       2.672   4.222  17.665  0.00  0.00    +0.000 A 
ATOM     24  C   UNL     1       2.167   5.434  18.137  0.00  0.00    +0.000 A 
ATOM     25  C   UNL     1       2.933   6.614  18.082  0.00  0.00    +0.000 A 
ATOM     26  C   UNL     1       4.204   6.569  17.505  0.00  0.00    +0.000 A 
BRANCH  21  28
ATOM     27  C   UNL     1       6.241   4.508  14.841  0.00  0.00    +0.000 C 
ATOM     28  S   UNL     1       6.378   5.276  16.432  0.00  0.00    +0.000 S 
ATOM     29  O   UNL     1       7.118   4.386  17.306  0.00  0.00    +0.000 OA
ATOM     30  O   UNL     1       6.807   6.649  16.234  0.00  0.00    +0.000 OA
ENDBRANCH  21  28
ENDBRANCH  17  25
ENDBRANCH   1  19
TORSDOF 4
ENDMDL
MODEL 2
REMARK VINA RESULT:      -8.6      7.383      9.277
REMARK  Name = 
REMARK  5 active torsions:
REMARK  status: ('A' for Active; 'I' for Inactive)
REMARK    1  A    between atoms: C_1  and  S_2
REMARK    2  A    between atoms: S_2  and  C_5
REMARK    3  A    between atoms: C_9  and  C_10
REMARK    4  A    between atoms: N_12  and  C_13
REMARK    5  A    between atoms: C_17  and  C_18
REMARK                            x       y       z     vdW  Elec       q    Type
REMARK                         _______ _______ _______ _____ _____    ______ ____
ROOT
ATOM      1  C   UNL     1       6.849   6.668  16.746  0.00  0.00    +0.000 A 
ATOM      2  C   UNL     1       7.450   5.858  15.785  0.00  0.00    +0.000 A 
ATOM      3  C   UNL     1       6.934   4.595  15.488  0.00  0.00    +0.000 A 
ATOM      4  C   UNL     1       5.823   4.107  16.175  0.00  0.00    +0.000 A 
ATOM      5  C   UNL     1       5.240   4.860  17.201  0.00  0.00    +0.000 A 
ATOM      6  C   UNL     1       5.758   6.151  17.466  0.00  0.00    +0.000 A 
ENDROOT
BRANCH   5   7
ATOM      7  C   UNL     1       4.130   4.287  17.977  0.00  0.00    +0.000 A 
ATOM      8  N   UNL     1       3.036   3.697  17.519  0.00  0.00    +0.000 NA
ATOM      9  C   UNL     1       2.291   3.349  18.628  0.00  0.00    +0.000 A 
ATOM     10  C   UNL     1       1.037   2.726  18.738  0.00  0.00    +0.000 A 
ATOM     11  C   UNL     1       0.492   2.529  20.018  0.00  0.00    +0.000 A 
ATOM     12  C   UNL     1       1.184   2.927  21.164  0.00  0.00    +0.000 A 
ATOM     13  C   UNL     1       2.448   3.516  21.075  0.00  0.00    +0.000 A 
ATOM     14  C   UNL     1       2.957   3.710  19.790  0.00  0.00    +0.000 A 
ATOM     15  N   UNL     1       4.136   4.246  19.351  0.00  0.00    +0.000 N 
ATOM     16  H   UNL     1       4.893   4.547  19.938  0.00  0.00    +0.000 HD
ENDBRANCH   5   7
BRANCH   1  19
ATOM     17  C   UNL     1       8.142   8.350  18.078  0.00  0.00    +0.000 C 
ATOM     18  O   UNL     1       8.647   7.583  18.894  0.00  0.00    +0.000 OA
ATOM     19  N   UNL     1       7.294   7.987  17.036  0.00  0.00    +0.000 N 
ATOM     20  H   UNL     1       6.974   8.707  16.404  0.00  0.00    +0.000 HD
BRANCH  17  25
ATOM     21  C   UNL     1       9.608  11.668  19.266  0.00  0.00    +0.000 A 
ATOM     22  C   UNL     1       9.021  12.560  18.365  0.00  0.00    +0.000 A 
ATOM     23  C   UNL     1       8.134  12.075  17.406  0.00  0.00    +0.000 A 
ATOM     24  C   UNL     1       7.864  10.707  17.340  0.00  0.00    +0.000 A 
ATOM     25  C   UNL     1       8.479   9.800  18.224  0.00  0.00    +0.000 A 
ATOM     26  C   UNL     1       9.340  10.292  19.208  0.00  0.00    +0.000 A 
BRANCH  21  28
ATOM     27  C   UNL     1      11.140  13.926  19.916  0.00  0.00    +0.000 C 
ATOM     28  S   UNL     1      10.813  12.262  20.432  0.00  0.00    +0.000 S 
ATOM     29  O   UNL     1      12.020  11.480  20.245  0.00  0.00    +0.000 OA
ATOM     30  O   UNL     1      10.153  12.312  21.724  0.00  0.00    +0.000 OA
ENDBRANCH  21  28
ENDBRANCH  17  25
ENDBRANCH   1  19
TORSDOF 4
ENDMDL
MODEL 3
REMARK VINA RESULT:      -8.5      1.955      2.586
REMARK  Name = 
REMARK  5 active torsions:
REMARK  status: ('A' for Active; 'I' for Inactive)
REMARK    1  A    between atoms: C_1  and  S_2
REMARK    2  A    between atoms: S_2  and  C_5
REMARK    3  A    between atoms: C_9  and  C_10
REMARK    4  A    between atoms: N_12  and  C_13
REMARK    5  A    between atoms: C_17  and  C_18
REMARK                            x       y       z     vdW  Elec       q    Type
REMARK                         _______ _______ _______ _____ _____    ______ ____
ROOT
ATOM      1  C   UNL     1       1.356  10.232  18.190  0.00  0.00    +0.000 A 
ATOM      2  C   UNL     1       2.146  11.368  18.352  0.00  0.00    +0.000 A 
ATOM      3  C   UNL     1       1.572  12.600  18.674  0.00  0.00    +0.000 A 
ATOM      4  C   UNL     1       0.190  12.721  18.808  0.00  0.00    +0.000 A 
ATOM      5  C   UNL     1      -0.642  11.619  18.576  0.00  0.00    +0.000 A 
ATOM      6  C   UNL     1      -0.040  10.372  18.281  0.00  0.00    +0.000 A 
ENDROOT
BRANCH   5   7
ATOM      7  C   UNL     1      -2.101  11.792  18.627  0.00  0.00    +0.000 A 
ATOM      8  N   UNL     1      -2.848  12.106  19.676  0.00  0.00    +0.000 NA
ATOM      9  C   UNL     1      -4.154  12.129  19.227  0.00  0.00    +0.000 A 
ATOM     10  C   UNL     1      -5.358  12.376  19.908  0.00  0.00    +0.000 A 
ATOM     11  C   UNL     1      -6.565  12.291  19.194  0.00  0.00    +0.000 A 
ATOM     12  C   UNL     1      -6.576  11.984  17.831  0.00  0.00    +0.000 A 
ATOM     13  C   UNL     1      -5.386  11.770  17.131  0.00  0.00    +0.000 A 
ATOM     14  C   UNL     1      -4.204  11.849  17.870  0.00  0.00    +0.000 A 
ATOM     15  N   UNL     1      -2.894  11.698  17.508  0.00  0.00    +0.000 N 
ATOM     16  H   UNL     1      -2.562  11.556  16.571  0.00  0.00    +0.000 HD
ENDBRANCH   5   7
BRANCH   1  19
ATOM     17  C   UNL     1       2.144   7.958  18.883  0.00  0.00    +0.000 C 
ATOM     18  O   UNL     1       1.916   8.048  20.087  0.00  0.00    +0.000 OA
ATOM     19  N   UNL     1       1.896   8.943  17.931  0.00  0.00    +0.000 N 
ATOM     20  H   UNL     1       2.090   8.734  16.963  0.00  0.00    +0.000 HD
BRANCH  17  25
ATOM     21  C   UNL     1       2.872   4.255  18.307  0.00  0.00    +0.000 A 
ATOM     22  C   UNL     1       3.947   4.327  17.417  0.00  0.00    +0.000 A 
ATOM     23  C   UNL     1       4.440   5.576  17.043  0.00  0.00    +0.000 A 
ATOM     24  C   UNL     1       3.838   6.735  17.537  0.00  0.00    +0.000 A 
ATOM     25  C   UNL     1       2.734   6.668  18.407  0.00  0.00    +0.000 A 
ATOM     26  C   UNL     1       2.265   5.416  18.810  0.00  0.00    +0.000 A 
BRANCH  21  28
ATOM     27  C   UNL     1       2.003   2.709  20.480  0.00  0.00    +0.000 C 
ATOM     28  S   UNL     1       2.176   2.671  18.716  0.00  0.00    +0.000 S 
ATOM     29  O   UNL     1       3.160   1.663  18.375  0.00  0.00    +0.000 OA
ATOM     30  O   UNL     1       0.846   2.639  18.134  0.00  0.00    +0.000 OA
ENDBRANCH  21  28
ENDBRANCH  17  25
ENDBRANCH   1  19
TORSDOF 4
ENDMDL
MODEL 4
REMARK VINA RESULT:      -8.5      1.946      2.735
REMARK  Name = 
REMARK  5 active torsions:
REMARK  status: ('A' for Active; 'I' for Inactive)
REMARK    1  A    between atoms: C_1  and  S_2
REMARK    2  A    between atoms: S_2  and  C_5
REMARK    3  A    between atoms: C_9  and  C_10
REMARK    4  A    between atoms: N_12  and  C_13
REMARK    5  A    between atoms: C_17  and  C_18
REMARK                            x       y       z     vdW  Elec       q    Type
REMARK                         _______ _______ _______ _____ _____    ______ ____
ROOT
ATOM      1  C   UNL     1       1.047  10.236  18.238  0.00  0.00    +0.000 A 
ATOM      2  C   UNL     1       1.765  11.409  18.463  0.00  0.00    +0.000 A 
ATOM      3  C   UNL     1       1.113  12.589  18.827  0.00  0.00    +0.000 A 
ATOM      4  C   UNL     1      -0.276  12.622  18.940  0.00  0.00    +0.000 A 
ATOM      5  C   UNL     1      -1.036  11.484  18.646  0.00  0.00    +0.000 A 
ATOM      6  C   UNL     1      -0.355  10.290  18.309  0.00  0.00    +0.000 A 
ENDROOT
BRANCH   5   7
ATOM      7  C   UNL     1      -2.504  11.568  18.677  0.00  0.00    +0.000 A 
ATOM      8  N   UNL     1      -3.377  10.805  18.036  0.00  0.00    +0.000 NA
ATOM      9  C   UNL     1      -4.628  11.287  18.368  0.00  0.00    +0.000 A 
ATOM     10  C   UNL     1      -5.910  10.881  17.961  0.00  0.00    +0.000 A 
ATOM     11  C   UNL     1      -7.025  11.593  18.435  0.00  0.00    +0.000 A 
ATOM     12  C   UNL     1      -6.871  12.673  19.308  0.00  0.00    +0.000 A 
ATOM     13  C   UNL     1      -5.606  13.068  19.750  0.00  0.00    +0.000 A 
ATOM     14  C   UNL     1      -4.518  12.350  19.252  0.00  0.00    +0.000 A 
ATOM     15  N   UNL     1      -3.173  12.467  19.473  0.00  0.00    +0.000 N 
ATOM     16  H   UNL     1      -2.743  13.100  20.124  0.00  0.00    +0.000 HD
ENDBRANCH   5   7
BRANCH   1  19
ATOM     17  C   UNL     1       2.057   8.030  18.860  0.00  0.00    +0.000 C 
ATOM     18  O   UNL     1       1.907   8.101  20.077  0.00  0.00    +0.000 OA
ATOM     19  N   UNL     1       1.668   8.994  17.934  0.00  0.00    +0.000 N 
ATOM     20  H   UNL     1       1.810   8.803  16.953  0.00  0.00    +0.000 HD
BRANCH  17  25
ATOM     21  C   UNL     1       2.959   4.395  18.123  0.00  0.00    +0.000 A 
ATOM     22  C   UNL     1       4.046   4.556  17.261  0.00  0.00    +0.000 A 
ATOM     23  C   UNL     1       4.490   5.841  16.957  0.00  0.00    +0.000 A 
ATOM     24  C   UNL     1       3.829   6.948  17.493  0.00  0.00    +0.000 A 
ATOM     25  C   UNL     1       2.713   6.792  18.336  0.00  0.00    +0.000 A 
ATOM     26  C   UNL     1       2.291   5.503  18.668  0.00  0.00    +0.000 A 
BRANCH  21  28
ATOM     27  C   UNL     1       2.530   2.546  20.189  0.00  0.00    +0.000 C 
ATOM     28  S   UNL     1       2.324   2.764  18.442  0.00  0.00    +0.000 S 
ATOM     29  O   UNL     1       3.188   1.822  17.758  0.00  0.00    +0.000 OA
ATOM     30  O   UNL     1       0.901   2.809  18.158  0.00  0.00    +0.000 OA
ENDBRANCH  21  28
ENDBRANCH  17  25
ENDBRANCH   1  19
TORSDOF 4
ENDMDL
MODEL 5
REMARK VINA RESULT:      -8.5      2.790      5.237
REMARK  Name = 
REMARK  5 active torsions:
REMARK  status: ('A' for Active; 'I' for Inactive)
REMARK    1  A    between atoms: C_1  and  S_2
REMARK    2  A    between atoms: S_2  and  C_5
REMARK    3  A    between atoms: C_9  and  C_10
REMARK    4  A    between atoms: N_12  and  C_13
REMARK    5  A    between atoms: C_17  and  C_18
REMARK                            x       y       z     vdW  Elec       q    Type
REMARK                         _______ _______ _______ _____ _____    ______ ____
ROOT
ATOM      1  C   UNL     1       1.475   9.582  18.040  0.00  0.00    +0.000 A 
ATOM      2  C   UNL     1       0.092   9.620  18.211  0.00  0.00    +0.000 A 
ATOM      3  C   UNL     1      -0.560  10.818  18.511  0.00  0.00    +0.000 A 
ATOM      4  C   UNL     1       0.167  11.995  18.677  0.00  0.00    +0.000 A 
ATOM      5  C   UNL     1       1.564  11.981  18.590  0.00  0.00    +0.000 A 
ATOM      6  C   UNL     1       2.205  10.764  18.254  0.00  0.00    +0.000 A 
ENDROOT
BRANCH   5   7
ATOM      7  C   UNL     1       2.318  13.214  18.864  0.00  0.00    +0.000 A 
ATOM      8  N   UNL     1       2.119  14.091  19.837  0.00  0.00    +0.000 NA
ATOM      9  C   UNL     1       3.063  15.082  19.663  0.00  0.00    +0.000 A 
ATOM     10  C   UNL     1       3.300  16.267  20.381  0.00  0.00    +0.000 A 
ATOM     11  C   UNL     1       4.322  17.126  19.945  0.00  0.00    +0.000 A 
ATOM     12  C   UNL     1       5.104  16.809  18.831  0.00  0.00    +0.000 A 
ATOM     13  C   UNL     1       4.905  15.619  18.126  0.00  0.00    +0.000 A 
ATOM     14  C   UNL     1       3.874  14.793  18.575  0.00  0.00    +0.000 A 
ATOM     15  N   UNL     1       3.418  13.583  18.128  0.00  0.00    +0.000 N 
ATOM     16  H   UNL     1       3.831  13.043  17.388  0.00  0.00    +0.000 HD
ENDBRANCH   5   7
BRANCH   1  19
ATOM     17  C   UNL     1       2.548   7.372  18.523  0.00  0.00    +0.000 C 
ATOM     18  O   UNL     1       2.310   7.315  19.726  0.00  0.00    +0.000 OA
ATOM     19  N   UNL     1       2.177   8.405  17.666  0.00  0.00    +0.000 N 
ATOM     20  H   UNL     1       2.397   8.317  16.685  0.00  0.00    +0.000 HD
BRANCH  17  25
ATOM     21  C   UNL     1       5.229   5.200  16.888  0.00  0.00    +0.000 A 
ATOM     22  C   UNL     1       4.591   3.957  16.864  0.00  0.00    +0.000 A 
ATOM     23  C   UNL     1       3.289   3.850  17.349  0.00  0.00    +0.000 A 
ATOM     24  C   UNL     1       2.651   4.974  17.876  0.00  0.00    +0.000 A 
ATOM     25  C   UNL     1       3.301   6.221  17.934  0.00  0.00    +0.000 A 
ATOM     26  C   UNL     1       4.592   6.335  17.414  0.00  0.00    +0.000 A 
BRANCH  21  28
ATOM     27  C   UNL     1       6.903   4.768  14.680  0.00  0.00    +0.000 C 
ATOM     28  S   UNL     1       6.923   5.329  16.361  0.00  0.00    +0.000 S 
ATOM     29  O   UNL     1       7.695   4.388  17.148  0.00  0.00    +0.000 OA
ATOM     30  O   UNL     1       7.252   6.743  16.360  0.00  0.00    +0.000 OA
ENDBRANCH  21  28
ENDBRANCH  17  25
ENDBRANCH   1  19
TORSDOF 4
ENDMDL
MODEL 6
REMARK VINA RESULT:      -8.4      0.575      1.209
REMARK  Name = 
REMARK  5 active torsions:
REMARK  status: ('A' for Active; 'I' for Inactive)
REMARK    1  A    between atoms: C_1  and  S_2
REMARK    2  A    between atoms: S_2  and  C_5
REMARK    3  A    between atoms: C_9  and  C_10
REMARK    4  A    between atoms: N_12  and  C_13
REMARK    5  A    between atoms: C_17  and  C_18
REMARK                            x       y       z     vdW  Elec       q    Type
REMARK                         _______ _______ _______ _____ _____    ______ ____
ROOT
ATOM      1  C   UNL     1       1.237  10.143  18.150  0.00  0.00    +0.000 A 
ATOM      2  C   UNL     1       1.980  11.307  18.340  0.00  0.00    +0.000 A 
ATOM      3  C   UNL     1       1.355  12.507  18.688  0.00  0.00    +0.000 A 
ATOM      4  C   UNL     1      -0.031  12.569  18.819  0.00  0.00    +0.000 A 
ATOM      5  C   UNL     1      -0.817  11.439  18.560  0.00  0.00    +0.000 A 
ATOM      6  C   UNL     1      -0.164  10.225  18.240  0.00  0.00    +0.000 A 
ENDROOT
BRANCH   5   7
ATOM      7  C   UNL     1      -2.282  11.552  18.610  0.00  0.00    +0.000 A 
ATOM      8  N   UNL     1      -3.175  10.901  17.878  0.00  0.00    +0.000 NA
ATOM      9  C   UNL     1      -4.413  11.363  18.278  0.00  0.00    +0.000 A 
ATOM     10  C   UNL     1      -5.705  11.045  17.827  0.00  0.00    +0.000 A 
ATOM     11  C   UNL     1      -6.802  11.713  18.398  0.00  0.00    +0.000 A 
ATOM     12  C   UNL     1      -6.621  12.663  19.406  0.00  0.00    +0.000 A 
ATOM     13  C   UNL     1      -5.346  12.966  19.890  0.00  0.00    +0.000 A 
ATOM     14  C   UNL     1      -4.276  12.296  19.294  0.00  0.00    +0.000 A 
ATOM     15  N   UNL     1      -2.929  12.352  19.522  0.00  0.00    +0.000 N 
ATOM     16  H   UNL     1      -2.483  12.881  20.250  0.00  0.00    +0.000 HD
ENDBRANCH   5   7
BRANCH   1  19
ATOM     17  C   UNL     1       2.147   7.902  18.800  0.00  0.00    +0.000 C 
ATOM     18  O   UNL     1       1.946   7.971  20.010  0.00  0.00    +0.000 OA
ATOM     19  N   UNL     1       1.829   8.883  17.865  0.00  0.00    +0.000 N 
ATOM     20  H   UNL     1       2.007   8.693  16.889  0.00  0.00    +0.000 HD
BRANCH  17  25
ATOM     21  C   UNL     1       4.460   5.410  17.065  0.00  0.00    +0.000 A 
ATOM     22  C   UNL     1       3.873   4.196  17.432  0.00  0.00    +0.000 A 
ATOM     23  C   UNL     1       2.716   4.206  18.210  0.00  0.00    +0.000 A 
ATOM     24  C   UNL     1       2.177   5.422  18.634  0.00  0.00    +0.000 A 
ATOM     25  C   UNL     1       2.784   6.646  18.296  0.00  0.00    +0.000 A 
ATOM     26  C   UNL     1       3.922   6.636  17.486  0.00  0.00    +0.000 A 
BRANCH  21  28
ATOM     27  C   UNL     1       6.084   3.777  15.465  0.00  0.00    +0.000 C 
ATOM     28  S   UNL     1       5.988   5.406  16.154  0.00  0.00    +0.000 S 
ATOM     29  O   UNL     1       7.064   5.562  17.112  0.00  0.00    +0.000 OA
ATOM     30  O   UNL     1       5.822   6.349  15.062  0.00  0.00    +0.000 OA
ENDBRANCH  21  28
ENDBRANCH  17  25
ENDBRANCH   1  19
TORSDOF 4
ENDMDL
MODEL 7
REMARK VINA RESULT:      -8.3      1.046      1.241
REMARK  Name = 
REMARK  5 active torsions:
REMARK  status: ('A' for Active; 'I' for Inactive)
REMARK    1  A    between atoms: C_1  and  S_2
REMARK    2  A    between atoms: S_2  and  C_5
REMARK    3  A    between atoms: C_9  and  C_10
REMARK    4  A    between atoms: N_12  and  C_13
REMARK    5  A    between atoms: C_17  and  C_18
REMARK                            x       y       z     vdW  Elec       q    Type
REMARK                         _______ _______ _______ _____ _____    ______ ____
ROOT
ATOM      1  C   UNL     1       1.137  10.515  18.405  0.00  0.00    +0.000 A 
ATOM      2  C   UNL     1       1.872  11.693  18.521  0.00  0.00    +0.000 A 
ATOM      3  C   UNL     1       1.240  12.906  18.806  0.00  0.00    +0.000 A 
ATOM      4  C   UNL     1      -0.145  12.964  18.950  0.00  0.00    +0.000 A 
ATOM      5  C   UNL     1      -0.923  11.815  18.763  0.00  0.00    +0.000 A 
ATOM      6  C   UNL     1      -0.263  10.590  18.505  0.00  0.00    +0.000 A 
ENDROOT
BRANCH   5   7
ATOM      7  C   UNL     1      -2.389  11.918  18.823  0.00  0.00    +0.000 A 
ATOM      8  N   UNL     1      -3.138  12.292  19.851  0.00  0.00    +0.000 NA
ATOM      9  C   UNL     1      -4.448  12.206  19.425  0.00  0.00    +0.000 A 
ATOM     10  C   UNL     1      -5.655  12.455  20.100  0.00  0.00    +0.000 A 
ATOM     11  C   UNL     1      -6.865  12.242  19.418  0.00  0.00    +0.000 A 
ATOM     12  C   UNL     1      -6.877  11.808  18.090  0.00  0.00    +0.000 A 
ATOM     13  C   UNL     1      -5.686  11.590  17.393  0.00  0.00    +0.000 A 
ATOM     14  C   UNL     1      -4.501  11.797  18.101  0.00  0.00    +0.000 A 
ATOM     15  N   UNL     1      -3.189  11.679  17.732  0.00  0.00    +0.000 N 
ATOM     16  H   UNL     1      -2.862  11.466  16.806  0.00  0.00    +0.000 HD
ENDBRANCH   5   7
BRANCH   1  19
ATOM     17  C   UNL     1       1.967   8.274  19.155  0.00  0.00    +0.000 C 
ATOM     18  O   UNL     1       1.669   8.360  20.343  0.00  0.00    +0.000 OA
ATOM     19  N   UNL     1       1.738   9.246  18.184  0.00  0.00    +0.000 N 
ATOM     20  H   UNL     1       1.993   9.041  17.229  0.00  0.00    +0.000 HD
BRANCH  17  25
ATOM     21  C   UNL     1       4.115   5.706  17.321  0.00  0.00    +0.000 A 
ATOM     22  C   UNL     1       3.804   4.541  18.026  0.00  0.00    +0.000 A 
ATOM     23  C   UNL     1       2.877   4.600  19.065  0.00  0.00    +0.000 A 
ATOM     24  C   UNL     1       2.295   5.823  19.406  0.00  0.00    +0.000 A 
ATOM     25  C   UNL     1       2.630   7.005  18.720  0.00  0.00    +0.000 A 
ATOM     26  C   UNL     1       3.532   6.938  17.655  0.00  0.00    +0.000 A 
BRANCH  21  28
ATOM     27  C   UNL     1       6.895   5.768  16.947  0.00  0.00    +0.000 C 
ATOM     28  S   UNL     1       5.366   5.660  16.057  0.00  0.00    +0.000 S 
ATOM     29  O   UNL     1       5.217   6.859  15.256  0.00  0.00    +0.000 OA
ATOM     30  O   UNL     1       5.292   4.344  15.447  0.00  0.00    +0.000 OA
ENDBRANCH  21  28
ENDBRANCH  17  25
ENDBRANCH   1  19
TORSDOF 4
ENDMDL
MODEL 8
REMARK VINA RESULT:      -8.3      2.167      2.934
REMARK  Name = 
REMARK  5 active torsions:
REMARK  status: ('A' for Active; 'I' for Inactive)
REMARK    1  A    between atoms: C_1  and  S_2
REMARK    2  A    between atoms: S_2  and  C_5
REMARK    3  A    between atoms: C_9  and  C_10
REMARK    4  A    between atoms: N_12  and  C_13
REMARK    5  A    between atoms: C_17  and  C_18
REMARK                            x       y       z     vdW  Elec       q    Type
REMARK                         _______ _______ _______ _____ _____    ______ ____
ROOT
ATOM      1  C   UNL     1       1.044  10.343  18.442  0.00  0.00    +0.000 A 
ATOM      2  C   UNL     1       1.773  11.529  18.506  0.00  0.00    +0.000 A 
ATOM      3  C   UNL     1       1.128  12.757  18.674  0.00  0.00    +0.000 A 
ATOM      4  C   UNL     1      -0.262  12.820  18.749  0.00  0.00    +0.000 A 
ATOM      5  C   UNL     1      -1.031  11.658  18.611  0.00  0.00    +0.000 A 
ATOM      6  C   UNL     1      -0.359  10.420  18.473  0.00  0.00    +0.000 A 
ENDROOT
BRANCH   5   7
ATOM      7  C   UNL     1      -2.498  11.760  18.596  0.00  0.00    +0.000 A 
ATOM      8  N   UNL     1      -3.339  11.274  17.695  0.00  0.00    +0.000 NA
ATOM      9  C   UNL     1      -4.603  11.646  18.106  0.00  0.00    +0.000 A 
ATOM     10  C   UNL     1      -5.863  11.428  17.524  0.00  0.00    +0.000 A 
ATOM     11  C   UNL     1      -6.999  11.967  18.153  0.00  0.00    +0.000 A 
ATOM     12  C   UNL     1      -6.887  12.690  19.343  0.00  0.00    +0.000 A 
ATOM     13  C   UNL     1      -5.646  12.886  19.954  0.00  0.00    +0.000 A 
ATOM     14  C   UNL     1      -4.536  12.351  19.299  0.00  0.00    +0.000 A 
ATOM     15  N   UNL     1      -3.205  12.357  19.612  0.00  0.00    +0.000 N 
ATOM     16  H   UNL     1      -2.807  12.726  20.458  0.00  0.00    +0.000 HD
ENDBRANCH   5   7
BRANCH   1  19
ATOM     17  C   UNL     1       1.878   8.182  19.397  0.00  0.00    +0.000 C 
ATOM     18  O   UNL     1       1.565   8.371  20.569  0.00  0.00    +0.000 OA
ATOM     19  N   UNL     1       1.655   9.063  18.342  0.00  0.00    +0.000 N 
ATOM     20  H   UNL     1       1.923   8.776  17.412  0.00  0.00    +0.000 HD
BRANCH  17  25
ATOM     21  C   UNL     1       3.099   4.568  19.514  0.00  0.00    +0.000 A 
ATOM     22  C   UNL     1       3.882   4.510  18.358  0.00  0.00    +0.000 A 
ATOM     23  C   UNL     1       4.028   5.654  17.576  0.00  0.00    +0.000 A 
ATOM     24  C   UNL     1       3.371   6.831  17.940  0.00  0.00    +0.000 A 
ATOM     25  C   UNL     1       2.554   6.885  19.084  0.00  0.00    +0.000 A 
ATOM     26  C   UNL     1       2.438   5.748  19.887  0.00  0.00    +0.000 A 
BRANCH  21  28
ATOM     27  C   UNL     1       1.636   2.174  19.528  0.00  0.00    +0.000 C 
ATOM     28  S   UNL     1       2.829   3.090  20.466  0.00  0.00    +0.000 S 
ATOM     29  O   UNL     1       2.217   3.487  21.719  0.00  0.00    +0.000 OA
ATOM     30  O   UNL     1       4.078   2.351  20.450  0.00  0.00    +0.000 OA
ENDBRANCH  21  28
ENDBRANCH  17  25
ENDBRANCH   1  19
TORSDOF 4
ENDMDL
MODEL 9
REMARK VINA RESULT:      -8.3      1.458      1.680
REMARK  Name = 
REMARK  5 active torsions:
REMARK  status: ('A' for Active; 'I' for Inactive)
REMARK    1  A    between atoms: C_1  and  S_2
REMARK    2  A    between atoms: S_2  and  C_5
REMARK    3  A    between atoms: C_9  and  C_10
REMARK    4  A    between atoms: N_12  and  C_13
REMARK    5  A    between atoms: C_17  and  C_18
REMARK                            x       y       z     vdW  Elec       q    Type
REMARK                         _______ _______ _______ _____ _____    ______ ____
ROOT
ATOM      1  C   UNL     1       0.728  10.576  19.140  0.00  0.00    +0.000 A 
ATOM      2  C   UNL     1       1.470  11.724  18.870  0.00  0.00    +0.000 A 
ATOM      3  C   UNL     1       0.848  12.970  18.762  0.00  0.00    +0.000 A 
ATOM      4  C   UNL     1      -0.535  13.082  18.892  0.00  0.00    +0.000 A 
ATOM      5  C   UNL     1      -1.322  11.940  19.086  0.00  0.00    +0.000 A 
ATOM      6  C   UNL     1      -0.670  10.691  19.224  0.00  0.00    +0.000 A 
ENDROOT
BRANCH   5   7
ATOM      7  C   UNL     1      -2.786  12.069  19.123  0.00  0.00    +0.000 A 
ATOM      8  N   UNL     1      -3.545  12.447  20.142  0.00  0.00    +0.000 NA
ATOM      9  C   UNL     1      -4.849  12.389  19.694  0.00  0.00    +0.000 A 
ATOM     10  C   UNL     1      -6.062  12.653  20.352  0.00  0.00    +0.000 A 
ATOM     11  C   UNL     1      -7.265  12.468  19.649  0.00  0.00    +0.000 A 
ATOM     12  C   UNL     1      -7.262  12.047  18.317  0.00  0.00    +0.000 A 
ATOM     13  C   UNL     1      -6.064  11.813  17.637  0.00  0.00    +0.000 A 
ATOM     14  C   UNL     1      -4.888  11.992  18.366  0.00  0.00    +0.000 A 
ATOM     15  N   UNL     1      -3.573  11.854  18.017  0.00  0.00    +0.000 N 
ATOM     16  H   UNL     1      -3.234  11.644  17.095  0.00  0.00    +0.000 HD
ENDBRANCH   5   7
BRANCH   1  19
ATOM     17  C   UNL     1       2.026   8.578  18.367  0.00  0.00    +0.000 C 
ATOM     18  O   UNL     1       2.257   8.948  17.219  0.00  0.00    +0.000 OA
ATOM     19  N   UNL     1       1.320   9.297  19.328  0.00  0.00    +0.000 N 
ATOM     20  H   UNL     1       1.230   8.903  20.253  0.00  0.00    +0.000 HD
BRANCH  17  25
ATOM     21  C   UNL     1       3.983   5.303  18.474  0.00  0.00    +0.000 A 
ATOM     22  C   UNL     1       3.467   4.717  19.633  0.00  0.00    +0.000 A 
ATOM     23  C   UNL     1       2.468   5.380  20.344  0.00  0.00    +0.000 A 
ATOM     24  C   UNL     1       2.018   6.627  19.907  0.00  0.00    +0.000 A 
ATOM     25  C   UNL     1       2.558   7.237  18.760  0.00  0.00    +0.000 A 
ATOM     26  C   UNL     1       3.533   6.555  18.027  0.00  0.00    +0.000 A 
BRANCH  21  28
ATOM     27  C   UNL     1       5.866   5.723  16.437  0.00  0.00    +0.000 C 
ATOM     28  S   UNL     1       5.323   4.512  17.612  0.00  0.00    +0.000 S 
ATOM     29  O   UNL     1       4.768   3.387  16.886  0.00  0.00    +0.000 OA
ATOM     30  O   UNL     1       6.385   4.318  18.583  0.00  0.00    +0.000 OA
ENDBRANCH  21  28
ENDBRANCH  17  25
ENDBRANCH   1  19
TORSDOF 4
ENDMDL
