MODEL 1
REMARK VINA RESULT:      -9.0      0.000      0.000
REMARK  Name = 
REMARK  8 active torsions:
REMARK  status: ('A' for Active; 'I' for Inactive)
REMARK    1  A    between atoms: C_1  and  N_2
REMARK    2  A    between atoms: N_2  and  N_3
REMARK    3  A    between atoms: C_7  and  O_8
REMARK    4  A    between atoms: O_8  and  C_9
REMARK    5  A    between atoms: C_13  and  N_14
REMARK    6  A    between atoms: C_19  and  C_20
REMARK    7  A    between atoms: C_20  and  C_21
REMARK    8  A    between atoms: C_25  and  C_26
REMARK                            x       y       z     vdW  Elec       q    Type
REMARK                         _______ _______ _______ _____ _____    ______ ____
ROOT
ATOM      1  N   UNL     1       4.055   4.513  19.133  0.00  0.00    +0.000 N 
ATOM      2  C   UNL     1       5.390   5.159  19.225  0.00  0.00    +0.000 C 
ATOM      3  C   UNL     1       5.897   5.057  17.816  0.00  0.00    +0.000 A 
ATOM      4  C   UNL     1       5.265   3.962  17.224  0.00  0.00    +0.000 A 
ATOM      5  C   UNL     1       5.368   3.670  15.874  0.00  0.00    +0.000 A 
ATOM      6  C   UNL     1       6.191   4.484  15.083  0.00  0.00    +0.000 A 
ATOM      7  C   UNL     1       6.830   5.599  15.677  0.00  0.00    +0.000 A 
ATOM      8  C   UNL     1       6.688   5.910  17.052  0.00  0.00    +0.000 A 
ATOM      9  C   UNL     1       4.218   3.487  18.162  0.00  0.00    +0.000 C 
ATOM     10  O   UNL     1       3.522   2.505  17.969  0.00  0.00    +0.000 OA
ENDROOT
BRANCH   1  15
ATOM     11  C   UNL     1       1.888   7.339  19.819  0.00  0.00    +0.000 A 
ATOM     12  C   UNL     1       2.503   8.205  18.901  0.00  0.00    +0.000 A 
ATOM     13  C   UNL     1       3.128   7.692  17.778  0.00  0.00    +0.000 A 
ATOM     14  C   UNL     1       3.279   6.323  17.661  0.00  0.00    +0.000 A 
ATOM     15  C   UNL     1       3.045   5.515  18.789  0.00  0.00    +0.000 A 
ATOM     16  C   UNL     1       2.182   5.982  19.785  0.00  0.00    +0.000 A 
BRANCH  11  17
ATOM     17  O   UNL     1       1.080   7.821  20.822  0.00  0.00    +0.000 OA
BRANCH  17  22
ATOM     18  N   UNL     1       0.170   9.934  20.126  0.00  0.00    +0.000 N 
ATOM     19  C   UNL     1       0.181  11.167  20.713  0.00  0.00    +0.000 A 
ATOM     20  N   UNL     1       0.931  11.154  21.790  0.00  0.00    +0.000 NA
ATOM     21  N   UNL     1       1.446   9.890  21.911  0.00  0.00    +0.000 NA
ATOM     22  C   UNL     1       0.946   9.147  20.939  0.00  0.00    +0.000 A 
BRANCH  18  24
ATOM     23  C   UNL     1      -1.585  10.611  18.580  0.00  0.00    +0.000 C 
ATOM     24  N   UNL     1      -0.561   9.632  18.912  0.00  0.00    +0.000 N 
ATOM     25  H   UNL     1       0.078   9.574  18.122  0.00  0.00    +0.000 HD
ENDBRANCH  18  24
ENDBRANCH  17  22
ENDBRANCH  11  17
ENDBRANCH   1  15
BRANCH   8  26
ATOM     26  C   UNL     1       7.322   7.163  17.600  0.00  0.00    +0.000 C 
ATOM     27  F   UNL     1       8.000   6.982  18.767  0.00  0.00    +0.000 F 
ATOM     28  F   UNL     1       8.222   7.708  16.736  0.00  0.00    +0.000 F 
ATOM     29  F   UNL     1       6.408   8.142  17.854  0.00  0.00    +0.000 F 
ENDBRANCH   8  26
BRANCH   6  30
ATOM     30  C   UNL     1       6.408   4.149  13.625  0.00  0.00    +0.000 C 
BRANCH  30  31
ATOM     31  C   UNL     1       5.335   3.288  13.017  0.00  0.00    +0.000 C 
ATOM     32  C   UNL     1       5.718   2.511  11.775  0.00  0.00    +0.000 C 
ATOM     33  C   UNL     1       4.695   3.603  11.684  0.00  0.00    +0.000 C 
ENDBRANCH  30  31
ENDBRANCH   6  30
TORSDOF 7
ENDMDL
MODEL 2
REMARK VINA RESULT:      -8.8      0.729      1.482
REMARK  Name = 
REMARK  8 active torsions:
REMARK  status: ('A' for Active; 'I' for Inactive)
REMARK    1  A    between atoms: C_1  and  N_2
REMARK    2  A    between atoms: N_2  and  N_3
REMARK    3  A    between atoms: C_7  and  O_8
REMARK    4  A    between atoms: O_8  and  C_9
REMARK    5  A    between atoms: C_13  and  N_14
REMARK    6  A    between atoms: C_19  and  C_20
REMARK    7  A    between atoms: C_20  and  C_21
REMARK    8  A    between atoms: C_25  and  C_26
REMARK                            x       y       z     vdW  Elec       q    Type
REMARK                         _______ _______ _______ _____ _____    ______ ____
ROOT
ATOM      1  N   UNL     1       4.059   4.537  19.111  0.00  0.00    +0.000 N 
ATOM      2  C   UNL     1       5.399   5.170  19.218  0.00  0.00    +0.000 C 
ATOM      3  C   UNL     1       5.922   5.060  17.815  0.00  0.00    +0.000 A 
ATOM      4  C   UNL     1       5.287   3.970  17.218  0.00  0.00    +0.000 A 
ATOM      5  C   UNL     1       5.404   3.674  15.870  0.00  0.00    +0.000 A 
ATOM      6  C   UNL     1       6.243   4.478  15.087  0.00  0.00    +0.000 A 
ATOM      7  C   UNL     1       6.886   5.588  15.687  0.00  0.00    +0.000 A 
ATOM      8  C   UNL     1       6.731   5.904  17.059  0.00  0.00    +0.000 A 
ATOM      9  C   UNL     1       4.225   3.507  18.144  0.00  0.00    +0.000 C 
ATOM     10  O   UNL     1       3.521   2.532  17.945  0.00  0.00    +0.000 OA
ENDROOT
BRANCH   1  15
ATOM     11  C   UNL     1       2.177   7.594  19.620  0.00  0.00    +0.000 A 
ATOM     12  C   UNL     1       2.689   8.256  18.492  0.00  0.00    +0.000 A 
ATOM     13  C   UNL     1       3.107   7.527  17.392  0.00  0.00    +0.000 A 
ATOM     14  C   UNL     1       3.165   6.149  17.485  0.00  0.00    +0.000 A 
ATOM     15  C   UNL     1       3.064   5.548  18.753  0.00  0.00    +0.000 A 
ATOM     16  C   UNL     1       2.390   6.230  19.770  0.00  0.00    +0.000 A 
BRANCH  11  17
ATOM     17  O   UNL     1       1.559   8.288  20.634  0.00  0.00    +0.000 OA
BRANCH  17  22
ATOM     18  N   UNL     1       0.091  10.109  21.192  0.00  0.00    +0.000 N 
ATOM     19  C   UNL     1      -0.490  11.076  20.424  0.00  0.00    +0.000 A 
ATOM     20  N   UNL     1      -0.257  10.853  19.152  0.00  0.00    +0.000 NA
ATOM     21  N   UNL     1       0.479   9.699  19.071  0.00  0.00    +0.000 NA
ATOM     22  C   UNL     1       0.730   9.284  20.300  0.00  0.00    +0.000 A 
BRANCH  18  24
ATOM     23  C   UNL     1      -1.186  10.720  23.172  0.00  0.00    +0.000 C 
ATOM     24  N   UNL     1       0.003  10.074  22.637  0.00  0.00    +0.000 N 
ATOM     25  H   UNL     1       0.006   9.111  22.967  0.00  0.00    +0.000 HD
ENDBRANCH  18  24
ENDBRANCH  17  22
ENDBRANCH  11  17
ENDBRANCH   1  15
BRANCH   8  26
ATOM     26  C   UNL     1       7.370   7.152  17.612  0.00  0.00    +0.000 C 
ATOM     27  F   UNL     1       6.485   8.126  17.960  0.00  0.00    +0.000 F 
ATOM     28  F   UNL     1       8.101   6.905  18.733  0.00  0.00    +0.000 F 
ATOM     29  F   UNL     1       8.228   7.734  16.726  0.00  0.00    +0.000 F 
ENDBRANCH   8  26
BRANCH   6  30
ATOM     30  C   UNL     1       6.475   4.137  13.633  0.00  0.00    +0.000 C 
BRANCH  30  31
ATOM     31  C   UNL     1       5.418   3.258  13.023  0.00  0.00    +0.000 C 
ATOM     32  C   UNL     1       5.791   2.549  11.738  0.00  0.00    +0.000 C 
ATOM     33  C   UNL     1       4.722   3.601  11.725  0.00  0.00    +0.000 C 
ENDBRANCH  30  31
ENDBRANCH   6  30
TORSDOF 7
ENDMDL
MODEL 3
REMARK VINA RESULT:      -8.7      1.210      2.043
REMARK  Name = 
REMARK  8 active torsions:
REMARK  status: ('A' for Active; 'I' for Inactive)
REMARK    1  A    between atoms: C_1  and  N_2
REMARK    2  A    between atoms: N_2  and  N_3
REMARK    3  A    between atoms: C_7  and  O_8
REMARK    4  A    between atoms: O_8  and  C_9
REMARK    5  A    between atoms: C_13  and  N_14
REMARK    6  A    between atoms: C_19  and  C_20
REMARK    7  A    between atoms: C_20  and  C_21
REMARK    8  A    between atoms: C_25  and  C_26
REMARK                            x       y       z     vdW  Elec       q    Type
REMARK                         _______ _______ _______ _____ _____    ______ ____
ROOT
ATOM      1  N   UNL     1       4.470   3.628  19.239  0.00  0.00    +0.000 N 
ATOM      2  C   UNL     1       5.704   4.456  19.231  0.00  0.00    +0.000 C 
ATOM      3  C   UNL     1       5.970   4.626  17.763  0.00  0.00    +0.000 A 
ATOM      4  C   UNL     1       5.395   3.537  17.106  0.00  0.00    +0.000 A 
ATOM      5  C   UNL     1       5.302   3.451  15.727  0.00  0.00    +0.000 A 
ATOM      6  C   UNL     1       5.862   4.483  14.961  0.00  0.00    +0.000 A 
ATOM      7  C   UNL     1       6.441   5.593  15.623  0.00  0.00    +0.000 A 
ATOM      8  C   UNL     1       6.499   5.688  17.035  0.00  0.00    +0.000 A 
ATOM      9  C   UNL     1       4.598   2.782  18.103  0.00  0.00    +0.000 C 
ATOM     10  O   UNL     1       4.014   1.739  17.863  0.00  0.00    +0.000 OA
ENDROOT
BRANCH   1  15
ATOM     11  C   UNL     1       2.675   6.677  18.444  0.00  0.00    +0.000 A 
ATOM     12  C   UNL     1       1.766   6.070  17.562  0.00  0.00    +0.000 A 
ATOM     13  C   UNL     1       1.423   4.740  17.728  0.00  0.00    +0.000 A 
ATOM     14  C   UNL     1       2.107   3.983  18.661  0.00  0.00    +0.000 A 
ATOM     15  C   UNL     1       3.293   4.498  19.215  0.00  0.00    +0.000 A 
ATOM     16  C   UNL     1       3.471   5.884  19.260  0.00  0.00    +0.000 A 
BRANCH  11  17
ATOM     17  O   UNL     1       2.871   8.038  18.440  0.00  0.00    +0.000 OA
BRANCH  17  22
ATOM     18  N   UNL     1       1.316   9.068  19.956  0.00  0.00    +0.000 N 
ATOM     19  C   UNL     1       0.388  10.054  19.777  0.00  0.00    +0.000 A 
ATOM     20  N   UNL     1       0.303  10.377  18.508  0.00  0.00    +0.000 NA
ATOM     21  N   UNL     1       1.179   9.573  17.825  0.00  0.00    +0.000 NA
ATOM     22  C   UNL     1       1.822   8.825  18.704  0.00  0.00    +0.000 A 
BRANCH  18  24
ATOM     23  C   UNL     1       0.794   8.980  22.333  0.00  0.00    +0.000 C 
ATOM     24  N   UNL     1       1.630   8.491  21.247  0.00  0.00    +0.000 N 
ATOM     25  H   UNL     1       1.531   7.478  21.213  0.00  0.00    +0.000 HD
ENDBRANCH  18  24
ENDBRANCH  17  22
ENDBRANCH  11  17
ENDBRANCH   1  15
BRANCH   8  26
ATOM     26  C   UNL     1       7.047   6.939  17.674  0.00  0.00    +0.000 C 
ATOM     27  F   UNL     1       6.108   7.890  17.937  0.00  0.00    +0.000 F 
ATOM     28  F   UNL     1       7.655   6.687  18.865  0.00  0.00    +0.000 F 
ATOM     29  F   UNL     1       7.984   7.553  16.898  0.00  0.00    +0.000 F 
ENDBRANCH   8  26
BRANCH   6  30
ATOM     30  C   UNL     1       5.868   4.387  13.453  0.00  0.00    +0.000 C 
BRANCH  30  31
ATOM     31  C   UNL     1       5.045   3.256  12.898  0.00  0.00    +0.000 C 
ATOM     32  C   UNL     1       5.648   2.491  11.738  0.00  0.00    +0.000 C 
ATOM     33  C   UNL     1       4.409   3.308  11.527  0.00  0.00    +0.000 C 
ENDBRANCH  30  31
ENDBRANCH   6  30
TORSDOF 7
ENDMDL
MODEL 4
REMARK VINA RESULT:      -8.3      1.252      1.640
REMARK  Name = 
REMARK  8 active torsions:
REMARK  status: ('A' for Active; 'I' for Inactive)
REMARK    1  A    between atoms: C_1  and  N_2
REMARK    2  A    between atoms: N_2  and  N_3
REMARK    3  A    between atoms: C_7  and  O_8
REMARK    4  A    between atoms: O_8  and  C_9
REMARK    5  A    between atoms: C_13  and  N_14
REMARK    6  A    between atoms: C_19  and  C_20
REMARK    7  A    between atoms: C_20  and  C_21
REMARK    8  A    between atoms: C_25  and  C_26
REMARK                            x       y       z     vdW  Elec       q    Type
REMARK                         _______ _______ _______ _____ _____    ______ ____
ROOT
ATOM      1  N   UNL     1       4.208   3.434  19.133  0.00  0.00    +0.000 N 
ATOM      2  C   UNL     1       5.449   4.251  19.152  0.00  0.00    +0.000 C 
ATOM      3  C   UNL     1       5.712   4.475  17.691  0.00  0.00    +0.000 A 
ATOM      4  C   UNL     1       5.125   3.417  16.995  0.00  0.00    +0.000 A 
ATOM      5  C   UNL     1       5.027   3.385  15.614  0.00  0.00    +0.000 A 
ATOM      6  C   UNL     1       5.594   4.441  14.886  0.00  0.00    +0.000 A 
ATOM      7  C   UNL     1       6.185   5.519  15.588  0.00  0.00    +0.000 A 
ATOM      8  C   UNL     1       6.248   5.560  17.002  0.00  0.00    +0.000 A 
ATOM      9  C   UNL     1       4.324   2.631  17.965  0.00  0.00    +0.000 C 
ATOM     10  O   UNL     1       3.730   1.603  17.687  0.00  0.00    +0.000 OA
ENDROOT
BRANCH   1  15
ATOM     11  C   UNL     1       2.530   6.643  18.930  0.00  0.00    +0.000 A 
ATOM     12  C   UNL     1       1.809   6.343  17.763  0.00  0.00    +0.000 A 
ATOM     13  C   UNL     1       1.467   5.032  17.478  0.00  0.00    +0.000 A 
ATOM     14  C   UNL     1       1.984   4.019  18.264  0.00  0.00    +0.000 A 
ATOM     15  C   UNL     1       3.038   4.315  19.146  0.00  0.00    +0.000 A 
ATOM     16  C   UNL     1       3.178   5.624  19.616  0.00  0.00    +0.000 A 
BRANCH  11  17
ATOM     17  O   UNL     1       2.698   7.941  19.350  0.00  0.00    +0.000 OA
BRANCH  17  22
ATOM     18  N   UNL     1       0.990   9.633  19.419  0.00  0.00    +0.000 N 
ATOM     19  C   UNL     1      -0.090   9.802  20.237  0.00  0.00    +0.000 A 
ATOM     20  N   UNL     1      -0.075   8.914  21.204  0.00  0.00    +0.000 NA
ATOM     21  N   UNL     1       1.051   8.150  21.037  0.00  0.00    +0.000 NA
ATOM     22  C   UNL     1       1.660   8.552  19.935  0.00  0.00    +0.000 A 
BRANCH  18  24
ATOM     23  C   UNL     1       1.525  11.860  18.594  0.00  0.00    +0.000 C 
ATOM     24  N   UNL     1       1.259  10.467  18.266  0.00  0.00    +0.000 N 
ATOM     25  H   UNL     1       2.063  10.111  17.754  0.00  0.00    +0.000 HD
ENDBRANCH  18  24
ENDBRANCH  17  22
ENDBRANCH  11  17
ENDBRANCH   1  15
BRANCH   8  26
ATOM     26  C   UNL     1       6.809   6.780  17.687  0.00  0.00    +0.000 C 
ATOM     27  F   UNL     1       7.771   7.428  16.974  0.00  0.00    +0.000 F 
ATOM     28  F   UNL     1       5.853   7.714  17.944  0.00  0.00    +0.000 F 
ATOM     29  F   UNL     1       7.379   6.487  18.890  0.00  0.00    +0.000 F 
ENDBRANCH   8  26
BRANCH   6  30
ATOM     30  C   UNL     1       5.594   4.402  13.375  0.00  0.00    +0.000 C 
BRANCH  30  31
ATOM     31  C   UNL     1       4.856   3.234  12.782  0.00  0.00    +0.000 C 
ATOM     32  C   UNL     1       5.544   2.511  11.643  0.00  0.00    +0.000 C 
ATOM     33  C   UNL     1       4.272   3.262  11.387  0.00  0.00    +0.000 C 
ENDBRANCH  30  31
ENDBRANCH   6  30
TORSDOF 7
ENDMDL
MODEL 5
REMARK VINA RESULT:      -8.3      0.766      1.570
REMARK  Name = 
REMARK  8 active torsions:
REMARK  status: ('A' for Active; 'I' for Inactive)
REMARK    1  A    between atoms: C_1  and  N_2
REMARK    2  A    between atoms: N_2  and  N_3
REMARK    3  A    between atoms: C_7  and  O_8
REMARK    4  A    between atoms: O_8  and  C_9
REMARK    5  A    between atoms: C_13  and  N_14
REMARK    6  A    between atoms: C_19  and  C_20
REMARK    7  A    between atoms: C_20  and  C_21
REMARK    8  A    between atoms: C_25  and  C_26
REMARK                            x       y       z     vdW  Elec       q    Type
REMARK                         _______ _______ _______ _____ _____    ______ ____
ROOT
ATOM      1  N   UNL     1       3.869   4.824  19.139  0.00  0.00    +0.000 N 
ATOM      2  C   UNL     1       5.227   5.414  19.264  0.00  0.00    +0.000 C 
ATOM      3  C   UNL     1       5.787   5.234  17.882  0.00  0.00    +0.000 A 
ATOM      4  C   UNL     1       5.130   4.146  17.305  0.00  0.00    +0.000 A 
ATOM      5  C   UNL     1       5.276   3.797  15.973  0.00  0.00    +0.000 A 
ATOM      6  C   UNL     1       6.167   4.542  15.188  0.00  0.00    +0.000 A 
ATOM      7  C   UNL     1       6.831   5.650  15.767  0.00  0.00    +0.000 A 
ATOM      8  C   UNL     1       6.647   6.021  17.122  0.00  0.00    +0.000 A 
ATOM      9  C   UNL     1       4.026   3.755  18.214  0.00  0.00    +0.000 C 
ATOM     10  O   UNL     1       3.294   2.798  18.029  0.00  0.00    +0.000 OA
ENDROOT
BRANCH   1  15
ATOM     11  C   UNL     1       2.093   7.968  19.474  0.00  0.00    +0.000 A 
ATOM     12  C   UNL     1       2.656   8.562  18.334  0.00  0.00    +0.000 A 
ATOM     13  C   UNL     1       3.072   7.773  17.276  0.00  0.00    +0.000 A 
ATOM     14  C   UNL     1       3.076   6.399  17.426  0.00  0.00    +0.000 A 
ATOM     15  C   UNL     1       2.922   5.856  18.714  0.00  0.00    +0.000 A 
ATOM     16  C   UNL     1       2.250   6.604  19.685  0.00  0.00    +0.000 A 
BRANCH  11  17
ATOM     17  O   UNL     1       1.478   8.726  20.443  0.00  0.00    +0.000 OA
BRANCH  17  22
ATOM     18  N   UNL     1       0.643  10.961  20.148  0.00  0.00    +0.000 N 
ATOM     19  C   UNL     1      -0.445  11.445  19.480  0.00  0.00    +0.000 A 
ATOM     20  N   UNL     1      -1.186  10.457  19.036  0.00  0.00    +0.000 NA
ATOM     21  N   UNL     1      -0.588   9.290  19.435  0.00  0.00    +0.000 NA
ATOM     22  C   UNL     1       0.537   9.596  20.058  0.00  0.00    +0.000 A 
BRANCH  18  24
ATOM     23  C   UNL     1       1.960  13.004  19.998  0.00  0.00    +0.000 C 
ATOM     24  N   UNL     1       1.645  11.807  20.764  0.00  0.00    +0.000 N 
ATOM     25  H   UNL     1       1.335  12.103  21.687  0.00  0.00    +0.000 HD
ENDBRANCH  18  24
ENDBRANCH  17  22
ENDBRANCH  11  17
ENDBRANCH   1  15
BRANCH   8  26
ATOM     26  C   UNL     1       7.315   7.265  17.649  0.00  0.00    +0.000 C 
ATOM     27  F   UNL     1       6.456   8.285  17.928  0.00  0.00    +0.000 F 
ATOM     28  F   UNL     1       7.997   7.037  18.804  0.00  0.00    +0.000 F 
ATOM     29  F   UNL     1       8.224   7.780  16.773  0.00  0.00    +0.000 F 
ENDBRANCH   8  26
BRANCH   6  30
ATOM     30  C   UNL     1       6.428   4.139  13.754  0.00  0.00    +0.000 C 
BRANCH  30  31
ATOM     31  C   UNL     1       5.341   3.308  13.132  0.00  0.00    +0.000 C 
ATOM     32  C   UNL     1       5.699   2.576  11.856  0.00  0.00    +0.000 C 
ATOM     33  C   UNL     1       4.682   3.676  11.822  0.00  0.00    +0.000 C 
ENDBRANCH  30  31
ENDBRANCH   6  30
TORSDOF 7
ENDMDL
MODEL 6
REMARK VINA RESULT:      -8.3      7.347     10.423
REMARK  Name = 
REMARK  8 active torsions:
REMARK  status: ('A' for Active; 'I' for Inactive)
REMARK    1  A    between atoms: C_1  and  N_2
REMARK    2  A    between atoms: N_2  and  N_3
REMARK    3  A    between atoms: C_7  and  O_8
REMARK    4  A    between atoms: O_8  and  C_9
REMARK    5  A    between atoms: C_13  and  N_14
REMARK    6  A    between atoms: C_19  and  C_20
REMARK    7  A    between atoms: C_20  and  C_21
REMARK    8  A    between atoms: C_25  and  C_26
REMARK                            x       y       z     vdW  Elec       q    Type
REMARK                         _______ _______ _______ _____ _____    ______ ____
ROOT
ATOM      1  N   UNL     1      -0.351  11.478  18.422  0.00  0.00    +0.000 N 
ATOM      2  C   UNL     1       0.403  10.684  19.426  0.00  0.00    +0.000 C 
ATOM      3  C   UNL     1      -0.069  11.271  20.724  0.00  0.00    +0.000 A 
ATOM      4  C   UNL     1      -0.473  12.582  20.466  0.00  0.00    +0.000 A 
ATOM      5  C   UNL     1      -1.121  13.371  21.402  0.00  0.00    +0.000 A 
ATOM      6  C   UNL     1      -1.328  12.840  22.683  0.00  0.00    +0.000 A 
ATOM      7  C   UNL     1      -0.925  11.509  22.949  0.00  0.00    +0.000 A 
ATOM      8  C   UNL     1      -0.295  10.699  21.972  0.00  0.00    +0.000 A 
ATOM      9  C   UNL     1      -0.456  12.775  18.995  0.00  0.00    +0.000 C 
ATOM     10  O   UNL     1      -0.702  13.833  18.442  0.00  0.00    +0.000 OA
ENDROOT
BRANCH   1  15
ATOM     11  C   UNL     1      -3.855  11.437  17.487  0.00  0.00    +0.000 A 
ATOM     12  C   UNL     1      -3.670  10.696  16.308  0.00  0.00    +0.000 A 
ATOM     13  C   UNL     1      -2.612   9.810  16.207  0.00  0.00    +0.000 A 
ATOM     14  C   UNL     1      -1.658   9.787  17.207  0.00  0.00    +0.000 A 
ATOM     15  C   UNL     1      -1.636  10.832  18.148  0.00  0.00    +0.000 A 
ATOM     16  C   UNL     1      -2.818  11.532  18.406  0.00  0.00    +0.000 A 
BRANCH  11  17
ATOM     17  O   UNL     1      -5.005  12.159  17.702  0.00  0.00    +0.000 OA
BRANCH  17  22
ATOM     18  N   UNL     1      -6.228  12.634  19.717  0.00  0.00    +0.000 N 
ATOM     19  C   UNL     1      -7.141  11.902  20.421  0.00  0.00    +0.000 A 
ATOM     20  N   UNL     1      -7.244  10.694  19.919  0.00  0.00    +0.000 NA
ATOM     21  N   UNL     1      -6.364  10.613  18.871  0.00  0.00    +0.000 NA
ATOM     22  C   UNL     1      -5.794  11.796  18.721  0.00  0.00    +0.000 A 
BRANCH  18  24
ATOM     23  C   UNL     1      -6.569  14.991  19.214  0.00  0.00    +0.000 C 
ATOM     24  N   UNL     1      -5.885  14.004  20.036  0.00  0.00    +0.000 N 
ATOM     25  H   UNL     1      -6.106  14.205  21.009  0.00  0.00    +0.000 HD
ENDBRANCH  18  24
ENDBRANCH  17  22
ENDBRANCH  11  17
ENDBRANCH   1  15
BRANCH   8  26
ATOM     26  C   UNL     1       0.025   9.261  22.294  0.00  0.00    +0.000 C 
ATOM     27  F   UNL     1      -0.134   8.933  23.606  0.00  0.00    +0.000 F 
ATOM     28  F   UNL     1      -0.759   8.389  21.603  0.00  0.00    +0.000 F 
ATOM     29  F   UNL     1       1.311   8.932  21.986  0.00  0.00    +0.000 F 
ENDBRANCH   8  26
BRANCH   6  30
ATOM     30  C   UNL     1      -1.946  13.697  23.764  0.00  0.00    +0.000 C 
BRANCH  30  31
ATOM     31  C   UNL     1      -3.443  13.813  23.687  0.00  0.00    +0.000 C 
ATOM     32  C   UNL     1      -4.238  12.866  24.561  0.00  0.00    +0.000 C 
ATOM     33  C   UNL     1      -4.313  12.742  23.069  0.00  0.00    +0.000 C 
ENDBRANCH  30  31
ENDBRANCH   6  30
TORSDOF 7
ENDMDL
MODEL 7
REMARK VINA RESULT:      -8.3      1.446      1.817
REMARK  Name = 
REMARK  8 active torsions:
REMARK  status: ('A' for Active; 'I' for Inactive)
REMARK    1  A    between atoms: C_1  and  N_2
REMARK    2  A    between atoms: N_2  and  N_3
REMARK    3  A    between atoms: C_7  and  O_8
REMARK    4  A    between atoms: O_8  and  C_9
REMARK    5  A    between atoms: C_13  and  N_14
REMARK    6  A    between atoms: C_19  and  C_20
REMARK    7  A    between atoms: C_20  and  C_21
REMARK    8  A    between atoms: C_25  and  C_26
REMARK                            x       y       z     vdW  Elec       q    Type
REMARK                         _______ _______ _______ _____ _____    ______ ____
ROOT
ATOM      1  N   UNL     1       4.535   3.993  19.294  0.00  0.00    +0.000 N 
ATOM      2  C   UNL     1       5.773   4.814  19.265  0.00  0.00    +0.000 C 
ATOM      3  C   UNL     1       6.053   4.925  17.794  0.00  0.00    +0.000 A 
ATOM      4  C   UNL     1       5.478   3.814  17.175  0.00  0.00    +0.000 A 
ATOM      5  C   UNL     1       5.398   3.673  15.800  0.00  0.00    +0.000 A 
ATOM      6  C   UNL     1       5.969   4.672  14.999  0.00  0.00    +0.000 A 
ATOM      7  C   UNL     1       6.548   5.804  15.621  0.00  0.00    +0.000 A 
ATOM      8  C   UNL     1       6.593   5.955  17.029  0.00  0.00    +0.000 A 
ATOM      9  C   UNL     1       4.669   3.102  18.194  0.00  0.00    +0.000 C 
ATOM     10  O   UNL     1       4.082   2.053  17.990  0.00  0.00    +0.000 OA
ENDROOT
BRANCH   1  15
ATOM     11  C   UNL     1       2.751   6.998  18.328  0.00  0.00    +0.000 A 
ATOM     12  C   UNL     1       1.833   6.345  17.490  0.00  0.00    +0.000 A 
ATOM     13  C   UNL     1       1.485   5.029  17.737  0.00  0.00    +0.000 A 
ATOM     14  C   UNL     1       2.170   4.326  18.710  0.00  0.00    +0.000 A 
ATOM     15  C   UNL     1       3.362   4.867  19.225  0.00  0.00    +0.000 A 
ATOM     16  C   UNL     1       3.547   6.252  19.186  0.00  0.00    +0.000 A 
BRANCH  11  17
ATOM     17  O   UNL     1       2.954   8.356  18.241  0.00  0.00    +0.000 OA
BRANCH  17  22
ATOM     18  N   UNL     1       1.804  10.461  18.404  0.00  0.00    +0.000 N 
ATOM     19  C   UNL     1       0.683  10.835  19.088  0.00  0.00    +0.000 A 
ATOM     20  N   UNL     1       0.271   9.856  19.860  0.00  0.00    +0.000 NA
ATOM     21  N   UNL     1       1.150   8.816  19.702  0.00  0.00    +0.000 NA
ATOM     22  C   UNL     1       2.039   9.165  18.788  0.00  0.00    +0.000 A 
BRANCH  18  24
ATOM     23  C   UNL     1       2.756  12.664  17.996  0.00  0.00    +0.000 C 
ATOM     24  N   UNL     1       2.502  11.328  17.478  0.00  0.00    +0.000 N 
ATOM     25  H   UNL     1       3.399  10.921  17.222  0.00  0.00    +0.000 HD
ENDBRANCH  18  24
ENDBRANCH  17  22
ENDBRANCH  11  17
ENDBRANCH   1  15
BRANCH   8  26
ATOM     26  C   UNL     1       7.141   7.228  17.623  0.00  0.00    +0.000 C 
ATOM     27  F   UNL     1       7.820   7.052  18.791  0.00  0.00    +0.000 F 
ATOM     28  F   UNL     1       8.012   7.855  16.786  0.00  0.00    +0.000 F 
ATOM     29  F   UNL     1       6.165   8.137  17.898  0.00  0.00    +0.000 F 
ENDBRANCH   8  26
BRANCH   6  30
ATOM     30  C   UNL     1       5.988   4.515  13.495  0.00  0.00    +0.000 C 
BRANCH  30  31
ATOM     31  C   UNL     1       5.175   3.360  12.979  0.00  0.00    +0.000 C 
ATOM     32  C   UNL     1       5.759   2.596  11.809  0.00  0.00    +0.000 C 
ATOM     33  C   UNL     1       4.495   3.381  11.629  0.00  0.00    +0.000 C 
ENDBRANCH  30  31
ENDBRANCH   6  30
TORSDOF 7
ENDMDL
MODEL 8
REMARK VINA RESULT:      -8.2      0.760      1.148
REMARK  Name = 
REMARK  8 active torsions:
REMARK  status: ('A' for Active; 'I' for Inactive)
REMARK    1  A    between atoms: C_1  and  N_2
REMARK    2  A    between atoms: N_2  and  N_3
REMARK    3  A    between atoms: C_7  and  O_8
REMARK    4  A    between atoms: O_8  and  C_9
REMARK    5  A    between atoms: C_13  and  N_14
REMARK    6  A    between atoms: C_19  and  C_20
REMARK    7  A    between atoms: C_20  and  C_21
REMARK    8  A    between atoms: C_25  and  C_26
REMARK                            x       y       z     vdW  Elec       q    Type
REMARK                         _______ _______ _______ _____ _____    ______ ____
ROOT
ATOM      1  N   UNL     1       3.957   4.753  19.488  0.00  0.00    +0.000 N 
ATOM      2  C   UNL     1       5.298   5.392  19.487  0.00  0.00    +0.000 C 
ATOM      3  C   UNL     1       5.789   5.112  18.096  0.00  0.00    +0.000 A 
ATOM      4  C   UNL     1       5.140   3.960  17.649  0.00  0.00    +0.000 A 
ATOM      5  C   UNL     1       5.226   3.504  16.344  0.00  0.00    +0.000 A 
ATOM      6  C   UNL     1       6.048   4.205  15.451  0.00  0.00    +0.000 A 
ATOM      7  C   UNL     1       6.704   5.378  15.898  0.00  0.00    +0.000 A 
ATOM      8  C   UNL     1       6.580   5.857  17.226  0.00  0.00    +0.000 A 
ATOM      9  C   UNL     1       4.100   3.614  18.648  0.00  0.00    +0.000 C 
ATOM     10  O   UNL     1       3.392   2.624  18.584  0.00  0.00    +0.000 OA
ENDROOT
BRANCH   1  15
ATOM     11  C   UNL     1       1.758   7.611  19.875  0.00  0.00    +0.000 A 
ATOM     12  C   UNL     1       2.395   8.402  18.906  0.00  0.00    +0.000 A 
ATOM     13  C   UNL     1       3.055   7.803  17.848  0.00  0.00    +0.000 A 
ATOM     14  C   UNL     1       3.216   6.430  17.850  0.00  0.00    +0.000 A 
ATOM     15  C   UNL     1       2.953   5.717  19.034  0.00  0.00    +0.000 A 
ATOM     16  C   UNL     1       2.059   6.258  19.962  0.00  0.00    +0.000 A 
BRANCH  11  17
ATOM     17  O   UNL     1       0.919   8.168  20.812  0.00  0.00    +0.000 OA
BRANCH  17  22
ATOM     18  N   UNL     1       0.025  10.278  20.083  0.00  0.00    +0.000 N 
ATOM     19  C   UNL     1       0.127  11.537  20.602  0.00  0.00    +0.000 A 
ATOM     20  N   UNL     1       0.963  11.549  21.613  0.00  0.00    +0.000 NA
ATOM     21  N   UNL     1       1.444  10.273  21.757  0.00  0.00    +0.000 NA
ATOM     22  C   UNL     1       0.840   9.503  20.870  0.00  0.00    +0.000 A 
BRANCH  18  24
ATOM     23  C   UNL     1      -1.814  10.956  18.638  0.00  0.00    +0.000 C 
ATOM     24  N   UNL     1      -0.814   9.945  18.950  0.00  0.00    +0.000 N 
ATOM     25  H   UNL     1      -0.244   9.807  18.118  0.00  0.00    +0.000 HD
ENDBRANCH  18  24
ENDBRANCH  17  22
ENDBRANCH  11  17
ENDBRANCH   1  15
BRANCH   8  26
ATOM     26  C   UNL     1       7.232   7.161  17.609  0.00  0.00    +0.000 C 
ATOM     27  F   UNL     1       8.089   7.654  16.673  0.00  0.00    +0.000 F 
ATOM     28  F   UNL     1       6.322   8.149  17.828  0.00  0.00    +0.000 F 
ATOM     29  F   UNL     1       7.960   7.062  18.757  0.00  0.00    +0.000 F 
ENDBRANCH   8  26
BRANCH   6  30
ATOM     30  C   UNL     1       6.246   3.691  14.044  0.00  0.00    +0.000 C 
BRANCH  30  31
ATOM     31  C   UNL     1       6.586   4.753  13.035  0.00  0.00    +0.000 C 
ATOM     32  C   UNL     1       7.277   4.285  11.771  0.00  0.00    +0.000 C 
ATOM     33  C   UNL     1       8.009   5.168  12.736  0.00  0.00    +0.000 C 
ENDBRANCH  30  31
ENDBRANCH   6  30
TORSDOF 7
ENDMDL
MODEL 9
REMARK VINA RESULT:      -8.2      7.450     10.440
REMARK  Name = 
REMARK  8 active torsions:
REMARK  status: ('A' for Active; 'I' for Inactive)
REMARK    1  A    between atoms: C_1  and  N_2
REMARK    2  A    between atoms: N_2  and  N_3
REMARK    3  A    between atoms: C_7  and  O_8
REMARK    4  A    between atoms: O_8  and  C_9
REMARK    5  A    between atoms: C_13  and  N_14
REMARK    6  A    between atoms: C_19  and  C_20
REMARK    7  A    between atoms: C_20  and  C_21
REMARK    8  A    between atoms: C_25  and  C_26
REMARK                            x       y       z     vdW  Elec       q    Type
REMARK                         _______ _______ _______ _____ _____    ______ ____
ROOT
ATOM      1  N   UNL     1      -0.568  11.514  18.385  0.00  0.00    +0.000 N 
ATOM      2  C   UNL     1       0.208  10.686  19.344  0.00  0.00    +0.000 C 
ATOM      3  C   UNL     1      -0.182  11.273  20.669  0.00  0.00    +0.000 A 
ATOM      4  C   UNL     1      -0.559  12.598  20.444  0.00  0.00    +0.000 A 
ATOM      5  C   UNL     1      -1.137  13.394  21.418  0.00  0.00    +0.000 A 
ATOM      6  C   UNL     1      -1.299  12.855  22.702  0.00  0.00    +0.000 A 
ATOM      7  C   UNL     1      -0.924  11.510  22.935  0.00  0.00    +0.000 A 
ATOM      8  C   UNL     1      -0.367  10.692  21.921  0.00  0.00    +0.000 A 
ATOM      9  C   UNL     1      -0.606  12.807  18.976  0.00  0.00    +0.000 C 
ATOM     10  O   UNL     1      -0.846  13.878  18.446  0.00  0.00    +0.000 OA
ENDROOT
BRANCH   1  15
ATOM     11  C   UNL     1      -4.048  11.541  17.364  0.00  0.00    +0.000 A 
ATOM     12  C   UNL     1      -3.884  10.633  16.306  0.00  0.00    +0.000 A 
ATOM     13  C   UNL     1      -2.879   9.682  16.359  0.00  0.00    +0.000 A 
ATOM     14  C   UNL     1      -1.949   9.746  17.380  0.00  0.00    +0.000 A 
ATOM     15  C   UNL     1      -1.884  10.911  18.167  0.00  0.00    +0.000 A 
ATOM     16  C   UNL     1      -3.027  11.706  18.291  0.00  0.00    +0.000 A 
BRANCH  11  17
ATOM     17  O   UNL     1      -5.157  12.350  17.444  0.00  0.00    +0.000 OA
BRANCH  17  22
ATOM     18  N   UNL     1      -6.546  11.408  19.165  0.00  0.00    +0.000 N 
ATOM     19  C   UNL     1      -6.856  11.841  20.423  0.00  0.00    +0.000 A 
ATOM     20  N   UNL     1      -6.367  13.042  20.626  0.00  0.00    +0.000 NA
ATOM     21  N   UNL     1      -5.736  13.424  19.471  0.00  0.00    +0.000 NA
ATOM     22  C   UNL     1      -5.801  12.420  18.615  0.00  0.00    +0.000 A 
BRANCH  18  24
ATOM     23  C   UNL     1      -7.081   9.082  19.649  0.00  0.00    +0.000 C 
ATOM     24  N   UNL     1      -6.955  10.122  18.639  0.00  0.00    +0.000 N 
ATOM     25  H   UNL     1      -7.853  10.205  18.167  0.00  0.00    +0.000 HD
ENDBRANCH  18  24
ENDBRANCH  17  22
ENDBRANCH  11  17
ENDBRANCH   1  15
BRANCH   8  26
ATOM     26  C   UNL     1      -0.075   9.242  22.212  0.00  0.00    +0.000 C 
ATOM     27  F   UNL     1       1.213   8.871  21.970  0.00  0.00    +0.000 F 
ATOM     28  F   UNL     1      -0.309   8.919  23.513  0.00  0.00    +0.000 F 
ATOM     29  F   UNL     1      -0.846   8.397  21.472  0.00  0.00    +0.000 F 
ENDBRANCH   8  26
BRANCH   6  30
ATOM     30  C   UNL     1      -1.838  13.717  23.821  0.00  0.00    +0.000 C 
BRANCH  30  31
ATOM     31  C   UNL     1      -3.339  13.802  23.873  0.00  0.00    +0.000 C 
ATOM     32  C   UNL     1      -4.043  12.758  24.713  0.00  0.00    +0.000 C 
ATOM     33  C   UNL     1      -4.237  12.771  23.227  0.00  0.00    +0.000 C 
ENDBRANCH  30  31
ENDBRANCH   6  30
TORSDOF 7
ENDMDL
