MODEL 1
REMARK VINA RESULT:      -8.5      0.000      0.000
REMARK  Name = 
REMARK  6 active torsions:
REMARK  status: ('A' for Active; 'I' for Inactive)
REMARK    1  A    between atoms: S_2  and  N_4
REMARK    2  A    between atoms: S_2  and  C_19
REMARK    3  A    between atoms: N_4  and  C_5
REMARK    4  A    between atoms: C_5  and  C_6
REMARK    5  A    between atoms: C_9  and  C_10
REMARK    6  A    between atoms: C_12  and  C_13
REMARK                            x       y       z     vdW  Elec       q    Type
REMARK                         _______ _______ _______ _____ _____    ______ ____
ROOT
ATOM      1  N   UNL     1       3.919   3.315  18.505  0.00  0.00    +0.000 NA
ATOM      2  H   UNL     1       3.656   4.056  17.844  0.00  0.00    +0.000 HD
ENDROOT
BRANCH   1   4
ATOM      3  O   UNL     1       1.760   2.029  18.918  0.00  0.00    +0.000 OA
ATOM      4  S   UNL     1       2.570   3.078  19.511  0.00  0.00    +0.000 S 
ATOM      5  O   UNL     1       3.113   2.954  20.839  0.00  0.00    +0.000 OA
BRANCH   4   6
ATOM      6  C   UNL     1       1.680   4.614  19.407  0.00  0.00    +0.000 C 
ATOM      7  C   UNL     1       2.192   5.420  18.199  0.00  0.00    +0.000 C 
ATOM      8  C   UNL     1       1.932   6.823  18.642  0.00  0.00    +0.000 A 
ATOM      9  C   UNL     1       1.942   7.969  17.865  0.00  0.00    +0.000 A 
ATOM     10  C   UNL     1       1.725   9.195  18.494  0.00  0.00    +0.000 A 
ATOM     11  C   UNL     1       1.518   9.258  19.881  0.00  0.00    +0.000 A 
ATOM     12  C   UNL     1       1.523   8.095  20.657  0.00  0.00    +0.000 A 
ATOM     13  C   UNL     1       1.726   6.880  20.024  0.00  0.00    +0.000 A 
ATOM     14  C   UNL     1       1.823   5.515  20.641  0.00  0.00    +0.000 C 
ENDBRANCH   4   6
ENDBRANCH   1   4
BRANCH   1  15
ATOM     15  C   UNL     1       5.137   3.706  19.296  0.00  0.00    +0.000 C 
BRANCH  15  16
ATOM     16  C   UNL     1       5.397   5.221  19.279  0.00  0.00    +0.000 C 
ATOM     17  C   UNL     1       6.830   5.562  19.651  0.00  0.00    +0.000 C 
ATOM     18  C   UNL     1       7.543   5.510  18.324  0.00  0.00    +0.000 C 
ATOM     19  C   UNL     1       6.498   6.067  17.373  0.00  0.00    +0.000 C 
ATOM     20  O   UNL     1       5.210   5.733  17.940  0.00  0.00    +0.000 OA
BRANCH  19  21
ATOM     21  C   UNL     1       6.603   5.470  16.018  0.00  0.00    +0.000 A 
ATOM     22  N   UNL     1       5.864   4.544  15.450  0.00  0.00    +0.000 NA
ATOM     23  C   UNL     1       6.532   4.327  14.272  0.00  0.00    +0.000 A 
ATOM     24  N   UNL     1       7.631   5.071  14.101  0.00  0.00    +0.000 NA
ATOM     25  O   UNL     1       7.684   5.837  15.268  0.00  0.00    +0.000 OA
BRANCH  23  26
ATOM     26  C   UNL     1       6.094   3.282  13.260  0.00  0.00    +0.000 C 
ATOM     27  C   UNL     1       6.256   3.571  11.784  0.00  0.00    +0.000 C 
ATOM     28  C   UNL     1       4.894   3.605  12.385  0.00  0.00    +0.000 C 
ENDBRANCH  23  26
ENDBRANCH  19  21
ENDBRANCH  15  16
ENDBRANCH   1  15
TORSDOF 6
ENDMDL
MODEL 2
REMARK VINA RESULT:      -8.3      1.107      1.726
REMARK  Name = 
REMARK  6 active torsions:
REMARK  status: ('A' for Active; 'I' for Inactive)
REMARK    1  A    between atoms: S_2  and  N_4
REMARK    2  A    between atoms: S_2  and  C_19
REMARK    3  A    between atoms: N_4  and  C_5
REMARK    4  A    between atoms: C_5  and  C_6
REMARK    5  A    between atoms: C_9  and  C_10
REMARK    6  A    between atoms: C_12  and  C_13
REMARK                            x       y       z     vdW  Elec       q    Type
REMARK                         _______ _______ _______ _____ _____    ______ ____
ROOT
ATOM      1  N   UNL     1       3.757   3.967  20.024  0.00  0.00    +0.000 NA
ATOM      2  H   UNL     1       3.516   3.000  20.272  0.00  0.00    +0.000 HD
ENDROOT
BRANCH   1   4
ATOM      3  O   UNL     1       2.330   4.305  17.942  0.00  0.00    +0.000 OA
ATOM      4  S   UNL     1       2.353   4.648  19.352  0.00  0.00    +0.000 S 
ATOM      5  O   UNL     1       1.288   4.259  20.242  0.00  0.00    +0.000 OA
BRANCH   4   6
ATOM      6  C   UNL     1       2.607   6.401  19.510  0.00  0.00    +0.000 C 
ATOM      7  C   UNL     1       1.565   6.982  20.483  0.00  0.00    +0.000 C 
ATOM      8  C   UNL     1       1.431   8.382  19.979  0.00  0.00    +0.000 A 
ATOM      9  C   UNL     1       0.835   9.455  20.619  0.00  0.00    +0.000 A 
ATOM     10  C   UNL     1       0.768  10.674  19.942  0.00  0.00    +0.000 A 
ATOM     11  C   UNL     1       1.281  10.794  18.641  0.00  0.00    +0.000 A 
ATOM     12  C   UNL     1       1.868   9.700  18.000  0.00  0.00    +0.000 A 
ATOM     13  C   UNL     1       1.943   8.497  18.684  0.00  0.00    +0.000 A 
ATOM     14  C   UNL     1       2.477   7.182  18.195  0.00  0.00    +0.000 C 
ENDBRANCH   4   6
ENDBRANCH   1   4
BRANCH   1  15
ATOM     15  C   UNL     1       4.908   4.004  19.056  0.00  0.00    +0.000 C 
BRANCH  15  16
ATOM     16  C   UNL     1       5.635   5.358  19.046  0.00  0.00    +0.000 C 
ATOM     17  C   UNL     1       7.112   5.220  19.374  0.00  0.00    +0.000 C 
ATOM     18  C   UNL     1       7.734   4.971  18.023  0.00  0.00    +0.000 C 
ATOM     19  C   UNL     1       6.893   5.848  17.113  0.00  0.00    +0.000 C 
ATOM     20  O   UNL     1       5.582   5.929  17.719  0.00  0.00    +0.000 OA
BRANCH  19  21
ATOM     21  C   UNL     1       6.766   5.276  15.750  0.00  0.00    +0.000 A 
ATOM     22  N   UNL     1       5.947   4.350  15.302  0.00  0.00    +0.000 NA
ATOM     23  C   UNL     1       6.402   4.161  14.022  0.00  0.00    +0.000 A 
ATOM     24  N   UNL     1       7.446   4.921  13.675  0.00  0.00    +0.000 NA
ATOM     25  O   UNL     1       7.695   5.668  14.829  0.00  0.00    +0.000 OA
BRANCH  23  26
ATOM     26  C   UNL     1       5.803   3.128  13.082  0.00  0.00    +0.000 C 
ATOM     27  C   UNL     1       6.382   2.970  11.693  0.00  0.00    +0.000 C 
ATOM     28  C   UNL     1       5.058   3.634  11.858  0.00  0.00    +0.000 C 
ENDBRANCH  23  26
ENDBRANCH  19  21
ENDBRANCH  15  16
ENDBRANCH   1  15
TORSDOF 6
ENDMDL
MODEL 3
REMARK VINA RESULT:      -8.3      1.275      1.992
REMARK  Name = 
REMARK  6 active torsions:
REMARK  status: ('A' for Active; 'I' for Inactive)
REMARK    1  A    between atoms: S_2  and  N_4
REMARK    2  A    between atoms: S_2  and  C_19
REMARK    3  A    between atoms: N_4  and  C_5
REMARK    4  A    between atoms: C_5  and  C_6
REMARK    5  A    between atoms: C_9  and  C_10
REMARK    6  A    between atoms: C_12  and  C_13
REMARK                            x       y       z     vdW  Elec       q    Type
REMARK                         _______ _______ _______ _____ _____    ______ ____
ROOT
ATOM      1  N   UNL     1       4.127   4.328  18.326  0.00  0.00    +0.000 NA
ATOM      2  H   UNL     1       4.324   4.852  17.465  0.00  0.00    +0.000 HD
ENDROOT
BRANCH   1   4
ATOM      3  O   UNL     1       1.713   4.668  17.591  0.00  0.00    +0.000 OA
ATOM      4  S   UNL     1       2.543   4.741  18.779  0.00  0.00    +0.000 S 
ATOM      5  O   UNL     1       2.267   3.939  19.944  0.00  0.00    +0.000 OA
BRANCH   4   6
ATOM      6  C   UNL     1       2.668   6.442  19.285  0.00  0.00    +0.000 C 
ATOM      7  C   UNL     1       1.733   6.689  20.483  0.00  0.00    +0.000 C 
ATOM      8  C   UNL     1       1.410   8.137  20.318  0.00  0.00    +0.000 A 
ATOM      9  C   UNL     1       0.825   8.982  21.246  0.00  0.00    +0.000 A 
ATOM     10  C   UNL     1       0.559  10.298  20.867  0.00  0.00    +0.000 A 
ATOM     11  C   UNL     1       0.866  10.741  19.570  0.00  0.00    +0.000 A 
ATOM     12  C   UNL     1       1.444   9.875  18.638  0.00  0.00    +0.000 A 
ATOM     13  C   UNL     1       1.718   8.574  19.026  0.00  0.00    +0.000 A 
ATOM     14  C   UNL     1       2.284   7.456  18.199  0.00  0.00    +0.000 C 
ENDBRANCH   4   6
ENDBRANCH   1   4
BRANCH   1  15
ATOM     15  C   UNL     1       5.119   4.673  19.403  0.00  0.00    +0.000 C 
BRANCH  15  16
ATOM     16  C   UNL     1       6.035   5.845  19.017  0.00  0.00    +0.000 C 
ATOM     17  C   UNL     1       7.502   5.528  19.251  0.00  0.00    +0.000 C 
ATOM     18  C   UNL     1       7.919   4.886  17.953  0.00  0.00    +0.000 C 
ATOM     19  C   UNL     1       7.120   5.675  16.931  0.00  0.00    +0.000 C 
ATOM     20  O   UNL     1       5.915   6.112  17.601  0.00  0.00    +0.000 OA
BRANCH  19  21
ATOM     21  C   UNL     1       6.751   4.849  15.754  0.00  0.00    +0.000 A 
ATOM     22  N   UNL     1       6.926   5.087  14.473  0.00  0.00    +0.000 NA
ATOM     23  C   UNL     1       6.261   4.037  13.893  0.00  0.00    +0.000 A 
ATOM     24  N   UNL     1       5.697   3.181  14.753  0.00  0.00    +0.000 NA
ATOM     25  O   UNL     1       6.020   3.721  16.000  0.00  0.00    +0.000 OA
BRANCH  23  26
ATOM     26  C   UNL     1       6.125   3.882  12.389  0.00  0.00    +0.000 C 
ATOM     27  C   UNL     1       4.886   3.222  11.823  0.00  0.00    +0.000 C 
ATOM     28  C   UNL     1       6.175   2.475  11.815  0.00  0.00    +0.000 C 
ENDBRANCH  23  26
ENDBRANCH  19  21
ENDBRANCH  15  16
ENDBRANCH   1  15
TORSDOF 6
ENDMDL
MODEL 4
REMARK VINA RESULT:      -8.2      0.828      1.040
REMARK  Name = 
REMARK  6 active torsions:
REMARK  status: ('A' for Active; 'I' for Inactive)
REMARK    1  A    between atoms: S_2  and  N_4
REMARK    2  A    between atoms: S_2  and  C_19
REMARK    3  A    between atoms: N_4  and  C_5
REMARK    4  A    between atoms: C_5  and  C_6
REMARK    5  A    between atoms: C_9  and  C_10
REMARK    6  A    between atoms: C_12  and  C_13
REMARK                            x       y       z     vdW  Elec       q    Type
REMARK                         _______ _______ _______ _____ _____    ______ ____
ROOT
ATOM      1  N   UNL     1       4.445   3.560  18.561  0.00  0.00    +0.000 NA
ATOM      2  H   UNL     1       4.205   4.272  17.861  0.00  0.00    +0.000 HD
ENDROOT
BRANCH   1   4
ATOM      3  O   UNL     1       2.379   2.088  18.340  0.00  0.00    +0.000 OA
ATOM      4  S   UNL     1       2.975   3.054  19.245  0.00  0.00    +0.000 S 
ATOM      5  O   UNL     1       3.295   2.715  20.608  0.00  0.00    +0.000 OA
BRANCH   4   6
ATOM      6  C   UNL     1       1.973   4.524  19.250  0.00  0.00    +0.000 C 
ATOM      7  C   UNL     1       2.381   5.424  18.069  0.00  0.00    +0.000 C 
ATOM      8  C   UNL     1       2.037   6.780  18.593  0.00  0.00    +0.000 A 
ATOM      9  C   UNL     1       1.936   7.960  17.876  0.00  0.00    +0.000 A 
ATOM     10  C   UNL     1       1.655   9.135  18.573  0.00  0.00    +0.000 A 
ATOM     11  C   UNL     1       1.494   9.114  19.968  0.00  0.00    +0.000 A 
ATOM     12  C   UNL     1       1.611   7.918  20.683  0.00  0.00    +0.000 A 
ATOM     13  C   UNL     1       1.878   6.753  19.981  0.00  0.00    +0.000 A 
ATOM     14  C   UNL     1       2.096   5.371  20.524  0.00  0.00    +0.000 C 
ENDBRANCH   4   6
ENDBRANCH   1   4
BRANCH   1  15
ATOM     15  C   UNL     1       5.375   4.121  19.601  0.00  0.00    +0.000 C 
BRANCH  15  16
ATOM     16  C   UNL     1       5.867   5.537  19.260  0.00  0.00    +0.000 C 
ATOM     17  C   UNL     1       7.376   5.664  19.374  0.00  0.00    +0.000 C 
ATOM     18  C   UNL     1       7.853   5.261  18.002  0.00  0.00    +0.000 C 
ATOM     19  C   UNL     1       6.772   5.834  17.103  0.00  0.00    +0.000 C 
ATOM     20  O   UNL     1       5.553   5.843  17.882  0.00  0.00    +0.000 OA
BRANCH  19  21
ATOM     21  C   UNL     1       6.565   5.010  15.886  0.00  0.00    +0.000 A 
ATOM     22  N   UNL     1       6.799   5.302  14.625  0.00  0.00    +0.000 NA
ATOM     23  C   UNL     1       6.283   4.209  13.978  0.00  0.00    +0.000 A 
ATOM     24  N   UNL     1       5.753   3.276  14.778  0.00  0.00    +0.000 NA
ATOM     25  O   UNL     1       5.938   3.809  16.056  0.00  0.00    +0.000 OA
BRANCH  23  26
ATOM     26  C   UNL     1       6.262   4.085  12.464  0.00  0.00    +0.000 C 
ATOM     27  C   UNL     1       5.780   2.796  11.835  0.00  0.00    +0.000 C 
ATOM     28  C   UNL     1       7.236   3.112  11.821  0.00  0.00    +0.000 C 
ENDBRANCH  23  26
ENDBRANCH  19  21
ENDBRANCH  15  16
ENDBRANCH   1  15
TORSDOF 6
ENDMDL
MODEL 5
REMARK VINA RESULT:      -8.1      2.207      7.476
REMARK  Name = 
REMARK  6 active torsions:
REMARK  status: ('A' for Active; 'I' for Inactive)
REMARK    1  A    between atoms: S_2  and  N_4
REMARK    2  A    between atoms: S_2  and  C_19
REMARK    3  A    between atoms: N_4  and  C_5
REMARK    4  A    between atoms: C_5  and  C_6
REMARK    5  A    between atoms: C_9  and  C_10
REMARK    6  A    between atoms: C_12  and  C_13
REMARK                            x       y       z     vdW  Elec       q    Type
REMARK                         _______ _______ _______ _____ _____    ______ ____
ROOT
ATOM      1  N   UNL     1       4.674   3.456  18.157  0.00  0.00    +0.000 NA
ATOM      2  H   UNL     1       5.134   2.684  17.660  0.00  0.00    +0.000 HD
ENDROOT
BRANCH   1   4
ATOM      3  O   UNL     1       5.095   5.904  18.720  0.00  0.00    +0.000 OA
ATOM      4  S   UNL     1       5.713   4.793  18.019  0.00  0.00    +0.000 S 
ATOM      5  O   UNL     1       7.013   4.295  18.389  0.00  0.00    +0.000 OA
BRANCH   4   6
ATOM      6  C   UNL     1       5.723   5.153  16.277  0.00  0.00    +0.000 C 
ATOM      7  C   UNL     1       5.176   3.940  15.502  0.00  0.00    +0.000 C 
ATOM      8  C   UNL     1       5.878   4.079  14.191  0.00  0.00    +0.000 A 
ATOM      9  C   UNL     1       5.585   3.430  13.004  0.00  0.00    +0.000 A 
ATOM     10  C   UNL     1       6.407   3.665  11.902  0.00  0.00    +0.000 A 
ATOM     11  C   UNL     1       7.511   4.527  12.008  0.00  0.00    +0.000 A 
ATOM     12  C   UNL     1       7.805   5.167  13.215  0.00  0.00    +0.000 A 
ATOM     13  C   UNL     1       6.976   4.939  14.302  0.00  0.00    +0.000 A 
ATOM     14  C   UNL     1       7.111   5.464  15.701  0.00  0.00    +0.000 C 
ENDBRANCH   4   6
ENDBRANCH   1   4
BRANCH   1  15
ATOM     15  C   UNL     1       4.422   3.097  19.595  0.00  0.00    +0.000 C 
BRANCH  15  16
ATOM     16  C   UNL     1       2.966   2.679  19.859  0.00  0.00    +0.000 C 
ATOM     17  C   UNL     1       2.687   2.471  21.337  0.00  0.00    +0.000 C 
ATOM     18  C   UNL     1       2.286   3.848  21.801  0.00  0.00    +0.000 C 
ATOM     19  C   UNL     1       1.514   4.380  20.607  0.00  0.00    +0.000 C 
ATOM     20  O   UNL     1       2.072   3.735  19.438  0.00  0.00    +0.000 OA
BRANCH  19  21
ATOM     21  C   UNL     1       1.652   5.850  20.464  0.00  0.00    +0.000 A 
ATOM     22  N   UNL     1       1.178   6.815  21.221  0.00  0.00    +0.000 NA
ATOM     23  C   UNL     1       1.519   7.934  20.505  0.00  0.00    +0.000 A 
ATOM     24  N   UNL     1       2.171   7.697  19.362  0.00  0.00    +0.000 NA
ATOM     25  O   UNL     1       2.261   6.303  19.329  0.00  0.00    +0.000 OA
BRANCH  23  26
ATOM     26  C   UNL     1       1.138   9.337  20.945  0.00  0.00    +0.000 C 
ATOM     27  C   UNL     1       0.051   9.518  21.982  0.00  0.00    +0.000 C 
ATOM     28  C   UNL     1      -0.239   9.850  20.559  0.00  0.00    +0.000 C 
ENDBRANCH  23  26
ENDBRANCH  19  21
ENDBRANCH  15  16
ENDBRANCH   1  15
TORSDOF 6
ENDMDL
MODEL 6
REMARK VINA RESULT:      -8.0      2.277      4.269
REMARK  Name = 
REMARK  6 active torsions:
REMARK  status: ('A' for Active; 'I' for Inactive)
REMARK    1  A    between atoms: S_2  and  N_4
REMARK    2  A    between atoms: S_2  and  C_19
REMARK    3  A    between atoms: N_4  and  C_5
REMARK    4  A    between atoms: C_5  and  C_6
REMARK    5  A    between atoms: C_9  and  C_10
REMARK    6  A    between atoms: C_12  and  C_13
REMARK                            x       y       z     vdW  Elec       q    Type
REMARK                         _______ _______ _______ _____ _____    ______ ____
ROOT
ATOM      1  N   UNL     1       1.905   5.657  20.709  0.00  0.00    +0.000 NA
ATOM      2  H   UNL     1       1.388   6.351  21.263  0.00  0.00    +0.000 HD
ENDROOT
BRANCH   1   4
ATOM      3  O   UNL     1       4.059   6.411  19.580  0.00  0.00    +0.000 OA
ATOM      4  S   UNL     1       2.619   6.512  19.427  0.00  0.00    +0.000 S 
ATOM      5  O   UNL     1       1.950   6.036  18.243  0.00  0.00    +0.000 OA
BRANCH   4   6
ATOM      6  C   UNL     1       2.132   8.199  19.710  0.00  0.00    +0.000 C 
ATOM      7  C   UNL     1       1.294   8.279  20.999  0.00  0.00    +0.000 C 
ATOM      8  C   UNL     1       0.427   9.463  20.720  0.00  0.00    +0.000 A 
ATOM      9  C   UNL     1      -0.345  10.175  21.623  0.00  0.00    +0.000 A 
ATOM     10  C   UNL     1      -1.130  11.222  21.139  0.00  0.00    +0.000 A 
ATOM     11  C   UNL     1      -1.141  11.530  19.769  0.00  0.00    +0.000 A 
ATOM     12  C   UNL     1      -0.367  10.796  18.866  0.00  0.00    +0.000 A 
ATOM     13  C   UNL     1       0.419   9.765  19.355  0.00  0.00    +0.000 A 
ATOM     14  C   UNL     1       1.287   8.813  18.586  0.00  0.00    +0.000 C 
ENDBRANCH   4   6
ENDBRANCH   1   4
BRANCH   1  15
ATOM     15  C   UNL     1       0.986   4.576  20.210  0.00  0.00    +0.000 C 
BRANCH  15  16
ATOM     16  C   UNL     1       1.501   3.163  20.528  0.00  0.00    +0.000 C 
ATOM     17  C   UNL     1       1.094   2.151  19.471  0.00  0.00    +0.000 C 
ATOM     18  C   UNL     1       2.216   2.242  18.469  0.00  0.00    +0.000 C 
ATOM     19  C   UNL     1       3.426   2.467  19.358  0.00  0.00    +0.000 C 
ATOM     20  O   UNL     1       2.946   3.160  20.534  0.00  0.00    +0.000 OA
BRANCH  19  21
ATOM     21  C   UNL     1       4.460   3.298  18.692  0.00  0.00    +0.000 A 
ATOM     22  N   UNL     1       4.564   3.656  17.431  0.00  0.00    +0.000 NA
ATOM     23  C   UNL     1       5.781   4.287  17.413  0.00  0.00    +0.000 A 
ATOM     24  N   UNL     1       6.414   4.330  18.591  0.00  0.00    +0.000 NA
ATOM     25  O   UNL     1       5.534   3.667  19.450  0.00  0.00    +0.000 OA
BRANCH  23  26
ATOM     26  C   UNL     1       6.395   4.850  16.142  0.00  0.00    +0.000 C 
ATOM     27  C   UNL     1       5.491   5.449  15.087  0.00  0.00    +0.000 C 
ATOM     28  C   UNL     1       6.117   4.120  14.839  0.00  0.00    +0.000 C 
ENDBRANCH  23  26
ENDBRANCH  19  21
ENDBRANCH  15  16
ENDBRANCH   1  15
TORSDOF 6
ENDMDL
MODEL 7
REMARK VINA RESULT:      -7.8      2.565      4.518
REMARK  Name = 
REMARK  6 active torsions:
REMARK  status: ('A' for Active; 'I' for Inactive)
REMARK    1  A    between atoms: S_2  and  N_4
REMARK    2  A    between atoms: S_2  and  C_19
REMARK    3  A    between atoms: N_4  and  C_5
REMARK    4  A    between atoms: C_5  and  C_6
REMARK    5  A    between atoms: C_9  and  C_10
REMARK    6  A    between atoms: C_12  and  C_13
REMARK                            x       y       z     vdW  Elec       q    Type
REMARK                         _______ _______ _______ _____ _____    ______ ____
ROOT
ATOM      1  N   UNL     1       1.401   5.341  20.211  0.00  0.00    +0.000 NA
ATOM      2  H   UNL     1       0.872   4.858  19.475  0.00  0.00    +0.000 HD
ENDROOT
BRANCH   1   4
ATOM      3  O   UNL     1       3.818   6.020  19.787  0.00  0.00    +0.000 OA
ATOM      4  S   UNL     1       2.467   6.395  19.411  0.00  0.00    +0.000 S 
ATOM      5  O   UNL     1       2.037   6.388  18.036  0.00  0.00    +0.000 OA
BRANCH   4   6
ATOM      6  C   UNL     1       2.102   7.989  20.107  0.00  0.00    +0.000 C 
ATOM      7  C   UNL     1       1.215   7.811  21.354  0.00  0.00    +0.000 C 
ATOM      8  C   UNL     1       0.457   9.097  21.370  0.00  0.00    +0.000 A 
ATOM      9  C   UNL     1      -0.296   9.620  22.407  0.00  0.00    +0.000 A 
ATOM     10  C   UNL     1      -0.974  10.820  22.192  0.00  0.00    +0.000 A 
ATOM     11  C   UNL     1      -0.901  11.467  20.948  0.00  0.00    +0.000 A 
ATOM     12  C   UNL     1      -0.147  10.923  19.904  0.00  0.00    +0.000 A 
ATOM     13  C   UNL     1       0.534   9.737  20.129  0.00  0.00    +0.000 A 
ATOM     14  C   UNL     1       1.358   8.941  19.160  0.00  0.00    +0.000 C 
ENDBRANCH   4   6
ENDBRANCH   1   4
BRANCH   1  15
ATOM     15  C   UNL     1       2.139   4.359  21.077  0.00  0.00    +0.000 C 
BRANCH  15  16
ATOM     16  C   UNL     1       2.073   2.921  20.538  0.00  0.00    +0.000 C 
ATOM     17  C   UNL     1       1.059   2.774  19.417  0.00  0.00    +0.000 C 
ATOM     18  C   UNL     1       1.865   3.107  18.188  0.00  0.00    +0.000 C 
ATOM     19  C   UNL     1       3.222   2.512  18.521  0.00  0.00    +0.000 C 
ATOM     20  O   UNL     1       3.347   2.558  19.961  0.00  0.00    +0.000 OA
BRANCH  19  21
ATOM     21  C   UNL     1       4.334   3.283  17.910  0.00  0.00    +0.000 A 
ATOM     22  N   UNL     1       5.488   3.644  18.427  0.00  0.00    +0.000 NA
ATOM     23  C   UNL     1       6.009   4.437  17.438  0.00  0.00    +0.000 A 
ATOM     24  N   UNL     1       5.235   4.572  16.355  0.00  0.00    +0.000 NA
ATOM     25  O   UNL     1       4.111   3.803  16.667  0.00  0.00    +0.000 OA
BRANCH  23  26
ATOM     26  C   UNL     1       7.340   5.155  17.577  0.00  0.00    +0.000 C 
ATOM     27  C   UNL     1       7.763   5.671  18.936  0.00  0.00    +0.000 C 
ATOM     28  C   UNL     1       7.311   6.641  17.898  0.00  0.00    +0.000 C 
ENDBRANCH  23  26
ENDBRANCH  19  21
ENDBRANCH  15  16
ENDBRANCH   1  15
TORSDOF 6
ENDMDL
MODEL 8
REMARK VINA RESULT:      -7.8      2.167      6.961
REMARK  Name = 
REMARK  6 active torsions:
REMARK  status: ('A' for Active; 'I' for Inactive)
REMARK    1  A    between atoms: S_2  and  N_4
REMARK    2  A    between atoms: S_2  and  C_19
REMARK    3  A    between atoms: N_4  and  C_5
REMARK    4  A    between atoms: C_5  and  C_6
REMARK    5  A    between atoms: C_9  and  C_10
REMARK    6  A    between atoms: C_12  and  C_13
REMARK                            x       y       z     vdW  Elec       q    Type
REMARK                         _______ _______ _______ _____ _____    ______ ____
ROOT
ATOM      1  N   UNL     1       3.754   4.126  18.180  0.00  0.00    +0.000 NA
ATOM      2  H   UNL     1       3.533   3.930  17.196  0.00  0.00    +0.000 HD
ENDROOT
BRANCH   1   4
ATOM      3  O   UNL     1       4.956   6.358  17.936  0.00  0.00    +0.000 OA
ATOM      4  S   UNL     1       5.237   4.955  18.176  0.00  0.00    +0.000 S 
ATOM      5  O   UNL     1       5.914   4.514  19.369  0.00  0.00    +0.000 OA
BRANCH   4   6
ATOM      6  C   UNL     1       6.096   4.295  16.765  0.00  0.00    +0.000 C 
ATOM      7  C   UNL     1       6.922   5.412  16.102  0.00  0.00    +0.000 C 
ATOM      8  C   UNL     1       6.961   4.954  14.681  0.00  0.00    +0.000 A 
ATOM      9  C   UNL     1       7.784   5.416  13.668  0.00  0.00    +0.000 A 
ATOM     10  C   UNL     1       7.618   4.885  12.388  0.00  0.00    +0.000 A 
ATOM     11  C   UNL     1       6.629   3.921  12.141  0.00  0.00    +0.000 A 
ATOM     12  C   UNL     1       5.795   3.472  13.169  0.00  0.00    +0.000 A 
ATOM     13  C   UNL     1       5.974   3.993  14.440  0.00  0.00    +0.000 A 
ATOM     14  C   UNL     1       5.180   3.710  15.681  0.00  0.00    +0.000 C 
ENDBRANCH   4   6
ENDBRANCH   1   4
BRANCH   1  15
ATOM     15  C   UNL     1       3.833   2.854  18.978  0.00  0.00    +0.000 C 
BRANCH  15  16
ATOM     16  C   UNL     1       2.542   2.560  19.759  0.00  0.00    +0.000 C 
ATOM     17  C   UNL     1       2.764   2.579  21.262  0.00  0.00    +0.000 C 
ATOM     18  C   UNL     1       2.546   4.028  21.616  0.00  0.00    +0.000 C 
ATOM     19  C   UNL     1       1.428   4.427  20.670  0.00  0.00    +0.000 C 
ATOM     20  O   UNL     1       1.566   3.593  19.496  0.00  0.00    +0.000 OA
BRANCH  19  21
ATOM     21  C   UNL     1       1.520   5.853  20.268  0.00  0.00    +0.000 A 
ATOM     22  N   UNL     1       1.852   6.378  19.108  0.00  0.00    +0.000 NA
ATOM     23  C   UNL     1       1.887   7.717  19.401  0.00  0.00    +0.000 A 
ATOM     24  N   UNL     1       1.593   8.027  20.669  0.00  0.00    +0.000 NA
ATOM     25  O   UNL     1       1.349   6.782  21.254  0.00  0.00    +0.000 OA
BRANCH  23  26
ATOM     26  C   UNL     1       2.281   8.771  18.380  0.00  0.00    +0.000 C 
ATOM     27  C   UNL     1       1.831  10.201  18.582  0.00  0.00    +0.000 C 
ATOM     28  C   UNL     1       1.178   9.377  17.527  0.00  0.00    +0.000 C 
ENDBRANCH  23  26
ENDBRANCH  19  21
ENDBRANCH  15  16
ENDBRANCH   1  15
TORSDOF 6
ENDMDL
MODEL 9
REMARK VINA RESULT:      -7.8      1.197      1.791
REMARK  Name = 
REMARK  6 active torsions:
REMARK  status: ('A' for Active; 'I' for Inactive)
REMARK    1  A    between atoms: S_2  and  N_4
REMARK    2  A    between atoms: S_2  and  C_19
REMARK    3  A    between atoms: N_4  and  C_5
REMARK    4  A    between atoms: C_5  and  C_6
REMARK    5  A    between atoms: C_9  and  C_10
REMARK    6  A    between atoms: C_12  and  C_13
REMARK                            x       y       z     vdW  Elec       q    Type
REMARK                         _______ _______ _______ _____ _____    ______ ____
ROOT
ATOM      1  N   UNL     1       3.808   3.111  18.681  0.00  0.00    +0.000 NA
ATOM      2  H   UNL     1       3.669   2.098  18.585  0.00  0.00    +0.000 HD
ENDROOT
BRANCH   1   4
ATOM      3  O   UNL     1       1.554   3.720  17.665  0.00  0.00    +0.000 OA
ATOM      4  S   UNL     1       2.265   3.778  18.928  0.00  0.00    +0.000 S 
ATOM      5  O   UNL     1       1.761   3.125  20.110  0.00  0.00    +0.000 OA
BRANCH   4   6
ATOM      6  C   UNL     1       2.591   5.482  19.322  0.00  0.00    +0.000 C 
ATOM      7  C   UNL     1       1.733   5.900  20.530  0.00  0.00    +0.000 C 
ATOM      8  C   UNL     1       1.561   7.363  20.285  0.00  0.00    +0.000 A 
ATOM      9  C   UNL     1       1.105   8.320  21.176  0.00  0.00    +0.000 A 
ATOM     10  C   UNL     1       0.967   9.632  20.723  0.00  0.00    +0.000 A 
ATOM     11  C   UNL     1       1.271   9.961  19.392  0.00  0.00    +0.000 A 
ATOM     12  C   UNL     1       1.719   8.984  18.498  0.00  0.00    +0.000 A 
ATOM     13  C   UNL     1       1.865   7.686  18.959  0.00  0.00    +0.000 A 
ATOM     14  C   UNL     1       2.277   6.466  18.187  0.00  0.00    +0.000 C 
ENDBRANCH   4   6
ENDBRANCH   1   4
BRANCH   1  15
ATOM     15  C   UNL     1       4.469   3.683  17.458  0.00  0.00    +0.000 C 
BRANCH  15  16
ATOM     16  C   UNL     1       5.321   4.924  17.766  0.00  0.00    +0.000 C 
ATOM     17  C   UNL     1       6.707   4.559  18.269  0.00  0.00    +0.000 C 
ATOM     18  C   UNL     1       7.504   4.433  16.996  0.00  0.00    +0.000 C 
ATOM     19  C   UNL     1       6.908   5.530  16.131  0.00  0.00    +0.000 C 
ATOM     20  O   UNL     1       5.533   5.683  16.554  0.00  0.00    +0.000 OA
BRANCH  19  21
ATOM     21  C   UNL     1       6.938   5.180  14.689  0.00  0.00    +0.000 A 
ATOM     22  N   UNL     1       6.136   4.400  13.998  0.00  0.00    +0.000 NA
ATOM     23  C   UNL     1       6.753   4.369  12.774  0.00  0.00    +0.000 A 
ATOM     24  N   UNL     1       7.878   5.088  12.689  0.00  0.00    +0.000 NA
ATOM     25  O   UNL     1       8.007   5.631  13.969  0.00  0.00    +0.000 OA
BRANCH  23  26
ATOM     26  C   UNL     1       6.231   3.540  11.613  0.00  0.00    +0.000 C 
ATOM     27  C   UNL     1       4.819   2.999  11.667  0.00  0.00    +0.000 C 
ATOM     28  C   UNL     1       5.963   2.064  11.862  0.00  0.00    +0.000 C 
ENDBRANCH  23  26
ENDBRANCH  19  21
ENDBRANCH  15  16
ENDBRANCH   1  15
TORSDOF 6
ENDMDL
