MODEL 1
REMARK VINA RESULT:      -8.7      0.000      0.000
REMARK  Name = 
REMARK  6 active torsions:
REMARK  status: ('A' for Active; 'I' for Inactive)
REMARK    1  A    between atoms: C_1  and  C_2
REMARK    2  A    between atoms: C_9  and  C_10
REMARK    3  A    between atoms: C_10  and  S_11
REMARK    4  A    between atoms: S_11  and  C_12
REMARK    5  A    between atoms: C_15  and  C_16
REMARK    6  A    between atoms: C_23  and  C_24
REMARK                            x       y       z     vdW  Elec       q    Type
REMARK                         _______ _______ _______ _____ _____    ______ ____
ROOT
ATOM      1  C   UNL     1       1.418   7.711  20.752  0.00  0.00    +0.000 A 
ATOM      2  N   UNL     1       1.150   6.468  21.094  0.00  0.00    +0.000 NA
ATOM      3  N   UNL     1       1.998   5.662  20.352  0.00  0.00    +0.000 NA
ATOM      4  C   UNL     1       2.735   6.464  19.603  0.00  0.00    +0.000 A 
ATOM      5  O   UNL     1       2.418   7.785  19.821  0.00  0.00    +0.000 OA
ENDROOT
BRANCH   4   6
ATOM      6  C   UNL     1       3.714   6.020  18.650  0.00  0.00    +0.000 A 
ATOM      7  C   UNL     1       3.702   6.195  17.277  0.00  0.00    +0.000 A 
ATOM      8  C   UNL     1       4.881   5.683  16.637  0.00  0.00    +0.000 A 
ATOM      9  C   UNL     1       5.724   5.101  17.553  0.00  0.00    +0.000 A 
ATOM     10  S   UNL     1       5.123   5.184  19.146  0.00  0.00    +0.000 S 
ATOM     11  C   UNL     1       7.028   4.455  17.268  0.00  0.00    +0.000 C 
ATOM     12  C   UNL     1       7.453   4.526  15.798  0.00  0.00    +0.000 C 
ATOM     13  C   UNL     1       6.463   5.035  14.724  0.00  0.00    +0.000 C 
ATOM     14  C   UNL     1       6.092   3.903  13.758  0.00  0.00    +0.000 C 
ATOM     15  C   UNL     1       5.195   5.787  15.186  0.00  0.00    +0.000 C 
ENDBRANCH   4   6
BRANCH   1  16
ATOM     16  S   UNL     1       0.591   9.125  21.322  0.00  0.00    +0.000 S 
BRANCH  16  17
ATOM     17  C   UNL     1       0.813  10.256  19.920  0.00  0.00    +0.000 C 
BRANCH  17  26
ATOM     18  C   UNL     1      -3.776   9.883  14.158  0.00  0.00    +0.000 C 
ATOM     19  C   UNL     1      -3.382  10.383  15.515  0.00  0.00    +0.000 A 
ATOM     20  C   UNL     1      -4.261  11.327  16.166  0.00  0.00    +0.000 A 
ATOM     21  C   UNL     1      -3.994  11.750  17.405  0.00  0.00    +0.000 A 
ATOM     22  N   UNL     1      -2.858  11.345  18.092  0.00  0.00    +0.000 N 
ATOM     23  C   UNL     1      -2.649  11.811  19.378  0.00  0.00    +0.000 A 
ATOM     24  O   UNL     1      -3.422  12.519  20.021  0.00  0.00    +0.000 OA
ATOM     25  C   UNL     1      -1.373  11.420  19.998  0.00  0.00    +0.000 A 
ATOM     26  C   UNL     1      -0.538  10.618  19.326  0.00  0.00    +0.000 A 
ATOM     27  N   UNL     1      -0.817  10.127  18.069  0.00  0.00    +0.000 NA
ATOM     28  C   UNL     1      -1.928  10.492  17.509  0.00  0.00    +0.000 A 
ATOM     29  C   UNL     1      -2.264   9.981  16.141  0.00  0.00    +0.000 A 
ENDBRANCH  17  26
ENDBRANCH  16  17
ENDBRANCH   1  16
TORSDOF 4
ENDMDL
MODEL 2
REMARK VINA RESULT:      -8.6      5.445      8.408
REMARK  Name = 
REMARK  6 active torsions:
REMARK  status: ('A' for Active; 'I' for Inactive)
REMARK    1  A    between atoms: C_1  and  C_2
REMARK    2  A    between atoms: C_9  and  C_10
REMARK    3  A    between atoms: C_10  and  S_11
REMARK    4  A    between atoms: S_11  and  C_12
REMARK    5  A    between atoms: C_15  and  C_16
REMARK    6  A    between atoms: C_23  and  C_24
REMARK                            x       y       z     vdW  Elec       q    Type
REMARK                         _______ _______ _______ _____ _____    ______ ____
ROOT
ATOM      1  C   UNL     1       7.407   6.064  17.237  0.00  0.00    +0.000 A 
ATOM      2  N   UNL     1       7.748   5.722  18.462  0.00  0.00    +0.000 NA
ATOM      3  N   UNL     1       8.209   6.872  19.081  0.00  0.00    +0.000 NA
ATOM      4  C   UNL     1       8.118   7.849  18.194  0.00  0.00    +0.000 A 
ATOM      5  O   UNL     1       7.605   7.397  17.001  0.00  0.00    +0.000 OA
ENDROOT
BRANCH   4   6
ATOM      6  C   UNL     1       8.541   9.202  18.426  0.00  0.00    +0.000 A 
ATOM      7  C   UNL     1       9.397   9.668  19.408  0.00  0.00    +0.000 A 
ATOM      8  C   UNL     1       9.659  11.075  19.302  0.00  0.00    +0.000 A 
ATOM      9  C   UNL     1       8.953  11.629  18.261  0.00  0.00    +0.000 A 
ATOM     10  S   UNL     1       8.013  10.484  17.420  0.00  0.00    +0.000 S 
ATOM     11  C   UNL     1       8.957  13.054  17.851  0.00  0.00    +0.000 C 
ATOM     12  C   UNL     1       9.905  13.938  18.666  0.00  0.00    +0.000 C 
ATOM     13  C   UNL     1      10.593  13.380  19.935  0.00  0.00    +0.000 C 
ATOM     14  C   UNL     1      10.085  14.108  21.185  0.00  0.00    +0.000 C 
ATOM     15  C   UNL     1      10.592  11.852  20.163  0.00  0.00    +0.000 C 
ENDBRANCH   4   6
BRANCH   1  16
ATOM     16  S   UNL     1       6.839   4.988  16.000  0.00  0.00    +0.000 S 
BRANCH  16  17
ATOM     17  C   UNL     1       5.229   5.726  15.600  0.00  0.00    +0.000 C 
BRANCH  17  26
ATOM     18  C   UNL     1       2.280   2.607  21.598  0.00  0.00    +0.000 C 
ATOM     19  C   UNL     1       2.482   3.758  20.659  0.00  0.00    +0.000 A 
ATOM     20  C   UNL     1       1.756   4.979  20.926  0.00  0.00    +0.000 A 
ATOM     21  C   UNL     1       1.952   6.059  20.163  0.00  0.00    +0.000 A 
ATOM     22  N   UNL     1       2.812   6.043  19.073  0.00  0.00    +0.000 N 
ATOM     23  C   UNL     1       2.980   7.199  18.332  0.00  0.00    +0.000 A 
ATOM     24  O   UNL     1       2.480   8.293  18.586  0.00  0.00    +0.000 OA
ATOM     25  C   UNL     1       3.824   7.072  17.135  0.00  0.00    +0.000 A 
ATOM     26  C   UNL     1       4.408   5.897  16.867  0.00  0.00    +0.000 A 
ATOM     27  N   UNL     1       4.262   4.786  17.669  0.00  0.00    +0.000 NA
ATOM     28  C   UNL     1       3.496   4.887  18.710  0.00  0.00    +0.000 A 
ATOM     29  C   UNL     1       3.310   3.699  19.604  0.00  0.00    +0.000 A 
ENDBRANCH  17  26
ENDBRANCH  16  17
ENDBRANCH   1  16
TORSDOF 4
ENDMDL
MODEL 3
REMARK VINA RESULT:      -8.6      5.437      8.565
REMARK  Name = 
REMARK  6 active torsions:
REMARK  status: ('A' for Active; 'I' for Inactive)
REMARK    1  A    between atoms: C_1  and  C_2
REMARK    2  A    between atoms: C_9  and  C_10
REMARK    3  A    between atoms: C_10  and  S_11
REMARK    4  A    between atoms: S_11  and  C_12
REMARK    5  A    between atoms: C_15  and  C_16
REMARK    6  A    between atoms: C_23  and  C_24
REMARK                            x       y       z     vdW  Elec       q    Type
REMARK                         _______ _______ _______ _____ _____    ______ ____
ROOT
ATOM      1  C   UNL     1       7.468   6.029  16.973  0.00  0.00    +0.000 A 
ATOM      2  N   UNL     1       7.622   5.680  18.234  0.00  0.00    +0.000 NA
ATOM      3  N   UNL     1       8.018   6.820  18.914  0.00  0.00    +0.000 NA
ATOM      4  C   UNL     1       8.077   7.798  18.026  0.00  0.00    +0.000 A 
ATOM      5  O   UNL     1       7.728   7.356  16.771  0.00  0.00    +0.000 OA
ENDROOT
BRANCH   4   6
ATOM      6  C   UNL     1       8.494   9.141  18.318  0.00  0.00    +0.000 A 
ATOM      7  C   UNL     1       9.362   9.564  19.310  0.00  0.00    +0.000 A 
ATOM      8  C   UNL     1       9.613  10.977  19.269  0.00  0.00    +0.000 A 
ATOM      9  C   UNL     1       8.888  11.576  18.268  0.00  0.00    +0.000 A 
ATOM     10  S   UNL     1       7.943  10.467  17.384  0.00  0.00    +0.000 S 
ATOM     11  C   UNL     1       8.877  13.020  17.928  0.00  0.00    +0.000 C 
ATOM     12  C   UNL     1       9.831  13.869  18.773  0.00  0.00    +0.000 C 
ATOM     13  C   UNL     1      10.541  13.253  20.002  0.00  0.00    +0.000 C 
ATOM     14  C   UNL     1      10.047  13.915  21.294  0.00  0.00    +0.000 C 
ATOM     15  C   UNL     1      10.553  11.716  20.155  0.00  0.00    +0.000 C 
ENDBRANCH   4   6
BRANCH   1  16
ATOM     16  S   UNL     1       7.056   4.966  15.666  0.00  0.00    +0.000 S 
BRANCH  16  17
ATOM     17  C   UNL     1       5.324   5.422  15.369  0.00  0.00    +0.000 C 
BRANCH  17  26
ATOM     18  C   UNL     1       1.253   7.815  21.035  0.00  0.00    +0.000 C 
ATOM     19  C   UNL     1       1.944   6.738  20.254  0.00  0.00    +0.000 A 
ATOM     20  C   UNL     1       1.899   5.392  20.778  0.00  0.00    +0.000 A 
ATOM     21  C   UNL     1       2.437   4.383  20.086  0.00  0.00    +0.000 A 
ATOM     22  N   UNL     1       3.091   4.585  18.879  0.00  0.00    +0.000 N 
ATOM     23  C   UNL     1       3.614   3.494  18.207  0.00  0.00    +0.000 A 
ATOM     24  O   UNL     1       3.500   2.318  18.549  0.00  0.00    +0.000 OA
ATOM     25  C   UNL     1       4.381   3.803  16.991  0.00  0.00    +0.000 A 
ATOM     26  C   UNL     1       4.481   5.075  16.585  0.00  0.00    +0.000 A 
ATOM     27  N   UNL     1       3.890   6.125  17.253  0.00  0.00    +0.000 NA
ATOM     28  C   UNL     1       3.237   5.859  18.341  0.00  0.00    +0.000 A 
ATOM     29  C   UNL     1       2.583   6.976  19.096  0.00  0.00    +0.000 A 
ENDBRANCH  17  26
ENDBRANCH  16  17
ENDBRANCH   1  16
TORSDOF 4
ENDMDL
MODEL 4
REMARK VINA RESULT:      -8.6      3.664      9.704
REMARK  Name = 
REMARK  6 active torsions:
REMARK  status: ('A' for Active; 'I' for Inactive)
REMARK    1  A    between atoms: C_1  and  C_2
REMARK    2  A    between atoms: C_9  and  C_10
REMARK    3  A    between atoms: C_10  and  S_11
REMARK    4  A    between atoms: S_11  and  C_12
REMARK    5  A    between atoms: C_15  and  C_16
REMARK    6  A    between atoms: C_23  and  C_24
REMARK                            x       y       z     vdW  Elec       q    Type
REMARK                         _______ _______ _______ _____ _____    ______ ____
ROOT
ATOM      1  C   UNL     1       2.626   6.084  19.011  0.00  0.00    +0.000 A 
ATOM      2  N   UNL     1       2.955   6.862  18.001  0.00  0.00    +0.000 NA
ATOM      3  N   UNL     1       2.443   8.117  18.285  0.00  0.00    +0.000 NA
ATOM      4  C   UNL     1       1.834   8.029  19.456  0.00  0.00    +0.000 A 
ATOM      5  O   UNL     1       1.925   6.758  19.973  0.00  0.00    +0.000 OA
ENDROOT
BRANCH   4   6
ATOM      6  C   UNL     1       1.128   9.107  20.092  0.00  0.00    +0.000 A 
ATOM      7  C   UNL     1       0.520   9.107  21.335  0.00  0.00    +0.000 A 
ATOM      8  C   UNL     1      -0.033  10.384  21.688  0.00  0.00    +0.000 A 
ATOM      9  C   UNL     1       0.143  11.293  20.672  0.00  0.00    +0.000 A 
ATOM     10  S   UNL     1       0.971  10.635  19.336  0.00  0.00    +0.000 S 
ATOM     11  C   UNL     1      -0.304  12.707  20.666  0.00  0.00    +0.000 C 
ATOM     12  C   UNL     1      -0.970  13.159  21.969  0.00  0.00    +0.000 C 
ATOM     13  C   UNL     1      -1.320  12.124  23.065  0.00  0.00    +0.000 C 
ATOM     14  C   UNL     1      -2.840  12.014  23.232  0.00  0.00    +0.000 C 
ATOM     15  C   UNL     1      -0.684  10.719  22.984  0.00  0.00    +0.000 C 
ENDBRANCH   4   6
BRANCH   1  16
ATOM     16  S   UNL     1       2.949   4.384  19.135  0.00  0.00    +0.000 S 
BRANCH  16  17
ATOM     17  C   UNL     1       4.751   4.379  19.347  0.00  0.00    +0.000 C 
BRANCH  17  26
ATOM     18  C   UNL     1       5.681   3.096  12.143  0.00  0.00    +0.000 C 
ATOM     19  C   UNL     1       6.013   3.802  13.423  0.00  0.00    +0.000 A 
ATOM     20  C   UNL     1       7.091   4.764  13.399  0.00  0.00    +0.000 A 
ATOM     21  C   UNL     1       7.382   5.475  14.494  0.00  0.00    +0.000 A 
ATOM     22  N   UNL     1       6.705   5.291  15.692  0.00  0.00    +0.000 N 
ATOM     23  C   UNL     1       7.047   6.068  16.784  0.00  0.00    +0.000 A 
ATOM     24  O   UNL     1       7.872   6.981  16.786  0.00  0.00    +0.000 OA
ATOM     25  C   UNL     1       6.357   5.741  18.041  0.00  0.00    +0.000 A 
ATOM     26  C   UNL     1       5.428   4.777  18.046  0.00  0.00    +0.000 A 
ATOM     27  N   UNL     1       5.074   4.069  16.918  0.00  0.00    +0.000 NA
ATOM     28  C   UNL     1       5.701   4.336  15.814  0.00  0.00    +0.000 A 
ATOM     29  C   UNL     1       5.346   3.585  14.568  0.00  0.00    +0.000 A 
ENDBRANCH  17  26
ENDBRANCH  16  17
ENDBRANCH   1  16
TORSDOF 4
ENDMDL
MODEL 5
REMARK VINA RESULT:      -8.6      6.865      9.997
REMARK  Name = 
REMARK  6 active torsions:
REMARK  status: ('A' for Active; 'I' for Inactive)
REMARK    1  A    between atoms: C_1  and  C_2
REMARK    2  A    between atoms: C_9  and  C_10
REMARK    3  A    between atoms: C_10  and  S_11
REMARK    4  A    between atoms: S_11  and  C_12
REMARK    5  A    between atoms: C_15  and  C_16
REMARK    6  A    between atoms: C_23  and  C_24
REMARK                            x       y       z     vdW  Elec       q    Type
REMARK                         _______ _______ _______ _____ _____    ______ ____
ROOT
ATOM      1  C   UNL     1       7.308   7.857  17.356  0.00  0.00    +0.000 A 
ATOM      2  N   UNL     1       7.835   6.821  16.738  0.00  0.00    +0.000 NA
ATOM      3  N   UNL     1       6.966   5.760  16.933  0.00  0.00    +0.000 NA
ATOM      4  C   UNL     1       5.959   6.215  17.659  0.00  0.00    +0.000 A 
ATOM      5  O   UNL     1       6.116   7.549  17.952  0.00  0.00    +0.000 OA
ENDROOT
BRANCH   4   6
ATOM      6  C   UNL     1       4.860   5.414  18.122  0.00  0.00    +0.000 A 
ATOM      7  C   UNL     1       4.122   5.575  19.282  0.00  0.00    +0.000 A 
ATOM      8  C   UNL     1       3.044   4.634  19.395  0.00  0.00    +0.000 A 
ATOM      9  C   UNL     1       3.035   3.767  18.329  0.00  0.00    +0.000 A 
ATOM     10  S   UNL     1       4.279   4.087  17.209  0.00  0.00    +0.000 S 
ATOM     11  C   UNL     1       2.080   2.655  18.104  0.00  0.00    +0.000 C 
ATOM     12  C   UNL     1       0.984   2.545  19.167  0.00  0.00    +0.000 C 
ATOM     13  C   UNL     1       1.057   3.403  20.453  0.00  0.00    +0.000 C 
ATOM     14  C   UNL     1       1.261   2.509  21.682  0.00  0.00    +0.000 C 
ATOM     15  C   UNL     1       2.034   4.599  20.488  0.00  0.00    +0.000 C 
ENDBRANCH   4   6
BRANCH   1  16
ATOM     16  S   UNL     1       8.025   9.430  17.498  0.00  0.00    +0.000 S 
BRANCH  16  17
ATOM     17  C   UNL     1       8.964   9.255  19.042  0.00  0.00    +0.000 C 
BRANCH  17  26
ATOM     18  C   UNL     1       8.944  14.946  23.735  0.00  0.00    +0.000 C 
ATOM     19  C   UNL     1       9.397  14.253  22.485  0.00  0.00    +0.000 A 
ATOM     20  C   UNL     1      10.302  14.965  21.612  0.00  0.00    +0.000 A 
ATOM     21  C   UNL     1      10.793  14.368  20.521  0.00  0.00    +0.000 A 
ATOM     22  N   UNL     1      10.428  13.078  20.161  0.00  0.00    +0.000 N 
ATOM     23  C   UNL     1      10.984  12.514  19.027  0.00  0.00    +0.000 A 
ATOM     24  O   UNL     1      11.845  13.029  18.317  0.00  0.00    +0.000 OA
ATOM     25  C   UNL     1      10.468  11.187  18.657  0.00  0.00    +0.000 A 
ATOM     26  C   UNL     1       9.559  10.595  19.442  0.00  0.00    +0.000 A 
ATOM     27  N   UNL     1       9.078  11.170  20.598  0.00  0.00    +0.000 NA
ATOM     28  C   UNL     1       9.510  12.351  20.913  0.00  0.00    +0.000 A 
ATOM     29  C   UNL     1       9.008  13.009  22.162  0.00  0.00    +0.000 A 
ENDBRANCH  17  26
ENDBRANCH  16  17
ENDBRANCH   1  16
TORSDOF 4
ENDMDL
MODEL 6
REMARK VINA RESULT:      -8.6      6.399      9.127
REMARK  Name = 
REMARK  6 active torsions:
REMARK  status: ('A' for Active; 'I' for Inactive)
REMARK    1  A    between atoms: C_1  and  C_2
REMARK    2  A    between atoms: C_9  and  C_10
REMARK    3  A    between atoms: C_10  and  S_11
REMARK    4  A    between atoms: S_11  and  C_12
REMARK    5  A    between atoms: C_15  and  C_16
REMARK    6  A    between atoms: C_23  and  C_24
REMARK                            x       y       z     vdW  Elec       q    Type
REMARK                         _______ _______ _______ _____ _____    ______ ____
ROOT
ATOM      1  C   UNL     1       8.054   7.393  18.369  0.00  0.00    +0.000 A 
ATOM      2  N   UNL     1       7.475   7.837  17.273  0.00  0.00    +0.000 NA
ATOM      3  N   UNL     1       7.798   9.179  17.170  0.00  0.00    +0.000 NA
ATOM      4  C   UNL     1       8.558   9.474  18.211  0.00  0.00    +0.000 A 
ATOM      5  O   UNL     1       8.765   8.372  19.008  0.00  0.00    +0.000 OA
ENDROOT
BRANCH   4   6
ATOM      6  C   UNL     1       9.070  10.784  18.504  0.00  0.00    +0.000 A 
ATOM      7  C   UNL     1       8.781  11.972  17.856  0.00  0.00    +0.000 A 
ATOM      8  C   UNL     1       9.418  13.108  18.460  0.00  0.00    +0.000 A 
ATOM      9  C   UNL     1      10.201  12.726  19.522  0.00  0.00    +0.000 A 
ATOM     10  S   UNL     1      10.158  11.045  19.800  0.00  0.00    +0.000 S 
ATOM     11  C   UNL     1      11.019  13.615  20.382  0.00  0.00    +0.000 C 
ATOM     12  C   UNL     1      10.893  15.103  20.042  0.00  0.00    +0.000 C 
ATOM     13  C   UNL     1      10.146  15.550  18.763  0.00  0.00    +0.000 C 
ATOM     14  C   UNL     1      11.120  16.199  17.772  0.00  0.00    +0.000 C 
ATOM     15  C   UNL     1       9.244  14.526  18.039  0.00  0.00    +0.000 C 
ENDBRANCH   4   6
BRANCH   1  16
ATOM     16  S   UNL     1       7.913   5.791  19.019  0.00  0.00    +0.000 S 
BRANCH  16  17
ATOM     17  C   UNL     1       6.774   5.025  17.830  0.00  0.00    +0.000 C 
BRANCH  17  26
ATOM     18  C   UNL     1       1.382   2.251  22.030  0.00  0.00    +0.000 C 
ATOM     19  C   UNL     1       1.915   3.214  21.012  0.00  0.00    +0.000 A 
ATOM     20  C   UNL     1       0.986   4.154  20.426  0.00  0.00    +0.000 A 
ATOM     21  C   UNL     1       1.422   5.081  19.566  0.00  0.00    +0.000 A 
ATOM     22  N   UNL     1       2.750   5.151  19.170  0.00  0.00    +0.000 N 
ATOM     23  C   UNL     1       3.137   6.144  18.287  0.00  0.00    +0.000 A 
ATOM     24  O   UNL     1       2.414   7.039  17.852  0.00  0.00    +0.000 OA
ATOM     25  C   UNL     1       4.536   6.087  17.837  0.00  0.00    +0.000 A 
ATOM     26  C   UNL     1       5.345   5.142  18.332  0.00  0.00    +0.000 A 
ATOM     27  N   UNL     1       4.931   4.209  19.259  0.00  0.00    +0.000 NA
ATOM     28  C   UNL     1       3.692   4.240  19.637  0.00  0.00    +0.000 A 
ATOM     29  C   UNL     1       3.205   3.240  20.641  0.00  0.00    +0.000 A 
ENDBRANCH  17  26
ENDBRANCH  16  17
ENDBRANCH   1  16
TORSDOF 4
ENDMDL
MODEL 7
REMARK VINA RESULT:      -8.5      6.125      9.123
REMARK  Name = 
REMARK  6 active torsions:
REMARK  status: ('A' for Active; 'I' for Inactive)
REMARK    1  A    between atoms: C_1  and  C_2
REMARK    2  A    between atoms: C_9  and  C_10
REMARK    3  A    between atoms: C_10  and  S_11
REMARK    4  A    between atoms: S_11  and  C_12
REMARK    5  A    between atoms: C_15  and  C_16
REMARK    6  A    between atoms: C_23  and  C_24
REMARK                            x       y       z     vdW  Elec       q    Type
REMARK                         _______ _______ _______ _____ _____    ______ ____
ROOT
ATOM      1  C   UNL     1       7.915   6.908  18.194  0.00  0.00    +0.000 A 
ATOM      2  N   UNL     1       7.325   7.378  17.115  0.00  0.00    +0.000 NA
ATOM      3  N   UNL     1       7.595   8.736  17.075  0.00  0.00    +0.000 NA
ATOM      4  C   UNL     1       8.338   9.012  18.134  0.00  0.00    +0.000 A 
ATOM      5  O   UNL     1       8.584   7.884  18.881  0.00  0.00    +0.000 OA
ENDROOT
BRANCH   4   6
ATOM      6  C   UNL     1       8.798  10.326  18.488  0.00  0.00    +0.000 A 
ATOM      7  C   UNL     1       9.604  10.685  19.553  0.00  0.00    +0.000 A 
ATOM      8  C   UNL     1       9.928  12.083  19.565  0.00  0.00    +0.000 A 
ATOM      9  C   UNL     1       9.315  12.738  18.524  0.00  0.00    +0.000 A 
ATOM     10  S   UNL     1       8.389  11.696  17.545  0.00  0.00    +0.000 S 
ATOM     11  C   UNL     1       9.403  14.187  18.218  0.00  0.00    +0.000 C 
ATOM     12  C   UNL     1      10.329  14.969  19.153  0.00  0.00    +0.000 C 
ATOM     13  C   UNL     1      10.909  14.295  20.420  0.00  0.00    +0.000 C 
ATOM     14  C   UNL     1      10.347  14.957  21.683  0.00  0.00    +0.000 C 
ATOM     15  C   UNL     1      10.832  12.757  20.538  0.00  0.00    +0.000 C 
ENDBRANCH   4   6
BRANCH   1  16
ATOM     16  S   UNL     1       7.832   5.274  18.770  0.00  0.00    +0.000 S 
BRANCH  16  17
ATOM     17  C   UNL     1       6.601   4.562  17.642  0.00  0.00    +0.000 C 
BRANCH  17  26
ATOM     18  C   UNL     1       1.343   2.131  22.209  0.00  0.00    +0.000 C 
ATOM     19  C   UNL     1       1.855   3.040  21.133  0.00  0.00    +0.000 A 
ATOM     20  C   UNL     1       0.932   3.995  20.564  0.00  0.00    +0.000 A 
ATOM     21  C   UNL     1       1.354   4.877  19.652  0.00  0.00    +0.000 A 
ATOM     22  N   UNL     1       2.661   4.884  19.185  0.00  0.00    +0.000 N 
ATOM     23  C   UNL     1       3.035   5.832  18.250  0.00  0.00    +0.000 A 
ATOM     24  O   UNL     1       2.324   6.740  17.823  0.00  0.00    +0.000 OA
ATOM     25  C   UNL     1       4.406   5.708  17.730  0.00  0.00    +0.000 A 
ATOM     26  C   UNL     1       5.205   4.749  18.214  0.00  0.00    +0.000 A 
ATOM     27  N   UNL     1       4.808   3.864  19.192  0.00  0.00    +0.000 NA
ATOM     28  C   UNL     1       3.592   3.953  19.633  0.00  0.00    +0.000 A 
ATOM     29  C   UNL     1       3.124   3.005  20.695  0.00  0.00    +0.000 A 
ENDBRANCH  17  26
ENDBRANCH  16  17
ENDBRANCH   1  16
TORSDOF 4
ENDMDL
MODEL 8
REMARK VINA RESULT:      -8.5      2.691      4.182
REMARK  Name = 
REMARK  6 active torsions:
REMARK  status: ('A' for Active; 'I' for Inactive)
REMARK    1  A    between atoms: C_1  and  C_2
REMARK    2  A    between atoms: C_9  and  C_10
REMARK    3  A    between atoms: C_10  and  S_11
REMARK    4  A    between atoms: S_11  and  C_12
REMARK    5  A    between atoms: C_15  and  C_16
REMARK    6  A    between atoms: C_23  and  C_24
REMARK                            x       y       z     vdW  Elec       q    Type
REMARK                         _______ _______ _______ _____ _____    ______ ____
ROOT
ATOM      1  C   UNL     1       0.451  10.621  20.980  0.00  0.00    +0.000 A 
ATOM      2  N   UNL     1       0.707  10.191  22.198  0.00  0.00    +0.000 NA
ATOM      3  N   UNL     1       1.267   8.932  22.064  0.00  0.00    +0.000 NA
ATOM      4  C   UNL     1       1.321   8.670  20.769  0.00  0.00    +0.000 A 
ATOM      5  O   UNL     1       0.823   9.715  20.026  0.00  0.00    +0.000 OA
ENDROOT
BRANCH   4   6
ATOM      6  C   UNL     1       1.798   7.438  20.204  0.00  0.00    +0.000 A 
ATOM      7  C   UNL     1       1.751   6.174  20.764  0.00  0.00    +0.000 A 
ATOM      8  C   UNL     1       2.254   5.154  19.888  0.00  0.00    +0.000 A 
ATOM      9  C   UNL     1       2.703   5.697  18.709  0.00  0.00    +0.000 A 
ATOM     10  S   UNL     1       2.507   7.388  18.646  0.00  0.00    +0.000 S 
ATOM     11  C   UNL     1       3.300   4.961  17.568  0.00  0.00    +0.000 C 
ATOM     12  C   UNL     1       3.342   3.442  17.757  0.00  0.00    +0.000 C 
ATOM     13  C   UNL     1       2.989   2.816  19.127  0.00  0.00    +0.000 C 
ATOM     14  C   UNL     1       4.223   2.150  19.746  0.00  0.00    +0.000 C 
ATOM     15  C   UNL     1       2.268   3.693  20.175  0.00  0.00    +0.000 C 
ENDBRANCH   4   6
BRANCH   1  16
ATOM     16  S   UNL     1      -0.330  12.115  20.571  0.00  0.00    +0.000 S 
BRANCH  16  17
ATOM     17  C   UNL     1      -0.555  11.920  18.780  0.00  0.00    +0.000 C 
BRANCH  17  26
ATOM     18  C   UNL     1      -7.524  12.620  21.092  0.00  0.00    +0.000 C 
ATOM     19  C   UNL     1      -6.491  12.230  20.078  0.00  0.00    +0.000 A 
ATOM     20  C   UNL     1      -6.951  11.632  18.846  0.00  0.00    +0.000 A 
ATOM     21  C   UNL     1      -6.078  11.330  17.879  0.00  0.00    +0.000 A 
ATOM     22  N   UNL     1      -4.713  11.532  18.030  0.00  0.00    +0.000 N 
ATOM     23  C   UNL     1      -3.866  11.210  16.984  0.00  0.00    +0.000 A 
ATOM     24  O   UNL     1      -4.215  10.811  15.874  0.00  0.00    +0.000 OA
ATOM     25  C   UNL     1      -2.429  11.355  17.261  0.00  0.00    +0.000 A 
ATOM     26  C   UNL     1      -2.035  11.826  18.451  0.00  0.00    +0.000 A 
ATOM     27  N   UNL     1      -2.919  12.193  19.443  0.00  0.00    +0.000 NA
ATOM     28  C   UNL     1      -4.185  12.040  19.212  0.00  0.00    +0.000 A 
ATOM     29  C   UNL     1      -5.176  12.425  20.268  0.00  0.00    +0.000 A 
ENDBRANCH  17  26
ENDBRANCH  16  17
ENDBRANCH   1  16
TORSDOF 4
ENDMDL
MODEL 9
REMARK VINA RESULT:      -8.4      2.531      3.415
REMARK  Name = 
REMARK  6 active torsions:
REMARK  status: ('A' for Active; 'I' for Inactive)
REMARK    1  A    between atoms: C_1  and  C_2
REMARK    2  A    between atoms: C_9  and  C_10
REMARK    3  A    between atoms: C_10  and  S_11
REMARK    4  A    between atoms: S_11  and  C_12
REMARK    5  A    between atoms: C_15  and  C_16
REMARK    6  A    between atoms: C_23  and  C_24
REMARK                            x       y       z     vdW  Elec       q    Type
REMARK                         _______ _______ _______ _____ _____    ______ ____
ROOT
ATOM      1  C   UNL     1       0.972  10.702  21.167  0.00  0.00    +0.000 A 
ATOM      2  N   UNL     1       1.015  10.141  22.357  0.00  0.00    +0.000 NA
ATOM      3  N   UNL     1       1.363   8.815  22.158  0.00  0.00    +0.000 NA
ATOM      4  C   UNL     1       1.513   8.648  20.854  0.00  0.00    +0.000 A 
ATOM      5  O   UNL     1       1.287   9.819  20.170  0.00  0.00    +0.000 OA
ENDROOT
BRANCH   4   6
ATOM      6  C   UNL     1       1.831   7.397  20.223  0.00  0.00    +0.000 A 
ATOM      7  C   UNL     1       1.624   6.121  20.717  0.00  0.00    +0.000 A 
ATOM      8  C   UNL     1       1.995   5.093  19.786  0.00  0.00    +0.000 A 
ATOM      9  C   UNL     1       2.510   5.637  18.634  0.00  0.00    +0.000 A 
ATOM     10  S   UNL     1       2.529   7.341  18.661  0.00  0.00    +0.000 S 
ATOM     11  C   UNL     1       3.010   4.892  17.452  0.00  0.00    +0.000 C 
ATOM     12  C   UNL     1       2.860   3.372  17.561  0.00  0.00    +0.000 C 
ATOM     13  C   UNL     1       2.430   2.725  18.899  0.00  0.00    +0.000 C 
ATOM     14  C   UNL     1       3.570   1.877  19.475  0.00  0.00    +0.000 C 
ATOM     15  C   UNL     1       1.825   3.630  19.996  0.00  0.00    +0.000 C 
ENDBRANCH   4   6
BRANCH   1  16
ATOM     16  S   UNL     1       0.509  12.339  20.829  0.00  0.00    +0.000 S 
BRANCH  16  17
ATOM     17  C   UNL     1      -1.132  12.411  21.602  0.00  0.00    +0.000 C 
BRANCH  17  26
ATOM     18  C   UNL     1      -2.891  10.043  14.841  0.00  0.00    +0.000 C 
ATOM     19  C   UNL     1      -3.211  10.722  16.139  0.00  0.00    +0.000 A 
ATOM     20  C   UNL     1      -4.529  11.295  16.290  0.00  0.00    +0.000 A 
ATOM     21  C   UNL     1      -4.891  11.849  17.452  0.00  0.00    +0.000 A 
ATOM     22  N   UNL     1      -4.019  11.938  18.528  0.00  0.00    +0.000 N 
ATOM     23  C   UNL     1      -4.463  12.512  19.707  0.00  0.00    +0.000 A 
ATOM     24  O   UNL     1      -5.607  12.906  19.928  0.00  0.00    +0.000 OA
ATOM     25  C   UNL     1      -3.449  12.664  20.762  0.00  0.00    +0.000 A 
ATOM     26  C   UNL     1      -2.210  12.204  20.551  0.00  0.00    +0.000 A 
ATOM     27  N   UNL     1      -1.829  11.582  19.381  0.00  0.00    +0.000 NA
ATOM     28  C   UNL     1      -2.712  11.472  18.439  0.00  0.00    +0.000 A 
ATOM     29  C   UNL     1      -2.333  10.804  17.152  0.00  0.00    +0.000 A 
ENDBRANCH  17  26
ENDBRANCH  16  17
ENDBRANCH   1  16
TORSDOF 4
ENDMDL
