MODEL 1
REMARK VINA RESULT:      -9.3      0.000      0.000
REMARK  Name = 
REMARK  7 active torsions:
REMARK  status: ('A' for Active; 'I' for Inactive)
REMARK    1  A    between atoms: C_1  and  C_2
REMARK    2  A    between atoms: C_7  and  C_8
REMARK    3  A    between atoms: C_8  and  N_9
REMARK    4  A    between atoms: N_9  and  C_10
REMARK    5  A    between atoms: C_15  and  C_16
REMARK    6  A    between atoms: N_18  and  C_19
REMARK    7  A    between atoms: C_19  and  C_20
REMARK                            x       y       z     vdW  Elec       q    Type
REMARK                         _______ _______ _______ _____ _____    ______ ____
ROOT
ATOM      1  C   UNL     1       2.641   4.794  19.821  0.00  0.00    +0.000 A 
ATOM      2  C   UNL     1       1.402   4.234  20.192  0.00  0.00    +0.000 A 
ATOM      3  C   UNL     1       1.082   2.900  19.922  0.00  0.00    +0.000 A 
ATOM      4  C   UNL     1       1.989   2.088  19.259  0.00  0.00    +0.000 A 
ATOM      5  C   UNL     1       3.211   2.618  18.854  0.00  0.00    +0.000 A 
ATOM      6  C   UNL     1       3.546   3.963  19.109  0.00  0.00    +0.000 A 
ENDROOT
BRANCH   6   7
ATOM      7  C   UNL     1       4.890   4.401  18.591  0.00  0.00    +0.000 C 
ATOM      8  O   UNL     1       5.641   5.071  19.296  0.00  0.00    +0.000 OA
ATOM      9  N   UNL     1       5.223   4.025  17.316  0.00  0.00    +0.000 N 
ATOM     10  H   UNL     1       4.524   3.522  16.771  0.00  0.00    +0.000 HD
BRANCH   9  11
ATOM     11  C   UNL     1       6.487   4.349  16.679  0.00  0.00    +0.000 C 
BRANCH  11  12
ATOM     12  C   UNL     1       6.303   4.826  15.237  0.00  0.00    +0.000 C 
ATOM     13  C   UNL     1       5.958   3.723  14.249  0.00  0.00    +0.000 C 
ATOM     14  C   UNL     1       6.548   4.249  12.965  0.00  0.00    +0.000 C 
ATOM     15  C   UNL     1       7.793   4.956  13.448  0.00  0.00    +0.000 C 
ATOM     16  O   UNL     1       7.511   5.458  14.759  0.00  0.00    +0.000 OA
ENDBRANCH  11  12
ENDBRANCH   9  11
ENDBRANCH   6   7
BRANCH   1  17
ATOM     17  N   UNL     1       2.912   6.169  20.021  0.00  0.00    +0.000 N 
ATOM     18  H   UNL     1       3.896   6.275  20.292  0.00  0.00    +0.000 HD
BRANCH  17  19
ATOM     19  C   UNL     1       2.652   7.098  18.917  0.00  0.00    +0.000 C 
BRANCH  19  26
ATOM     20  C   UNL     1      -1.625  12.287  23.043  0.00  0.00    +0.000 C 
ATOM     21  C   UNL     1      -0.835  11.185  22.404  0.00  0.00    +0.000 A 
ATOM     22  C   UNL     1      -0.489  10.021  23.188  0.00  0.00    +0.000 A 
ATOM     23  C   UNL     1       0.210   9.015  22.647  0.00  0.00    +0.000 A 
ATOM     24  C   UNL     1       0.655   9.091  21.226  0.00  0.00    +0.000 A 
ATOM     25  N   UNL     1       1.358   8.114  20.739  0.00  0.00    +0.000 NA
ATOM     26  C   UNL     1       1.771   8.221  19.430  0.00  0.00    +0.000 A 
ATOM     27  C   UNL     1       1.471   9.263  18.646  0.00  0.00    +0.000 A 
ATOM     28  C   UNL     1       0.665  10.364  19.193  0.00  0.00    +0.000 A 
ATOM     29  O   UNL     1       0.405  11.319  18.462  0.00  0.00    +0.000 OA
ATOM     30  N   UNL     1       0.290  10.230  20.521  0.00  0.00    +0.000 N 
ATOM     31  C   UNL     1      -0.439  11.247  21.122  0.00  0.00    +0.000 A 
ENDBRANCH  19  26
ENDBRANCH  17  19
ENDBRANCH   1  17
TORSDOF 6
ENDMDL
MODEL 2
REMARK VINA RESULT:      -9.3      1.318      1.951
REMARK  Name = 
REMARK  7 active torsions:
REMARK  status: ('A' for Active; 'I' for Inactive)
REMARK    1  A    between atoms: C_1  and  C_2
REMARK    2  A    between atoms: C_7  and  C_8
REMARK    3  A    between atoms: C_8  and  N_9
REMARK    4  A    between atoms: N_9  and  C_10
REMARK    5  A    between atoms: C_15  and  C_16
REMARK    6  A    between atoms: N_18  and  C_19
REMARK    7  A    between atoms: C_19  and  C_20
REMARK                            x       y       z     vdW  Elec       q    Type
REMARK                         _______ _______ _______ _____ _____    ______ ____
ROOT
ATOM      1  C   UNL     1       2.228   4.612  18.692  0.00  0.00    +0.000 A 
ATOM      2  C   UNL     1       1.254   3.885  19.405  0.00  0.00    +0.000 A 
ATOM      3  C   UNL     1       1.241   2.486  19.425  0.00  0.00    +0.000 A 
ATOM      4  C   UNL     1       2.197   1.773  18.719  0.00  0.00    +0.000 A 
ATOM      5  C   UNL     1       3.157   2.461  17.981  0.00  0.00    +0.000 A 
ATOM      6  C   UNL     1       3.178   3.870  17.941  0.00  0.00    +0.000 A 
ENDROOT
BRANCH   6   7
ATOM      7  C   UNL     1       4.258   4.473  17.083  0.00  0.00    +0.000 C 
ATOM      8  O   UNL     1       4.167   5.635  16.694  0.00  0.00    +0.000 OA
ATOM      9  N   UNL     1       5.322   3.673  16.760  0.00  0.00    +0.000 N 
ATOM     10  H   UNL     1       5.297   2.701  17.069  0.00  0.00    +0.000 HD
BRANCH   9  11
ATOM     11  C   UNL     1       6.452   4.109  15.959  0.00  0.00    +0.000 C 
BRANCH  11  12
ATOM     12  C   UNL     1       7.468   4.908  16.778  0.00  0.00    +0.000 C 
ATOM     13  C   UNL     1       7.238   4.863  18.281  0.00  0.00    +0.000 C 
ATOM     14  C   UNL     1       7.795   6.190  18.729  0.00  0.00    +0.000 C 
ATOM     15  C   UNL     1       7.431   7.098  17.578  0.00  0.00    +0.000 C 
ATOM     16  O   UNL     1       7.443   6.299  16.390  0.00  0.00    +0.000 OA
ENDBRANCH  11  12
ENDBRANCH   9  11
ENDBRANCH   6   7
BRANCH   1  17
ATOM     17  N   UNL     1       2.171   6.024  18.608  0.00  0.00    +0.000 N 
ATOM     18  H   UNL     1       1.192   6.307  18.481  0.00  0.00    +0.000 HD
BRANCH  17  19
ATOM     19  C   UNL     1       2.722   6.811  19.715  0.00  0.00    +0.000 C 
BRANCH  19  26
ATOM     20  C   UNL     1      -1.904  12.504  22.618  0.00  0.00    +0.000 C 
ATOM     21  C   UNL     1      -1.061  11.329  22.224  0.00  0.00    +0.000 A 
ATOM     22  C   UNL     1      -0.796  10.295  23.198  0.00  0.00    +0.000 A 
ATOM     23  C   UNL     1      -0.054   9.227  22.879  0.00  0.00    +0.000 A 
ATOM     24  C   UNL     1       0.524   9.100  21.510  0.00  0.00    +0.000 A 
ATOM     25  N   UNL     1       1.266   8.069  21.239  0.00  0.00    +0.000 NA
ATOM     26  C   UNL     1       1.802   7.989  19.974  0.00  0.00    +0.000 A 
ATOM     27  C   UNL     1       1.582   8.902  19.021  0.00  0.00    +0.000 A 
ATOM     28  C   UNL     1       0.733  10.063  19.323  0.00  0.00    +0.000 A 
ATOM     29  O   UNL     1       0.548  10.900  18.440  0.00  0.00    +0.000 OA
ATOM     30  N   UNL     1       0.233  10.121  20.615  0.00  0.00    +0.000 N 
ATOM     31  C   UNL     1      -0.546  11.207  20.991  0.00  0.00    +0.000 A 
ENDBRANCH  19  26
ENDBRANCH  17  19
ENDBRANCH   1  17
TORSDOF 6
ENDMDL
MODEL 3
REMARK VINA RESULT:      -9.0      1.557      2.115
REMARK  Name = 
REMARK  7 active torsions:
REMARK  status: ('A' for Active; 'I' for Inactive)
REMARK    1  A    between atoms: C_1  and  C_2
REMARK    2  A    between atoms: C_7  and  C_8
REMARK    3  A    between atoms: C_8  and  N_9
REMARK    4  A    between atoms: N_9  and  C_10
REMARK    5  A    between atoms: C_15  and  C_16
REMARK    6  A    between atoms: N_18  and  C_19
REMARK    7  A    between atoms: C_19  and  C_20
REMARK                            x       y       z     vdW  Elec       q    Type
REMARK                         _______ _______ _______ _____ _____    ______ ____
ROOT
ATOM      1  C   UNL     1       2.189   4.881  19.373  0.00  0.00    +0.000 A 
ATOM      2  C   UNL     1       1.380   4.688  20.510  0.00  0.00    +0.000 A 
ATOM      3  C   UNL     1       1.465   3.531  21.292  0.00  0.00    +0.000 A 
ATOM      4  C   UNL     1       2.356   2.526  20.950  0.00  0.00    +0.000 A 
ATOM      5  C   UNL     1       3.151   2.673  19.816  0.00  0.00    +0.000 A 
ATOM      6  C   UNL     1       3.070   3.828  19.011  0.00  0.00    +0.000 A 
ENDROOT
BRANCH   6   7
ATOM      7  C   UNL     1       3.972   3.835  17.806  0.00  0.00    +0.000 C 
ATOM      8  O   UNL     1       3.571   3.409  16.726  0.00  0.00    +0.000 OA
ATOM      9  N   UNL     1       5.240   4.327  17.974  0.00  0.00    +0.000 N 
ATOM     10  H   UNL     1       5.520   4.606  18.914  0.00  0.00    +0.000 HD
BRANCH   9  11
ATOM     11  C   UNL     1       6.222   4.421  16.909  0.00  0.00    +0.000 C 
BRANCH  11  12
ATOM     12  C   UNL     1       7.408   5.309  17.292  0.00  0.00    +0.000 C 
ATOM     13  C   UNL     1       7.448   5.705  18.760  0.00  0.00    +0.000 C 
ATOM     14  C   UNL     1       8.145   7.040  18.711  0.00  0.00    +0.000 C 
ATOM     15  C   UNL     1       7.628   7.627  17.418  0.00  0.00    +0.000 C 
ATOM     16  O   UNL     1       7.386   6.533  16.526  0.00  0.00    +0.000 OA
ENDBRANCH  11  12
ENDBRANCH   9  11
ENDBRANCH   6   7
BRANCH   1  17
ATOM     17  N   UNL     1       2.024   6.015  18.541  0.00  0.00    +0.000 N 
ATOM     18  H   UNL     1       1.030   6.270  18.526  0.00  0.00    +0.000 HD
BRANCH  17  19
ATOM     19  C   UNL     1       2.790   7.226  18.854  0.00  0.00    +0.000 C 
BRANCH  19  26
ATOM     20  C   UNL     1      -1.769  12.142  23.011  0.00  0.00    +0.000 C 
ATOM     21  C   UNL     1      -0.908  11.096  22.371  0.00  0.00    +0.000 A 
ATOM     22  C   UNL     1      -0.422   9.996  23.173  0.00  0.00    +0.000 A 
ATOM     23  C   UNL     1       0.343   9.039  22.632  0.00  0.00    +0.000 A 
ATOM     24  C   UNL     1       0.718   9.107  21.190  0.00  0.00    +0.000 A 
ATOM     25  N   UNL     1       1.487   8.182  20.701  0.00  0.00    +0.000 NA
ATOM     26  C   UNL     1       1.832   8.281  19.372  0.00  0.00    +0.000 A 
ATOM     27  C   UNL     1       1.403   9.263  18.572  0.00  0.00    +0.000 A 
ATOM     28  C   UNL     1       0.523  10.304  19.121  0.00  0.00    +0.000 A 
ATOM     29  O   UNL     1       0.145  11.206  18.374  0.00  0.00    +0.000 OA
ATOM     30  N   UNL     1       0.219  10.183  20.468  0.00  0.00    +0.000 N 
ATOM     31  C   UNL     1      -0.574  11.149  21.071  0.00  0.00    +0.000 A 
ENDBRANCH  19  26
ENDBRANCH  17  19
ENDBRANCH   1  17
TORSDOF 6
ENDMDL
MODEL 4
REMARK VINA RESULT:      -9.0      1.205      1.709
REMARK  Name = 
REMARK  7 active torsions:
REMARK  status: ('A' for Active; 'I' for Inactive)
REMARK    1  A    between atoms: C_1  and  C_2
REMARK    2  A    between atoms: C_7  and  C_8
REMARK    3  A    between atoms: C_8  and  N_9
REMARK    4  A    between atoms: N_9  and  C_10
REMARK    5  A    between atoms: C_15  and  C_16
REMARK    6  A    between atoms: N_18  and  C_19
REMARK    7  A    between atoms: C_19  and  C_20
REMARK                            x       y       z     vdW  Elec       q    Type
REMARK                         _______ _______ _______ _____ _____    ______ ____
ROOT
ATOM      1  C   UNL     1       2.652   4.766  19.842  0.00  0.00    +0.000 A 
ATOM      2  C   UNL     1       1.346   4.481  20.289  0.00  0.00    +0.000 A 
ATOM      3  C   UNL     1       0.803   3.194  20.216  0.00  0.00    +0.000 A 
ATOM      4  C   UNL     1       1.548   2.155  19.680  0.00  0.00    +0.000 A 
ATOM      5  C   UNL     1       2.831   2.409  19.203  0.00  0.00    +0.000 A 
ATOM      6  C   UNL     1       3.391   3.702  19.260  0.00  0.00    +0.000 A 
ENDROOT
BRANCH   6   7
ATOM      7  C   UNL     1       4.776   3.830  18.687  0.00  0.00    +0.000 C 
ATOM      8  O   UNL     1       5.747   3.961  19.428  0.00  0.00    +0.000 OA
ATOM      9  N   UNL     1       4.895   3.798  17.322  0.00  0.00    +0.000 N 
ATOM     10  H   UNL     1       4.038   3.748  16.771  0.00  0.00    +0.000 HD
BRANCH   9  11
ATOM     11  C   UNL     1       6.160   3.888  16.615  0.00  0.00    +0.000 C 
BRANCH  11  12
ATOM     12  C   UNL     1       6.594   5.338  16.387  0.00  0.00    +0.000 C 
ATOM     13  C   UNL     1       7.560   5.876  17.432  0.00  0.00    +0.000 C 
ATOM     14  C   UNL     1       7.237   7.349  17.436  0.00  0.00    +0.000 C 
ATOM     15  C   UNL     1       5.745   7.353  17.199  0.00  0.00    +0.000 C 
ATOM     16  O   UNL     1       5.444   6.212  16.387  0.00  0.00    +0.000 OA
ENDBRANCH  11  12
ENDBRANCH   9  11
ENDBRANCH   6   7
BRANCH   1  17
ATOM     17  N   UNL     1       3.151   6.091  19.840  0.00  0.00    +0.000 N 
ATOM     18  H   UNL     1       4.176   6.057  19.877  0.00  0.00    +0.000 HD
BRANCH  17  19
ATOM     19  C   UNL     1       2.774   6.976  18.733  0.00  0.00    +0.000 C 
BRANCH  19  26
ATOM     20  C   UNL     1      -1.405  12.105  23.028  0.00  0.00    +0.000 C 
ATOM     21  C   UNL     1      -0.629  11.013  22.356  0.00  0.00    +0.000 A 
ATOM     22  C   UNL     1      -0.263   9.840  23.117  0.00  0.00    +0.000 A 
ATOM     23  C   UNL     1       0.423   8.841  22.546  0.00  0.00    +0.000 A 
ATOM     24  C   UNL     1       0.833   8.936  21.116  0.00  0.00    +0.000 A 
ATOM     25  N   UNL     1       1.525   7.967  20.599  0.00  0.00    +0.000 NA
ATOM     26  C   UNL     1       1.906   8.091  19.282  0.00  0.00    +0.000 A 
ATOM     27  C   UNL     1       1.585   9.142  18.519  0.00  0.00    +0.000 A 
ATOM     28  C   UNL     1       0.792  10.235  19.099  0.00  0.00    +0.000 A 
ATOM     29  O   UNL     1       0.514  11.199  18.388  0.00  0.00    +0.000 OA
ATOM     30  N   UNL     1       0.450  10.084  20.434  0.00  0.00    +0.000 N 
ATOM     31  C   UNL     1      -0.265  11.092  21.067  0.00  0.00    +0.000 A 
ENDBRANCH  19  26
ENDBRANCH  17  19
ENDBRANCH   1  17
TORSDOF 6
ENDMDL
MODEL 5
REMARK VINA RESULT:      -8.9      0.966      1.146
REMARK  Name = 
REMARK  7 active torsions:
REMARK  status: ('A' for Active; 'I' for Inactive)
REMARK    1  A    between atoms: C_1  and  C_2
REMARK    2  A    between atoms: C_7  and  C_8
REMARK    3  A    between atoms: C_8  and  N_9
REMARK    4  A    between atoms: N_9  and  C_10
REMARK    5  A    between atoms: C_15  and  C_16
REMARK    6  A    between atoms: N_18  and  C_19
REMARK    7  A    between atoms: C_19  and  C_20
REMARK                            x       y       z     vdW  Elec       q    Type
REMARK                         _______ _______ _______ _____ _____    ______ ____
ROOT
ATOM      1  C   UNL     1       2.539   5.142  20.016  0.00  0.00    +0.000 A 
ATOM      2  C   UNL     1       1.236   4.701  20.323  0.00  0.00    +0.000 A 
ATOM      3  C   UNL     1       0.867   3.356  20.224  0.00  0.00    +0.000 A 
ATOM      4  C   UNL     1       1.789   2.412  19.801  0.00  0.00    +0.000 A 
ATOM      5  C   UNL     1       3.078   2.819  19.463  0.00  0.00    +0.000 A 
ATOM      6  C   UNL     1       3.464   4.172  19.548  0.00  0.00    +0.000 A 
ENDROOT
BRANCH   6   7
ATOM      7  C   UNL     1       4.879   4.465  19.128  0.00  0.00    +0.000 C 
ATOM      8  O   UNL     1       5.762   3.626  19.288  0.00  0.00    +0.000 OA
ATOM      9  N   UNL     1       5.128   5.694  18.575  0.00  0.00    +0.000 N 
ATOM     10  H   UNL     1       4.357   6.359  18.530  0.00  0.00    +0.000 HD
BRANCH   9  11
ATOM     11  C   UNL     1       6.432   6.121  18.101  0.00  0.00    +0.000 C 
BRANCH  11  12
ATOM     12  C   UNL     1       6.593   5.924  16.592  0.00  0.00    +0.000 C 
ATOM     13  C   UNL     1       5.284   5.762  15.836  0.00  0.00    +0.000 C 
ATOM     14  C   UNL     1       5.693   4.897  14.672  0.00  0.00    +0.000 C 
ATOM     15  C   UNL     1       6.734   3.994  15.291  0.00  0.00    +0.000 C 
ATOM     16  O   UNL     1       7.384   4.746  16.322  0.00  0.00    +0.000 OA
ENDBRANCH  11  12
ENDBRANCH   9  11
ENDBRANCH   6   7
BRANCH   1  17
ATOM     17  N   UNL     1       2.868   6.519  20.034  0.00  0.00    +0.000 N 
ATOM     18  H   UNL     1       3.887   6.613  20.123  0.00  0.00    +0.000 HD
BRANCH  17  19
ATOM     19  C   UNL     1       2.441   7.353  18.907  0.00  0.00    +0.000 C 
BRANCH  19  26
ATOM     20  C   UNL     1      -1.890  12.436  23.106  0.00  0.00    +0.000 C 
ATOM     21  C   UNL     1      -1.081  11.356  22.455  0.00  0.00    +0.000 A 
ATOM     22  C   UNL     1      -0.669  10.214  23.241  0.00  0.00    +0.000 A 
ATOM     23  C   UNL     1       0.048   9.227  22.690  0.00  0.00    +0.000 A 
ATOM     24  C   UNL     1       0.446   9.302  21.255  0.00  0.00    +0.000 A 
ATOM     25  N   UNL     1       1.169   8.345  20.757  0.00  0.00    +0.000 NA
ATOM     26  C   UNL     1       1.538   8.451  19.435  0.00  0.00    +0.000 A 
ATOM     27  C   UNL     1       1.175   9.471  18.649  0.00  0.00    +0.000 A 
ATOM     28  C   UNL     1       0.348  10.549  19.208  0.00  0.00    +0.000 A 
ATOM     29  O   UNL     1       0.032  11.486  18.476  0.00  0.00    +0.000 OA
ATOM     30  N   UNL     1       0.019  10.419  20.549  0.00  0.00    +0.000 N 
ATOM     31  C   UNL     1      -0.727  11.416  21.162  0.00  0.00    +0.000 A 
ENDBRANCH  19  26
ENDBRANCH  17  19
ENDBRANCH   1  17
TORSDOF 6
ENDMDL
MODEL 6
REMARK VINA RESULT:      -8.9      1.948      4.439
REMARK  Name = 
REMARK  7 active torsions:
REMARK  status: ('A' for Active; 'I' for Inactive)
REMARK    1  A    between atoms: C_1  and  C_2
REMARK    2  A    between atoms: C_7  and  C_8
REMARK    3  A    between atoms: C_8  and  N_9
REMARK    4  A    between atoms: N_9  and  C_10
REMARK    5  A    between atoms: C_15  and  C_16
REMARK    6  A    between atoms: N_18  and  C_19
REMARK    7  A    between atoms: C_19  and  C_20
REMARK                            x       y       z     vdW  Elec       q    Type
REMARK                         _______ _______ _______ _____ _____    ______ ____
ROOT
ATOM      1  C   UNL     1       4.768   6.292  17.447  0.00  0.00    +0.000 A 
ATOM      2  C   UNL     1       5.862   7.179  17.389  0.00  0.00    +0.000 A 
ATOM      3  C   UNL     1       7.172   6.728  17.202  0.00  0.00    +0.000 A 
ATOM      4  C   UNL     1       7.429   5.371  17.082  0.00  0.00    +0.000 A 
ATOM      5  C   UNL     1       6.374   4.465  17.163  0.00  0.00    +0.000 A 
ATOM      6  C   UNL     1       5.048   4.902  17.361  0.00  0.00    +0.000 A 
ENDROOT
BRANCH   6   7
ATOM      7  C   UNL     1       4.018   3.809  17.452  0.00  0.00    +0.000 C 
ATOM      8  O   UNL     1       3.008   3.846  16.753  0.00  0.00    +0.000 OA
ATOM      9  N   UNL     1       4.257   2.795  18.342  0.00  0.00    +0.000 N 
ATOM     10  H   UNL     1       5.087   2.865  18.931  0.00  0.00    +0.000 HD
BRANCH   9  11
ATOM     11  C   UNL     1       3.373   1.659  18.534  0.00  0.00    +0.000 C 
BRANCH  11  12
ATOM     12  C   UNL     1       2.402   1.872  19.697  0.00  0.00    +0.000 C 
ATOM     13  C   UNL     1       1.150   2.656  19.335  0.00  0.00    +0.000 C 
ATOM     14  C   UNL     1       0.806   3.330  20.639  0.00  0.00    +0.000 C 
ATOM     15  C   UNL     1       2.170   3.624  21.219  0.00  0.00    +0.000 C 
ATOM     16  O   UNL     1       3.052   2.589  20.769  0.00  0.00    +0.000 OA
ENDBRANCH  11  12
ENDBRANCH   9  11
ENDBRANCH   6   7
BRANCH   1  17
ATOM     17  N   UNL     1       3.461   6.759  17.728  0.00  0.00    +0.000 N 
ATOM     18  H   UNL     1       2.812   6.348  17.048  0.00  0.00    +0.000 HD
BRANCH  17  19
ATOM     19  C   UNL     1       2.910   6.527  19.066  0.00  0.00    +0.000 C 
BRANCH  19  26
ATOM     20  C   UNL     1      -1.249  12.210  22.621  0.00  0.00    +0.000 C 
ATOM     21  C   UNL     1      -0.497  11.025  22.095  0.00  0.00    +0.000 A 
ATOM     22  C   UNL     1      -0.276   9.890  22.963  0.00  0.00    +0.000 A 
ATOM     23  C   UNL     1       0.385   8.811  22.524  0.00  0.00    +0.000 A 
ATOM     24  C   UNL     1       0.917   8.775  21.132  0.00  0.00    +0.000 A 
ATOM     25  N   UNL     1       1.581   7.729  20.744  0.00  0.00    +0.000 NA
ATOM     26  C   UNL     1       2.078   7.731  19.460  0.00  0.00    +0.000 A 
ATOM     27  C   UNL     1       1.893   8.741  18.602  0.00  0.00    +0.000 A 
ATOM     28  C   UNL     1       1.132   9.921  19.035  0.00  0.00    +0.000 A 
ATOM     29  O   UNL     1       0.979  10.845  18.237  0.00  0.00    +0.000 OA
ATOM     30  N   UNL     1       0.671   9.891  20.342  0.00  0.00    +0.000 N 
ATOM     31  C   UNL     1      -0.023  10.985  20.840  0.00  0.00    +0.000 A 
ENDBRANCH  19  26
ENDBRANCH  17  19
ENDBRANCH   1  17
TORSDOF 6
ENDMDL
MODEL 7
REMARK VINA RESULT:      -8.9      1.815      2.631
REMARK  Name = 
REMARK  7 active torsions:
REMARK  status: ('A' for Active; 'I' for Inactive)
REMARK    1  A    between atoms: C_1  and  C_2
REMARK    2  A    between atoms: C_7  and  C_8
REMARK    3  A    between atoms: C_8  and  N_9
REMARK    4  A    between atoms: N_9  and  C_10
REMARK    5  A    between atoms: C_15  and  C_16
REMARK    6  A    between atoms: N_18  and  C_19
REMARK    7  A    between atoms: C_19  and  C_20
REMARK                            x       y       z     vdW  Elec       q    Type
REMARK                         _______ _______ _______ _____ _____    ______ ____
ROOT
ATOM      1  C   UNL     1       2.594   5.289  19.816  0.00  0.00    +0.000 A 
ATOM      2  C   UNL     1       1.640   4.762  20.709  0.00  0.00    +0.000 A 
ATOM      3  C   UNL     1       1.232   3.425  20.652  0.00  0.00    +0.000 A 
ATOM      4  C   UNL     1       1.760   2.579  19.690  0.00  0.00    +0.000 A 
ATOM      5  C   UNL     1       2.684   3.075  18.775  0.00  0.00    +0.000 A 
ATOM      6  C   UNL     1       3.099   4.423  18.811  0.00  0.00    +0.000 A 
ENDROOT
BRANCH   6   7
ATOM      7  C   UNL     1       4.084   4.821  17.746  0.00  0.00    +0.000 C 
ATOM      8  O   UNL     1       3.928   5.862  17.112  0.00  0.00    +0.000 OA
ATOM      9  N   UNL     1       5.139   3.976  17.519  0.00  0.00    +0.000 N 
ATOM     10  H   UNL     1       5.167   3.101  18.042  0.00  0.00    +0.000 HD
BRANCH   9  11
ATOM     11  C   UNL     1       6.183   4.226  16.542  0.00  0.00    +0.000 C 
BRANCH  11  12
ATOM     12  C   UNL     1       7.338   5.043  17.126  0.00  0.00    +0.000 C 
ATOM     13  C   UNL     1       7.259   5.257  18.630  0.00  0.00    +0.000 C 
ATOM     14  C   UNL     1       7.965   6.578  18.801  0.00  0.00    +0.000 C 
ATOM     15  C   UNL     1       7.559   7.325  17.552  0.00  0.00    +0.000 C 
ATOM     16  O   UNL     1       7.386   6.351  16.516  0.00  0.00    +0.000 OA
ENDBRANCH  11  12
ENDBRANCH   9  11
ENDBRANCH   6   7
BRANCH   1  17
ATOM     17  N   UNL     1       2.926   6.666  19.830  0.00  0.00    +0.000 N 
ATOM     18  H   UNL     1       3.908   6.770  19.548  0.00  0.00    +0.000 HD
BRANCH  17  19
ATOM     19  C   UNL     1       2.127   7.584  19.012  0.00  0.00    +0.000 C 
BRANCH  19  26
ATOM     20  C   UNL     1      -2.324  13.099  22.475  0.00  0.00    +0.000 C 
ATOM     21  C   UNL     1      -1.518  12.137  21.656  0.00  0.00    +0.000 A 
ATOM     22  C   UNL     1      -1.606  12.195  20.215  0.00  0.00    +0.000 A 
ATOM     23  C   UNL     1      -0.894  11.356  19.451  0.00  0.00    +0.000 A 
ATOM     24  C   UNL     1      -0.010  10.336  20.084  0.00  0.00    +0.000 A 
ATOM     25  N   UNL     1       0.644   9.515  19.320  0.00  0.00    +0.000 NA
ATOM     26  C   UNL     1       1.437   8.572  19.933  0.00  0.00    +0.000 A 
ATOM     27  C   UNL     1       1.576   8.477  21.260  0.00  0.00    +0.000 A 
ATOM     28  C   UNL     1       0.846   9.412  22.127  0.00  0.00    +0.000 A 
ATOM     29  O   UNL     1       0.975   9.306  23.345  0.00  0.00    +0.000 OA
ATOM     30  N   UNL     1       0.038  10.330  21.472  0.00  0.00    +0.000 N 
ATOM     31  C   UNL     1      -0.715  11.223  22.222  0.00  0.00    +0.000 A 
ENDBRANCH  19  26
ENDBRANCH  17  19
ENDBRANCH   1  17
TORSDOF 6
ENDMDL
MODEL 8
REMARK VINA RESULT:      -8.8      1.559      4.414
REMARK  Name = 
REMARK  7 active torsions:
REMARK  status: ('A' for Active; 'I' for Inactive)
REMARK    1  A    between atoms: C_1  and  C_2
REMARK    2  A    between atoms: C_7  and  C_8
REMARK    3  A    between atoms: C_8  and  N_9
REMARK    4  A    between atoms: N_9  and  C_10
REMARK    5  A    between atoms: C_15  and  C_16
REMARK    6  A    between atoms: N_18  and  C_19
REMARK    7  A    between atoms: C_19  and  C_20
REMARK                            x       y       z     vdW  Elec       q    Type
REMARK                         _______ _______ _______ _____ _____    ______ ____
ROOT
ATOM      1  C   UNL     1       4.768   5.848  16.993  0.00  0.00    +0.000 A 
ATOM      2  C   UNL     1       5.074   6.524  15.795  0.00  0.00    +0.000 A 
ATOM      3  C   UNL     1       5.670   5.874  14.710  0.00  0.00    +0.000 A 
ATOM      4  C   UNL     1       5.990   4.528  14.797  0.00  0.00    +0.000 A 
ATOM      5  C   UNL     1       5.727   3.838  15.977  0.00  0.00    +0.000 A 
ATOM      6  C   UNL     1       5.136   4.480  17.085  0.00  0.00    +0.000 A 
ENDROOT
BRANCH   6   7
ATOM      7  C   UNL     1       4.934   3.613  18.298  0.00  0.00    +0.000 C 
ATOM      8  O   UNL     1       5.548   3.843  19.337  0.00  0.00    +0.000 OA
ATOM      9  N   UNL     1       4.051   2.571  18.184  0.00  0.00    +0.000 N 
ATOM     10  H   UNL     1       3.625   2.407  17.272  0.00  0.00    +0.000 HD
BRANCH   9  11
ATOM     11  C   UNL     1       3.731   1.657  19.266  0.00  0.00    +0.000 C 
BRANCH  11  12
ATOM     12  C   UNL     1       2.467   2.074  20.021  0.00  0.00    +0.000 C 
ATOM     13  C   UNL     1       1.508   2.936  19.214  0.00  0.00    +0.000 C 
ATOM     14  C   UNL     1       0.843   3.763  20.284  0.00  0.00    +0.000 C 
ATOM     15  C   UNL     1       1.968   3.980  21.269  0.00  0.00    +0.000 C 
ATOM     16  O   UNL     1       2.815   2.827  21.204  0.00  0.00    +0.000 OA
ENDBRANCH  11  12
ENDBRANCH   9  11
ENDBRANCH   6   7
BRANCH   1  17
ATOM     17  N   UNL     1       4.249   6.543  18.113  0.00  0.00    +0.000 N 
ATOM     18  H   UNL     1       4.278   7.550  17.918  0.00  0.00    +0.000 HD
BRANCH  17  19
ATOM     19  C   UNL     1       2.895   6.216  18.571  0.00  0.00    +0.000 C 
BRANCH  19  26
ATOM     20  C   UNL     1      -0.616  12.244  22.254  0.00  0.00    +0.000 C 
ATOM     21  C   UNL     1      -0.003  10.994  21.700  0.00  0.00    +0.000 A 
ATOM     22  C   UNL     1       0.061   9.813  22.530  0.00  0.00    +0.000 A 
ATOM     23  C   UNL     1       0.595   8.676  22.064  0.00  0.00    +0.000 A 
ATOM     24  C   UNL     1       1.148   8.621  20.681  0.00  0.00    +0.000 A 
ATOM     25  N   UNL     1       1.688   7.515  20.268  0.00  0.00    +0.000 NA
ATOM     26  C   UNL     1       2.207   7.500  18.993  0.00  0.00    +0.000 A 
ATOM     27  C   UNL     1       2.164   8.553  18.168  0.00  0.00    +0.000 A 
ATOM     28  C   UNL     1       1.543   9.801  18.630  0.00  0.00    +0.000 A 
ATOM     29  O   UNL     1       1.520  10.763  17.863  0.00  0.00    +0.000 OA
ATOM     30  N   UNL     1       1.054   9.785  19.927  0.00  0.00    +0.000 N 
ATOM     31  C   UNL     1       0.488  10.938  20.451  0.00  0.00    +0.000 A 
ENDBRANCH  19  26
ENDBRANCH  17  19
ENDBRANCH   1  17
TORSDOF 6
ENDMDL
MODEL 9
REMARK VINA RESULT:      -8.8      1.590      2.180
REMARK  Name = 
REMARK  7 active torsions:
REMARK  status: ('A' for Active; 'I' for Inactive)
REMARK    1  A    between atoms: C_1  and  C_2
REMARK    2  A    between atoms: C_7  and  C_8
REMARK    3  A    between atoms: C_8  and  N_9
REMARK    4  A    between atoms: N_9  and  C_10
REMARK    5  A    between atoms: C_15  and  C_16
REMARK    6  A    between atoms: N_18  and  C_19
REMARK    7  A    between atoms: C_19  and  C_20
REMARK                            x       y       z     vdW  Elec       q    Type
REMARK                         _______ _______ _______ _____ _____    ______ ____
ROOT
ATOM      1  C   UNL     1       2.426   5.338  20.125  0.00  0.00    +0.000 A 
ATOM      2  C   UNL     1       1.154   4.783  20.367  0.00  0.00    +0.000 A 
ATOM      3  C   UNL     1       0.862   3.446  20.078  0.00  0.00    +0.000 A 
ATOM      4  C   UNL     1       1.833   2.627  19.525  0.00  0.00    +0.000 A 
ATOM      5  C   UNL     1       3.093   3.151  19.247  0.00  0.00    +0.000 A 
ATOM      6  C   UNL     1       3.401   4.499  19.523  0.00  0.00    +0.000 A 
ENDROOT
BRANCH   6   7
ATOM      7  C   UNL     1       4.794   4.930  19.148  0.00  0.00    +0.000 C 
ATOM      8  O   UNL     1       5.771   4.358  19.623  0.00  0.00    +0.000 OA
ATOM      9  N   UNL     1       4.911   5.977  18.271  0.00  0.00    +0.000 N 
ATOM     10  H   UNL     1       4.055   6.440  17.967  0.00  0.00    +0.000 HD
BRANCH   9  11
ATOM     11  C   UNL     1       6.180   6.498  17.795  0.00  0.00    +0.000 C 
BRANCH  11  12
ATOM     12  C   UNL     1       6.505   6.025  16.377  0.00  0.00    +0.000 C 
ATOM     13  C   UNL     1       5.287   5.793  15.497  0.00  0.00    +0.000 C 
ATOM     14  C   UNL     1       5.769   4.714  14.562  0.00  0.00    +0.000 C 
ATOM     15  C   UNL     1       6.663   3.888  15.457  0.00  0.00    +0.000 C 
ATOM     16  O   UNL     1       7.237   4.780  16.418  0.00  0.00    +0.000 OA
ENDBRANCH  11  12
ENDBRANCH   9  11
ENDBRANCH   6   7
BRANCH   1  17
ATOM     17  N   UNL     1       2.676   6.715  20.337  0.00  0.00    +0.000 N 
ATOM     18  H   UNL     1       3.688   6.878  20.282  0.00  0.00    +0.000 HD
BRANCH  17  19
ATOM     19  C   UNL     1       2.020   7.687  19.458  0.00  0.00    +0.000 C 
BRANCH  19  26
ATOM     20  C   UNL     1      -2.744  13.153  22.567  0.00  0.00    +0.000 C 
ATOM     21  C   UNL     1      -1.876  12.193  21.811  0.00  0.00    +0.000 A 
ATOM     22  C   UNL     1      -1.918  12.194  20.366  0.00  0.00    +0.000 A 
ATOM     23  C   UNL     1      -1.151  11.356  19.658  0.00  0.00    +0.000 A 
ATOM     24  C   UNL     1      -0.251  10.393  20.357  0.00  0.00    +0.000 A 
ATOM     25  N   UNL     1       0.457   9.571  19.645  0.00  0.00    +0.000 NA
ATOM     26  C   UNL     1       1.264   8.681  20.318  0.00  0.00    +0.000 A 
ATOM     27  C   UNL     1       1.361   8.639  21.652  0.00  0.00    +0.000 A 
ATOM     28  C   UNL     1       0.569   9.578  22.459  0.00  0.00    +0.000 A 
ATOM     29  O   UNL     1       0.662   9.520  23.684  0.00  0.00    +0.000 OA
ATOM     30  N   UNL     1      -0.249  10.440  21.745  0.00  0.00    +0.000 N 
ATOM     31  C   UNL     1      -1.059  11.331  22.436  0.00  0.00    +0.000 A 
ENDBRANCH  19  26
ENDBRANCH  17  19
ENDBRANCH   1  17
TORSDOF 6
ENDMDL
