MODEL 1
REMARK VINA RESULT:      -7.9      0.000      0.000
REMARK  Name = 
REMARK  4 active torsions:
REMARK  status: ('A' for Active; 'I' for Inactive)
REMARK    1  A    between atoms: C_2  and  C_3
REMARK    2  A    between atoms: C_6  and  C_7
REMARK    3  A    between atoms: C_12  and  C_13
REMARK    4  A    between atoms: C_19  and  C_20
REMARK                            x       y       z     vdW  Elec       q    Type
REMARK                         _______ _______ _______ _____ _____    ______ ____
ROOT
ATOM      1  C   UNL     1      -1.252  12.688  19.306  0.00  0.00    +0.000 C 
ATOM      2  N   UNL     1      -2.145  12.227  18.264  0.00  0.00    +0.000 N 
ATOM      3  C   UNL     1      -2.223  10.912  17.936  0.00  0.00    +0.000 C 
ATOM      4  O   UNL     1      -3.187  10.448  17.339  0.00  0.00    +0.000 OA
ATOM      5  N   UNL     1      -1.143  10.159  18.275  0.00  0.00    +0.000 N 
ATOM      6  C   UNL     1       0.030  10.646  18.816  0.00  0.00    +0.000 C 
ATOM      7  C   UNL     1       0.070  11.929  19.253  0.00  0.00    +0.000 C 
ATOM      8  H   UNL     1      -2.994  12.742  18.081  0.00  0.00    +0.000 HD
ATOM      9  H   UNL     1      -1.183   9.191  17.974  0.00  0.00    +0.000 HD
ENDROOT
BRANCH   7  10
ATOM     10  C   UNL     1       1.308  12.572  19.593  0.00  0.00    +0.000 A 
ATOM     11  N   UNL     1       1.767  12.881  20.791  0.00  0.00    +0.000 NA
ATOM     12  C   UNL     1       2.880  13.719  20.699  0.00  0.00    +0.000 A 
ATOM     13  C   UNL     1       3.618  14.271  21.770  0.00  0.00    +0.000 A 
ATOM     14  C   UNL     1       4.685  15.149  21.516  0.00  0.00    +0.000 A 
ATOM     15  C   UNL     1       5.026  15.484  20.211  0.00  0.00    +0.000 A 
ATOM     16  C   UNL     1       4.327  14.937  19.132  0.00  0.00    +0.000 A 
ATOM     17  C   UNL     1       3.263  14.053  19.400  0.00  0.00    +0.000 A 
ATOM     18  S   UNL     1       2.243  13.236  18.289  0.00  0.00    +0.000 S 
ENDBRANCH   7  10
BRANCH   1  22
ATOM     19  C   UNL     1      -3.345  12.490  23.120  0.00  0.00    +0.000 A 
ATOM     20  C   UNL     1      -2.112  11.857  22.974  0.00  0.00    +0.000 A 
ATOM     21  C   UNL     1      -1.440  11.913  21.752  0.00  0.00    +0.000 A 
ATOM     22  C   UNL     1      -1.969  12.621  20.657  0.00  0.00    +0.000 A 
ATOM     23  C   UNL     1      -3.231  13.218  20.808  0.00  0.00    +0.000 A 
ATOM     24  C   UNL     1      -3.910  13.159  22.030  0.00  0.00    +0.000 A 
BRANCH  19  26
ATOM     25  N   UNL     1      -4.573  12.421  25.403  0.00  0.00    +0.000 NA
ATOM     26  C   UNL     1      -4.020  12.456  24.382  0.00  0.00    +0.000 C 
ENDBRANCH  19  26
ENDBRANCH   1  22
BRANCH   6  27
ATOM     27  C   UNL     1       1.084   9.623  18.902  0.00  0.00    +0.000 A 
ATOM     28  C   UNL     1       1.159   8.840  20.064  0.00  0.00    +0.000 A 
ATOM     29  C   UNL     1       1.935   7.681  20.088  0.00  0.00    +0.000 A 
ATOM     30  C   UNL     1       2.649   7.302  18.954  0.00  0.00    +0.000 A 
ATOM     31  C   UNL     1       2.599   8.088  17.802  0.00  0.00    +0.000 A 
ATOM     32  C   UNL     1       1.816   9.245  17.772  0.00  0.00    +0.000 A 
ENDBRANCH   6  27
TORSDOF 4
ENDMDL
MODEL 2
REMARK VINA RESULT:      -7.2      0.893      1.546
REMARK  Name = 
REMARK  4 active torsions:
REMARK  status: ('A' for Active; 'I' for Inactive)
REMARK    1  A    between atoms: C_2  and  C_3
REMARK    2  A    between atoms: C_6  and  C_7
REMARK    3  A    between atoms: C_12  and  C_13
REMARK    4  A    between atoms: C_19  and  C_20
REMARK                            x       y       z     vdW  Elec       q    Type
REMARK                         _______ _______ _______ _____ _____    ______ ____
ROOT
ATOM      1  C   UNL     1      -1.934  12.567  19.138  0.00  0.00    +0.000 C 
ATOM      2  N   UNL     1      -2.821  11.894  18.213  0.00  0.00    +0.000 N 
ATOM      3  C   UNL     1      -2.744  10.553  18.016  0.00  0.00    +0.000 C 
ATOM      4  O   UNL     1      -3.673   9.914  17.539  0.00  0.00    +0.000 OA
ATOM      5  N   UNL     1      -1.555   9.980  18.342  0.00  0.00    +0.000 N 
ATOM      6  C   UNL     1      -0.426  10.663  18.745  0.00  0.00    +0.000 C 
ATOM      7  C   UNL     1      -0.528  11.979  19.057  0.00  0.00    +0.000 C 
ATOM      8  H   UNL     1      -3.740  12.278  18.048  0.00  0.00    +0.000 HD
ATOM      9  H   UNL     1      -1.486   8.989  18.136  0.00  0.00    +0.000 HD
ENDROOT
BRANCH   7  10
ATOM     10  C   UNL     1       0.633  12.804  19.241  0.00  0.00    +0.000 A 
ATOM     11  N   UNL     1       1.436  13.301  18.320  0.00  0.00    +0.000 NA
ATOM     12  C   UNL     1       2.590  13.834  18.899  0.00  0.00    +0.000 A 
ATOM     13  C   UNL     1       3.681  14.429  18.225  0.00  0.00    +0.000 A 
ATOM     14  C   UNL     1       4.803  14.869  18.946  0.00  0.00    +0.000 A 
ATOM     15  C   UNL     1       4.852  14.728  20.327  0.00  0.00    +0.000 A 
ATOM     16  C   UNL     1       3.779  14.163  21.022  0.00  0.00    +0.000 A 
ATOM     17  C   UNL     1       2.658  13.730  20.288  0.00  0.00    +0.000 A 
ATOM     18  S   UNL     1       1.210  13.012  20.866  0.00  0.00    +0.000 S 
ENDBRANCH   7  10
BRANCH   1  22
ATOM     19  C   UNL     1      -3.631  12.530  23.149  0.00  0.00    +0.000 A 
ATOM     20  C   UNL     1      -4.378  13.035  22.086  0.00  0.00    +0.000 A 
ATOM     21  C   UNL     1      -3.837  13.054  20.799  0.00  0.00    +0.000 A 
ATOM     22  C   UNL     1      -2.549  12.549  20.539  0.00  0.00    +0.000 A 
ATOM     23  C   UNL     1      -1.794  12.082  21.627  0.00  0.00    +0.000 A 
ATOM     24  C   UNL     1      -2.332  12.067  22.919  0.00  0.00    +0.000 A 
BRANCH  19  26
ATOM     25  N   UNL     1      -4.655  12.457  25.530  0.00  0.00    +0.000 NA
ATOM     26  C   UNL     1      -4.198  12.485  24.462  0.00  0.00    +0.000 C 
ENDBRANCH  19  26
ENDBRANCH   1  22
BRANCH   6  27
ATOM     27  C   UNL     1       0.758   9.795  18.846  0.00  0.00    +0.000 A 
ATOM     28  C   UNL     1       0.953   9.071  20.033  0.00  0.00    +0.000 A 
ATOM     29  C   UNL     1       1.878   8.028  20.081  0.00  0.00    +0.000 A 
ATOM     30  C   UNL     1       2.622   7.708  18.948  0.00  0.00    +0.000 A 
ATOM     31  C   UNL     1       2.451   8.439  17.772  0.00  0.00    +0.000 A 
ATOM     32  C   UNL     1       1.520   9.479  17.717  0.00  0.00    +0.000 A 
ENDBRANCH   6  27
TORSDOF 4
ENDMDL
MODEL 3
REMARK VINA RESULT:      -7.1      2.433      6.333
REMARK  Name = 
REMARK  4 active torsions:
REMARK  status: ('A' for Active; 'I' for Inactive)
REMARK    1  A    between atoms: C_2  and  C_3
REMARK    2  A    between atoms: C_6  and  C_7
REMARK    3  A    between atoms: C_12  and  C_13
REMARK    4  A    between atoms: C_19  and  C_20
REMARK                            x       y       z     vdW  Elec       q    Type
REMARK                         _______ _______ _______ _____ _____    ______ ____
ROOT
ATOM      1  C   UNL     1      -1.755  10.737  19.425  0.00  0.00    +0.000 C 
ATOM      2  N   UNL     1      -2.489  11.735  20.173  0.00  0.00    +0.000 N 
ATOM      3  C   UNL     1      -2.125  13.043  20.144  0.00  0.00    +0.000 C 
ATOM      4  O   UNL     1      -2.900  13.939  20.455  0.00  0.00    +0.000 OA
ATOM      5  N   UNL     1      -0.834  13.284  19.790  0.00  0.00    +0.000 N 
ATOM      6  C   UNL     1       0.125  12.317  19.569  0.00  0.00    +0.000 C 
ATOM      7  C   UNL     1      -0.257  11.018  19.479  0.00  0.00    +0.000 C 
ATOM      8  H   UNL     1      -3.472  11.591  20.351  0.00  0.00    +0.000 HD
ATOM      9  H   UNL     1      -0.554  14.258  19.828  0.00  0.00    +0.000 HD
ENDROOT
BRANCH   7  10
ATOM     10  C   UNL     1       0.699   9.947  19.500  0.00  0.00    +0.000 A 
ATOM     11  N   UNL     1       1.481   9.531  18.522  0.00  0.00    +0.000 NA
ATOM     12  C   UNL     1       2.082   8.313  18.847  0.00  0.00    +0.000 A 
ATOM     13  C   UNL     1       2.961   7.557  18.038  0.00  0.00    +0.000 A 
ATOM     14  C   UNL     1       3.440   6.314  18.484  0.00  0.00    +0.000 A 
ATOM     15  C   UNL     1       3.059   5.816  19.724  0.00  0.00    +0.000 A 
ATOM     16  C   UNL     1       2.209   6.552  20.554  0.00  0.00    +0.000 A 
ATOM     17  C   UNL     1       1.738   7.799  20.097  0.00  0.00    +0.000 A 
ATOM     18  S   UNL     1       0.700   8.909  20.892  0.00  0.00    +0.000 S 
ENDBRANCH   7  10
BRANCH   1  22
ATOM     19  C   UNL     1      -3.379  10.392  15.398  0.00  0.00    +0.000 A 
ATOM     20  C   UNL     1      -4.002  11.226  16.326  0.00  0.00    +0.000 A 
ATOM     21  C   UNL     1      -3.488  11.335  17.619  0.00  0.00    +0.000 A 
ATOM     22  C   UNL     1      -2.330  10.637  18.009  0.00  0.00    +0.000 A 
ATOM     23  C   UNL     1      -1.740   9.770  17.075  0.00  0.00    +0.000 A 
ATOM     24  C   UNL     1      -2.256   9.653  15.779  0.00  0.00    +0.000 A 
BRANCH  19  26
ATOM     25  N   UNL     1      -4.297  10.225  12.978  0.00  0.00    +0.000 NA
ATOM     26  C   UNL     1      -3.890  10.302  14.064  0.00  0.00    +0.000 C 
ENDBRANCH  19  26
ENDBRANCH   1  22
BRANCH   6  27
ATOM     27  C   UNL     1       1.471  12.882  19.386  0.00  0.00    +0.000 A 
ATOM     28  C   UNL     1       1.882  13.216  18.086  0.00  0.00    +0.000 A 
ATOM     29  C   UNL     1       3.010  14.010  17.882  0.00  0.00    +0.000 A 
ATOM     30  C   UNL     1       3.742  14.468  18.976  0.00  0.00    +0.000 A 
ATOM     31  C   UNL     1       3.354  14.121  20.270  0.00  0.00    +0.000 A 
ATOM     32  C   UNL     1       2.220  13.332  20.478  0.00  0.00    +0.000 A 
ENDBRANCH   6  27
TORSDOF 4
ENDMDL
MODEL 4
REMARK VINA RESULT:      -7.0      1.181      1.481
REMARK  Name = 
REMARK  4 active torsions:
REMARK  status: ('A' for Active; 'I' for Inactive)
REMARK    1  A    between atoms: C_2  and  C_3
REMARK    2  A    between atoms: C_6  and  C_7
REMARK    3  A    between atoms: C_12  and  C_13
REMARK    4  A    between atoms: C_19  and  C_20
REMARK                            x       y       z     vdW  Elec       q    Type
REMARK                         _______ _______ _______ _____ _____    ______ ____
ROOT
ATOM      1  C   UNL     1      -1.323  12.409  18.134  0.00  0.00    +0.000 C 
ATOM      2  N   UNL     1      -1.893  11.801  16.950  0.00  0.00    +0.000 N 
ATOM      3  C   UNL     1      -1.889  10.454  16.780  0.00  0.00    +0.000 C 
ATOM      4  O   UNL     1      -2.652   9.897  16.002  0.00  0.00    +0.000 OA
ATOM      5  N   UNL     1      -0.955   9.776  17.498  0.00  0.00    +0.000 N 
ATOM      6  C   UNL     1       0.025  10.355  18.279  0.00  0.00    +0.000 C 
ATOM      7  C   UNL     1      -0.046  11.683  18.547  0.00  0.00    +0.000 C 
ATOM      8  H   UNL     1      -2.652  12.268  16.476  0.00  0.00    +0.000 HD
ATOM      9  H   UNL     1      -0.919   8.778  17.321  0.00  0.00    +0.000 HD
ENDROOT
BRANCH   7  10
ATOM     10  C   UNL     1       1.055  12.394  19.135  0.00  0.00    +0.000 A 
ATOM     11  N   UNL     1       1.171  12.841  20.371  0.00  0.00    +0.000 NA
ATOM     12  C   UNL     1       2.269  13.697  20.490  0.00  0.00    +0.000 A 
ATOM     13  C   UNL     1       2.689  14.381  21.654  0.00  0.00    +0.000 A 
ATOM     14  C   UNL     1       3.785  15.258  21.601  0.00  0.00    +0.000 A 
ATOM     15  C   UNL     1       4.468  15.462  20.409  0.00  0.00    +0.000 A 
ATOM     16  C   UNL     1       4.087  14.783  19.248  0.00  0.00    +0.000 A 
ATOM     17  C   UNL     1       2.989  13.903  19.314  0.00  0.00    +0.000 A 
ATOM     18  S   UNL     1       2.308  12.943  18.066  0.00  0.00    +0.000 S 
ENDBRANCH   7  10
BRANCH   1  22
ATOM     19  C   UNL     1      -4.335  12.694  21.266  0.00  0.00    +0.000 A 
ATOM     20  C   UNL     1      -4.667  12.124  20.037  0.00  0.00    +0.000 A 
ATOM     21  C   UNL     1      -3.706  12.035  19.028  0.00  0.00    +0.000 A 
ATOM     22  C   UNL     1      -2.389  12.489  19.229  0.00  0.00    +0.000 A 
ATOM     23  C   UNL     1      -2.084  13.098  20.457  0.00  0.00    +0.000 A 
ATOM     24  C   UNL     1      -3.046  13.194  21.469  0.00  0.00    +0.000 A 
BRANCH  19  26
ATOM     25  N   UNL     1      -6.113  12.815  23.150  0.00  0.00    +0.000 NA
ATOM     26  C   UNL     1      -5.313  12.758  22.309  0.00  0.00    +0.000 C 
ENDBRANCH  19  26
ENDBRANCH   1  22
BRANCH   6  27
ATOM     27  C   UNL     1       1.003   9.378  18.782  0.00  0.00    +0.000 A 
ATOM     28  C   UNL     1       0.939   9.007  20.134  0.00  0.00    +0.000 A 
ATOM     29  C   UNL     1       1.635   7.890  20.595  0.00  0.00    +0.000 A 
ATOM     30  C   UNL     1       2.410   7.143  19.711  0.00  0.00    +0.000 A 
ATOM     31  C   UNL     1       2.499   7.519  18.371  0.00  0.00    +0.000 A 
ATOM     32  C   UNL     1       1.796   8.633  17.903  0.00  0.00    +0.000 A 
ENDBRANCH   6  27
TORSDOF 4
ENDMDL
MODEL 5
REMARK VINA RESULT:      -6.8      4.074      7.342
REMARK  Name = 
REMARK  4 active torsions:
REMARK  status: ('A' for Active; 'I' for Inactive)
REMARK    1  A    between atoms: C_2  and  C_3
REMARK    2  A    between atoms: C_6  and  C_7
REMARK    3  A    between atoms: C_12  and  C_13
REMARK    4  A    between atoms: C_19  and  C_20
REMARK                            x       y       z     vdW  Elec       q    Type
REMARK                         _______ _______ _______ _____ _____    ______ ____
ROOT
ATOM      1  C   UNL     1      -2.292  15.416  21.559  0.00  0.00    +0.000 C 
ATOM      2  N   UNL     1      -1.687  15.949  22.761  0.00  0.00    +0.000 N 
ATOM      3  C   UNL     1      -0.542  15.421  23.266  0.00  0.00    +0.000 C 
ATOM      4  O   UNL     1       0.173  16.044  24.039  0.00  0.00    +0.000 OA
ATOM      5  N   UNL     1      -0.271  14.143  22.888  0.00  0.00    +0.000 N 
ATOM      6  C   UNL     1      -1.107  13.339  22.139  0.00  0.00    +0.000 C 
ATOM      7  C   UNL     1      -2.187  13.894  21.536  0.00  0.00    +0.000 C 
ATOM      8  H   UNL     1      -1.817  16.926  22.985  0.00  0.00    +0.000 HD
ATOM      9  H   UNL     1       0.553  13.736  23.316  0.00  0.00    +0.000 HD
ENDROOT
BRANCH   7  10
ATOM     10  C   UNL     1      -3.224  13.087  20.955  0.00  0.00    +0.000 A 
ATOM     11  N   UNL     1      -3.306  12.627  19.721  0.00  0.00    +0.000 NA
ATOM     12  C   UNL     1      -4.575  12.102  19.468  0.00  0.00    +0.000 A 
ATOM     13  C   UNL     1      -5.037  11.544  18.254  0.00  0.00    +0.000 A 
ATOM     14  C   UNL     1      -6.367  11.108  18.136  0.00  0.00    +0.000 A 
ATOM     15  C   UNL     1      -7.242  11.218  19.210  0.00  0.00    +0.000 A 
ATOM     16  C   UNL     1      -6.807  11.745  20.429  0.00  0.00    +0.000 A 
ATOM     17  C   UNL     1      -5.470  12.175  20.536  0.00  0.00    +0.000 A 
ATOM     18  S   UNL     1      -4.666  12.852  21.893  0.00  0.00    +0.000 S 
ENDBRANCH   7  10
BRANCH   1  22
ATOM     19  C   UNL     1      -0.591  17.450  18.105  0.00  0.00    +0.000 A 
ATOM     20  C   UNL     1      -0.076  16.218  18.505  0.00  0.00    +0.000 A 
ATOM     21  C   UNL     1      -0.614  15.564  19.615  0.00  0.00    +0.000 A 
ATOM     22  C   UNL     1      -1.692  16.112  20.335  0.00  0.00    +0.000 A 
ATOM     23  C   UNL     1      -2.172  17.372  19.944  0.00  0.00    +0.000 A 
ATOM     24  C   UNL     1      -1.630  18.033  18.835  0.00  0.00    +0.000 A 
BRANCH  19  26
ATOM     25  N   UNL     1       0.384  18.631  16.011  0.00  0.00    +0.000 NA
ATOM     26  C   UNL     1      -0.057  18.105  16.949  0.00  0.00    +0.000 C 
ENDBRANCH  19  26
ENDBRANCH   1  22
BRANCH   6  27
ATOM     27  C   UNL     1      -0.629  11.951  22.050  0.00  0.00    +0.000 A 
ATOM     28  C   UNL     1      -0.932  11.073  23.102  0.00  0.00    +0.000 A 
ATOM     29  C   UNL     1      -0.764   9.697  22.946  0.00  0.00    +0.000 A 
ATOM     30  C   UNL     1      -0.282   9.189  21.742  0.00  0.00    +0.000 A 
ATOM     31  C   UNL     1       0.043  10.057  20.700  0.00  0.00    +0.000 A 
ATOM     32  C   UNL     1      -0.131  11.435  20.849  0.00  0.00    +0.000 A 
ENDBRANCH   6  27
TORSDOF 4
ENDMDL
MODEL 6
REMARK VINA RESULT:      -6.7      0.436      1.319
REMARK  Name = 
REMARK  4 active torsions:
REMARK  status: ('A' for Active; 'I' for Inactive)
REMARK    1  A    between atoms: C_2  and  C_3
REMARK    2  A    between atoms: C_6  and  C_7
REMARK    3  A    between atoms: C_12  and  C_13
REMARK    4  A    between atoms: C_19  and  C_20
REMARK                            x       y       z     vdW  Elec       q    Type
REMARK                         _______ _______ _______ _____ _____    ______ ____
ROOT
ATOM      1  C   UNL     1      -1.633  12.688  19.335  0.00  0.00    +0.000 C 
ATOM      2  N   UNL     1      -2.591  12.300  18.322  0.00  0.00    +0.000 N 
ATOM      3  C   UNL     1      -2.769  10.997  17.985  0.00  0.00    +0.000 C 
ATOM      4  O   UNL     1      -3.782  10.606  17.419  0.00  0.00    +0.000 OA
ATOM      5  N   UNL     1      -1.731  10.169  18.278  0.00  0.00    +0.000 N 
ATOM      6  C   UNL     1      -0.509  10.571  18.780  0.00  0.00    +0.000 C 
ATOM      7  C   UNL     1      -0.367  11.843  19.228  0.00  0.00    +0.000 C 
ATOM      8  H   UNL     1      -3.410  12.873  18.176  0.00  0.00    +0.000 HD
ATOM      9  H   UNL     1      -1.847   9.210  17.969  0.00  0.00    +0.000 HD
ENDROOT
BRANCH   7  10
ATOM     10  C   UNL     1       0.923  12.397  19.528  0.00  0.00    +0.000 A 
ATOM     11  N   UNL     1       1.452  12.640  20.713  0.00  0.00    +0.000 NA
ATOM     12  C   UNL     1       2.611  13.411  20.593  0.00  0.00    +0.000 A 
ATOM     13  C   UNL     1       3.429  13.882  21.645  0.00  0.00    +0.000 A 
ATOM     14  C   UNL     1       4.536  14.701  21.367  0.00  0.00    +0.000 A 
ATOM     15  C   UNL     1       4.840  15.055  20.058  0.00  0.00    +0.000 A 
ATOM     16  C   UNL     1       4.061  14.586  18.997  0.00  0.00    +0.000 A 
ATOM     17  C   UNL     1       2.956  13.761  19.288  0.00  0.00    +0.000 A 
ATOM     18  S   UNL     1       1.838  13.044  18.202  0.00  0.00    +0.000 S 
ENDBRANCH   7  10
BRANCH   1  22
ATOM     19  C   UNL     1      -3.487  12.592  23.275  0.00  0.00    +0.000 A 
ATOM     20  C   UNL     1      -4.097  13.301  22.241  0.00  0.00    +0.000 A 
ATOM     21  C   UNL     1      -3.504  13.338  20.978  0.00  0.00    +0.000 A 
ATOM     22  C   UNL     1      -2.304  12.652  20.711  0.00  0.00    +0.000 A 
ATOM     23  C   UNL     1      -1.682  11.978  21.774  0.00  0.00    +0.000 A 
ATOM     24  C   UNL     1      -2.271  11.943  23.043  0.00  0.00    +0.000 A 
BRANCH  19  26
ATOM     25  N   UNL     1      -4.616  12.489  25.608  0.00  0.00    +0.000 NA
ATOM     26  C   UNL     1      -4.111  12.530  24.562  0.00  0.00    +0.000 C 
ENDBRANCH  19  26
ENDBRANCH   1  22
BRANCH   6  27
ATOM     27  C   UNL     1       0.476   9.479  18.818  0.00  0.00    +0.000 A 
ATOM     28  C   UNL     1       1.284   9.271  17.689  0.00  0.00    +0.000 A 
ATOM     29  C   UNL     1       2.415   8.458  17.769  0.00  0.00    +0.000 A 
ATOM     30  C   UNL     1       2.740   7.838  18.973  0.00  0.00    +0.000 A 
ATOM     31  C   UNL     1       1.928   8.020  20.093  0.00  0.00    +0.000 A 
ATOM     32  C   UNL     1       0.799   8.841  20.020  0.00  0.00    +0.000 A 
ENDBRANCH   6  27
TORSDOF 4
ENDMDL
MODEL 7
REMARK VINA RESULT:      -6.6      1.023      1.071
REMARK  Name = 
REMARK  4 active torsions:
REMARK  status: ('A' for Active; 'I' for Inactive)
REMARK    1  A    between atoms: C_2  and  C_3
REMARK    2  A    between atoms: C_6  and  C_7
REMARK    3  A    between atoms: C_12  and  C_13
REMARK    4  A    between atoms: C_19  and  C_20
REMARK                            x       y       z     vdW  Elec       q    Type
REMARK                         _______ _______ _______ _____ _____    ______ ____
ROOT
ATOM      1  C   UNL     1      -0.981  13.150  19.298  0.00  0.00    +0.000 C 
ATOM      2  N   UNL     1      -2.042  12.614  18.473  0.00  0.00    +0.000 N 
ATOM      3  C   UNL     1      -2.286  11.280  18.421  0.00  0.00    +0.000 C 
ATOM      4  O   UNL     1      -3.359  10.831  18.038  0.00  0.00    +0.000 OA
ATOM      5  N   UNL     1      -1.247  10.480  18.782  0.00  0.00    +0.000 N 
ATOM      6  C   UNL     1       0.027  10.916  19.083  0.00  0.00    +0.000 C 
ATOM      7  C   UNL     1       0.246  12.244  19.251  0.00  0.00    +0.000 C 
ATOM      8  H   UNL     1      -2.855  13.184  18.287  0.00  0.00    +0.000 HD
ATOM      9  H   UNL     1      -1.419   9.485  18.684  0.00  0.00    +0.000 HD
ENDROOT
BRANCH   7  10
ATOM     10  C   UNL     1       1.573  12.787  19.318  0.00  0.00    +0.000 A 
ATOM     11  N   UNL     1       2.207  13.269  20.371  0.00  0.00    +0.000 NA
ATOM     12  C   UNL     1       3.375  13.933  19.990  0.00  0.00    +0.000 A 
ATOM     13  C   UNL     1       4.292  14.592  20.840  0.00  0.00    +0.000 A 
ATOM     14  C   UNL     1       5.398  15.268  20.298  0.00  0.00    +0.000 A 
ATOM     15  C   UNL     1       5.603  15.295  18.924  0.00  0.00    +0.000 A 
ATOM     16  C   UNL     1       4.725  14.634  18.062  0.00  0.00    +0.000 A 
ATOM     17  C   UNL     1       3.622  13.956  18.618  0.00  0.00    +0.000 A 
ATOM     18  S   UNL     1       2.396  13.064  17.814  0.00  0.00    +0.000 S 
ENDBRANCH   7  10
BRANCH   1  22
ATOM     19  C   UNL     1      -2.559  13.937  23.280  0.00  0.00    +0.000 A 
ATOM     20  C   UNL     1      -1.835  12.770  23.041  0.00  0.00    +0.000 A 
ATOM     21  C   UNL     1      -1.331  12.511  21.766  0.00  0.00    +0.000 A 
ATOM     22  C   UNL     1      -1.517  13.419  20.706  0.00  0.00    +0.000 A 
ATOM     23  C   UNL     1      -2.285  14.569  20.954  0.00  0.00    +0.000 A 
ATOM     24  C   UNL     1      -2.796  14.829  22.230  0.00  0.00    +0.000 A 
BRANCH  19  26
ATOM     25  N   UNL     1      -3.457  14.435  25.662  0.00  0.00    +0.000 NA
ATOM     26  C   UNL     1      -3.051  14.215  24.596  0.00  0.00    +0.000 C 
ENDBRANCH  19  26
ENDBRANCH   1  22
BRANCH   6  27
ATOM     27  C   UNL     1       0.981   9.810  19.252  0.00  0.00    +0.000 A 
ATOM     28  C   UNL     1       0.990   9.118  20.474  0.00  0.00    +0.000 A 
ATOM     29  C   UNL     1       1.654   7.897  20.591  0.00  0.00    +0.000 A 
ATOM     30  C   UNL     1       2.323   7.364  19.493  0.00  0.00    +0.000 A 
ATOM     31  C   UNL     1       2.340   8.056  18.282  0.00  0.00    +0.000 A 
ATOM     32  C   UNL     1       1.669   9.276  18.158  0.00  0.00    +0.000 A 
ENDBRANCH   6  27
TORSDOF 4
ENDMDL
MODEL 8
REMARK VINA RESULT:      -6.5      1.023      1.170
REMARK  Name = 
REMARK  4 active torsions:
REMARK  status: ('A' for Active; 'I' for Inactive)
REMARK    1  A    between atoms: C_2  and  C_3
REMARK    2  A    between atoms: C_6  and  C_7
REMARK    3  A    between atoms: C_12  and  C_13
REMARK    4  A    between atoms: C_19  and  C_20
REMARK                            x       y       z     vdW  Elec       q    Type
REMARK                         _______ _______ _______ _____ _____    ______ ____
ROOT
ATOM      1  C   UNL     1      -0.768  13.199  18.645  0.00  0.00    +0.000 C 
ATOM      2  N   UNL     1      -1.536  12.706  17.521  0.00  0.00    +0.000 N 
ATOM      3  C   UNL     1      -1.757  11.377  17.350  0.00  0.00    +0.000 C 
ATOM      4  O   UNL     1      -2.668  10.957  16.648  0.00  0.00    +0.000 OA
ATOM      5  N   UNL     1      -0.875  10.552  17.973  0.00  0.00    +0.000 N 
ATOM      6  C   UNL     1       0.252  10.960  18.656  0.00  0.00    +0.000 C 
ATOM      7  C   UNL     1       0.414  12.278  18.932  0.00  0.00    +0.000 C 
ATOM      8  H   UNL     1      -2.255  13.293  17.123  0.00  0.00    +0.000 HD
ATOM      9  H   UNL     1      -1.012   9.563  17.792  0.00  0.00    +0.000 HD
ENDROOT
BRANCH   7  10
ATOM     10  C   UNL     1       1.663  12.801  19.411  0.00  0.00    +0.000 A 
ATOM     11  N   UNL     1       2.042  12.992  20.661  0.00  0.00    +0.000 NA
ATOM     12  C   UNL     1       3.215  13.748  20.716  0.00  0.00    +0.000 A 
ATOM     13  C   UNL     1       3.900  14.169  21.879  0.00  0.00    +0.000 A 
ATOM     14  C   UNL     1       5.042  14.980  21.773  0.00  0.00    +0.000 A 
ATOM     15  C   UNL     1       5.512  15.376  20.526  0.00  0.00    +0.000 A 
ATOM     16  C   UNL     1       4.866  14.958  19.359  0.00  0.00    +0.000 A 
ATOM     17  C   UNL     1       3.725  14.141  19.479  0.00  0.00    +0.000 A 
ATOM     18  S   UNL     1       2.744  13.481  18.235  0.00  0.00    +0.000 S 
ENDBRANCH   7  10
BRANCH   1  22
ATOM     19  C   UNL     1      -3.433  13.898  22.018  0.00  0.00    +0.000 A 
ATOM     20  C   UNL     1      -3.373  12.633  21.434  0.00  0.00    +0.000 A 
ATOM     21  C   UNL     1      -2.524  12.405  20.350  0.00  0.00    +0.000 A 
ATOM     22  C   UNL     1      -1.700  13.425  19.838  0.00  0.00    +0.000 A 
ATOM     23  C   UNL     1      -1.803  14.703  20.411  0.00  0.00    +0.000 A 
ATOM     24  C   UNL     1      -2.657  14.936  21.495  0.00  0.00    +0.000 A 
BRANCH  19  26
ATOM     25  N   UNL     1      -4.975  14.313  24.061  0.00  0.00    +0.000 NA
ATOM     26  C   UNL     1      -4.282  14.123  23.148  0.00  0.00    +0.000 C 
ENDBRANCH  19  26
ENDBRANCH   1  22
BRANCH   6  27
ATOM     27  C   UNL     1       1.110   9.836  19.061  0.00  0.00    +0.000 A 
ATOM     28  C   UNL     1       0.954   9.309  20.353  0.00  0.00    +0.000 A 
ATOM     29  C   UNL     1       1.521   8.081  20.689  0.00  0.00    +0.000 A 
ATOM     30  C   UNL     1       2.257   7.374  19.742  0.00  0.00    +0.000 A 
ATOM     31  C   UNL     1       2.438   7.901  18.463  0.00  0.00    +0.000 A 
ATOM     32  C   UNL     1       1.865   9.128  18.119  0.00  0.00    +0.000 A 
ENDBRANCH   6  27
TORSDOF 4
ENDMDL
MODEL 9
REMARK VINA RESULT:      -6.4      3.100      6.283
REMARK  Name = 
REMARK  4 active torsions:
REMARK  status: ('A' for Active; 'I' for Inactive)
REMARK    1  A    between atoms: C_2  and  C_3
REMARK    2  A    between atoms: C_6  and  C_7
REMARK    3  A    between atoms: C_12  and  C_13
REMARK    4  A    between atoms: C_19  and  C_20
REMARK                            x       y       z     vdW  Elec       q    Type
REMARK                         _______ _______ _______ _____ _____    ______ ____
ROOT
ATOM      1  C   UNL     1       0.177  11.875  20.832  0.00  0.00    +0.000 C 
ATOM      2  N   UNL     1       0.445  10.739  21.687  0.00  0.00    +0.000 N 
ATOM      3  C   UNL     1      -0.436  10.359  22.648  0.00  0.00    +0.000 C 
ATOM      4  O   UNL     1      -0.423   9.234  23.131  0.00  0.00    +0.000 OA
ATOM      5  N   UNL     1      -1.301  11.322  23.064  0.00  0.00    +0.000 N 
ATOM      6  C   UNL     1      -1.272  12.644  22.666  0.00  0.00    +0.000 C 
ATOM      7  C   UNL     1      -0.479  13.001  21.626  0.00  0.00    +0.000 C 
ATOM      8  H   UNL     1       1.013   9.982  21.334  0.00  0.00    +0.000 HD
ATOM      9  H   UNL     1      -1.915  11.048  23.823  0.00  0.00    +0.000 HD
ENDROOT
BRANCH   7  10
ATOM     10  C   UNL     1      -0.211  14.378  21.319  0.00  0.00    +0.000 A 
ATOM     11  N   UNL     1      -0.939  15.212  20.599  0.00  0.00    +0.000 NA
ATOM     12  C   UNL     1      -0.228  16.381  20.319  0.00  0.00    +0.000 A 
ATOM     13  C   UNL     1      -0.674  17.483  19.555  0.00  0.00    +0.000 A 
ATOM     14  C   UNL     1       0.183  18.568  19.312  0.00  0.00    +0.000 A 
ATOM     15  C   UNL     1       1.477  18.571  19.819  0.00  0.00    +0.000 A 
ATOM     16  C   UNL     1       1.938  17.505  20.594  0.00  0.00    +0.000 A 
ATOM     17  C   UNL     1       1.067  16.424  20.836  0.00  0.00    +0.000 A 
ATOM     18  S   UNL     1       1.354  14.997  21.745  0.00  0.00    +0.000 S 
ENDBRANCH   7  10
BRANCH   1  22
ATOM     19  C   UNL     1      -2.071  10.508  17.361  0.00  0.00    +0.000 A 
ATOM     20  C   UNL     1      -2.607  11.494  18.188  0.00  0.00    +0.000 A 
ATOM     21  C   UNL     1      -1.893  11.932  19.304  0.00  0.00    +0.000 A 
ATOM     22  C   UNL     1      -0.620  11.415  19.608  0.00  0.00    +0.000 A 
ATOM     23  C   UNL     1      -0.113  10.393  18.789  0.00  0.00    +0.000 A 
ATOM     24  C   UNL     1      -0.829   9.948  17.672  0.00  0.00    +0.000 A 
BRANCH  19  26
ATOM     25  N   UNL     1      -3.376   9.742  15.255  0.00  0.00    +0.000 NA
ATOM     26  C   UNL     1      -2.792  10.080  16.201  0.00  0.00    +0.000 C 
ENDBRANCH  19  26
ENDBRANCH   1  22
BRANCH   6  27
ATOM     27  C   UNL     1      -2.209  13.486  23.425  0.00  0.00    +0.000 A 
ATOM     28  C   UNL     1      -1.682  14.417  24.334  0.00  0.00    +0.000 A 
ATOM     29  C   UNL     1      -2.488  15.427  24.859  0.00  0.00    +0.000 A 
ATOM     30  C   UNL     1      -3.828  15.509  24.488  0.00  0.00    +0.000 A 
ATOM     31  C   UNL     1      -4.366  14.574  23.604  0.00  0.00    +0.000 A 
ATOM     32  C   UNL     1      -3.560  13.565  23.069  0.00  0.00    +0.000 A 
ENDBRANCH   6  27
TORSDOF 4
ENDMDL
