MODEL 1
REMARK VINA RESULT:      -8.1      0.000      0.000
REMARK  Name = 
REMARK  4 active torsions:
REMARK  status: ('A' for Active; 'I' for Inactive)
REMARK    1  A    between atoms: C_1  and  C_2
REMARK    2  A    between atoms: C_4  and  C_5
REMARK    3  A    between atoms: N_7  and  C_8
REMARK    4  A    between atoms: N_19  and  C_20
REMARK                            x       y       z     vdW  Elec       q    Type
REMARK                         _______ _______ _______ _____ _____    ______ ____
ROOT
ATOM      1  C   UNL     1       2.231   6.766  19.898  0.00  0.00    +0.000 C 
ATOM      2  O   UNL     1       2.368   5.829  20.675  0.00  0.00    +0.000 OA
ATOM      3  N   UNL     1       2.705   6.794  18.583  0.00  0.00    +0.000 N 
ATOM      4  H   UNL     1       2.631   7.695  18.127  0.00  0.00    +0.000 HD
ENDROOT
BRANCH   3   5
ATOM      5  C   UNL     1       3.372   5.730  17.902  0.00  0.00    +0.000 A 
ATOM      6  C   UNL     1       2.722   4.502  17.693  0.00  0.00    +0.000 A 
ATOM      7  C   UNL     1       3.360   3.432  17.069  0.00  0.00    +0.000 A 
ATOM      8  C   UNL     1       4.667   3.566  16.632  0.00  0.00    +0.000 A 
ATOM      9  C   UNL     1       5.341   4.783  16.792  0.00  0.00    +0.000 A 
ATOM     10  C   UNL     1       6.660   4.914  16.348  0.00  0.00    +0.000 A 
ATOM     11  N   UNL     1       7.394   6.040  16.451  0.00  0.00    +0.000 NA
ATOM     12  C   UNL     1       6.787   7.092  17.029  0.00  0.00    +0.000 A 
ATOM     13  C   UNL     1       5.483   7.071  17.514  0.00  0.00    +0.000 A 
ATOM     14  C   UNL     1       4.708   5.893  17.412  0.00  0.00    +0.000 A 
ENDBRANCH   3   5
BRANCH   1  18
ATOM     15  C   UNL     1      -0.145  10.134  22.640  0.00  0.00    +0.000 C 
ATOM     16  C   UNL     1       0.625   9.479  21.553  0.00  0.00    +0.000 A 
ATOM     17  N   UNL     1       1.134   8.261  21.611  0.00  0.00    +0.000 NA
ATOM     18  C   UNL     1       1.547   8.018  20.316  0.00  0.00    +0.000 A 
ATOM     19  N   UNL     1       1.256   9.017  19.465  0.00  0.00    +0.000 NA
ATOM     20  N   UNL     1       0.782   9.993  20.272  0.00  0.00    +0.000 N 
BRANCH  20  21
ATOM     21  C   UNL     1       0.522  11.297  19.760  0.00  0.00    +0.000 A 
ATOM     22  C   UNL     1      -0.606  11.511  18.947  0.00  0.00    +0.000 A 
ATOM     23  C   UNL     1      -0.887  12.791  18.455  0.00  0.00    +0.000 A 
ATOM     24  C   UNL     1      -0.027  13.843  18.741  0.00  0.00    +0.000 A 
ATOM     25  F   UNL     1      -0.290  15.066  18.262  0.00  0.00    +0.000 F 
ATOM     26  C   UNL     1       1.114  13.641  19.509  0.00  0.00    +0.000 A 
ATOM     27  C   UNL     1       1.389  12.369  20.021  0.00  0.00    +0.000 A 
ENDBRANCH  20  21
ENDBRANCH   1  18
TORSDOF 3
ENDMDL
MODEL 2
REMARK VINA RESULT:      -7.9      3.588      8.564
REMARK  Name = 
REMARK  4 active torsions:
REMARK  status: ('A' for Active; 'I' for Inactive)
REMARK    1  A    between atoms: C_1  and  C_2
REMARK    2  A    between atoms: C_4  and  C_5
REMARK    3  A    between atoms: N_7  and  C_8
REMARK    4  A    between atoms: N_19  and  C_20
REMARK                            x       y       z     vdW  Elec       q    Type
REMARK                         _______ _______ _______ _____ _____    ______ ____
ROOT
ATOM      1  C   UNL     1       1.393   9.512  18.557  0.00  0.00    +0.000 C 
ATOM      2  O   UNL     1       1.760  10.497  17.926  0.00  0.00    +0.000 OA
ATOM      3  N   UNL     1       0.209   9.428  19.294  0.00  0.00    +0.000 N 
ATOM      4  H   UNL     1       0.127   8.597  19.868  0.00  0.00    +0.000 HD
ENDROOT
BRANCH   3   5
ATOM      5  C   UNL     1      -0.798  10.436  19.396  0.00  0.00    +0.000 A 
ATOM      6  C   UNL     1      -0.823  11.307  20.498  0.00  0.00    +0.000 A 
ATOM      7  C   UNL     1      -1.816  12.273  20.646  0.00  0.00    +0.000 A 
ATOM      8  C   UNL     1      -2.810  12.395  19.689  0.00  0.00    +0.000 A 
ATOM      9  C   UNL     1      -2.804  11.567  18.560  0.00  0.00    +0.000 A 
ATOM     10  C   UNL     1      -3.809  11.695  17.596  0.00  0.00    +0.000 A 
ATOM     11  N   UNL     1      -3.892  10.952  16.474  0.00  0.00    +0.000 NA
ATOM     12  C   UNL     1      -2.929  10.030  16.302  0.00  0.00    +0.000 A 
ATOM     13  C   UNL     1      -1.888   9.812  17.198  0.00  0.00    +0.000 A 
ATOM     14  C   UNL     1      -1.795  10.584  18.379  0.00  0.00    +0.000 A 
ENDBRANCH   3   5
BRANCH   1  18
ATOM     15  C   UNL     1       3.238   5.150  19.995  0.00  0.00    +0.000 C 
ATOM     16  C   UNL     1       2.923   6.361  19.198  0.00  0.00    +0.000 A 
ATOM     17  N   UNL     1       1.997   7.252  19.506  0.00  0.00    +0.000 NA
ATOM     18  C   UNL     1       2.229   8.284  18.619  0.00  0.00    +0.000 A 
ATOM     19  N   UNL     1       3.294   8.078  17.824  0.00  0.00    +0.000 NA
ATOM     20  N   UNL     1       3.659   6.808  18.108  0.00  0.00    +0.000 N 
BRANCH  20  21
ATOM     21  C   UNL     1       4.660   6.149  17.336  0.00  0.00    +0.000 A 
ATOM     22  C   UNL     1       4.338   4.966  16.647  0.00  0.00    +0.000 A 
ATOM     23  C   UNL     1       5.305   4.321  15.867  0.00  0.00    +0.000 A 
ATOM     24  C   UNL     1       6.595   4.831  15.807  0.00  0.00    +0.000 A 
ATOM     25  F   UNL     1       7.523   4.208  15.068  0.00  0.00    +0.000 F 
ATOM     26  C   UNL     1       6.941   5.976  16.514  0.00  0.00    +0.000 A 
ATOM     27  C   UNL     1       5.974   6.638  17.279  0.00  0.00    +0.000 A 
ENDBRANCH  20  21
ENDBRANCH   1  18
TORSDOF 3
ENDMDL
MODEL 3
REMARK VINA RESULT:      -7.9      3.633      8.720
REMARK  Name = 
REMARK  4 active torsions:
REMARK  status: ('A' for Active; 'I' for Inactive)
REMARK    1  A    between atoms: C_1  and  C_2
REMARK    2  A    between atoms: C_4  and  C_5
REMARK    3  A    between atoms: N_7  and  C_8
REMARK    4  A    between atoms: N_19  and  C_20
REMARK                            x       y       z     vdW  Elec       q    Type
REMARK                         _______ _______ _______ _____ _____    ______ ____
ROOT
ATOM      1  C   UNL     1       2.150   9.125  18.042  0.00  0.00    +0.000 C 
ATOM      2  O   UNL     1       2.499  10.220  17.616  0.00  0.00    +0.000 OA
ATOM      3  N   UNL     1       1.080   8.910  18.917  0.00  0.00    +0.000 N 
ATOM      4  H   UNL     1       1.017   7.966  19.280  0.00  0.00    +0.000 HD
ENDROOT
BRANCH   3   5
ATOM      5  C   UNL     1       0.182   9.902  19.416  0.00  0.00    +0.000 A 
ATOM      6  C   UNL     1      -0.493  10.758  18.531  0.00  0.00    +0.000 A 
ATOM      7  C   UNL     1      -1.344  11.762  18.988  0.00  0.00    +0.000 A 
ATOM      8  C   UNL     1      -1.545  11.932  20.348  0.00  0.00    +0.000 A 
ATOM      9  C   UNL     1      -0.915  11.080  21.263  0.00  0.00    +0.000 A 
ATOM     10  C   UNL     1      -1.121  11.254  22.634  0.00  0.00    +0.000 A 
ATOM     11  N   UNL     1      -0.567  10.488  23.596  0.00  0.00    +0.000 NA
ATOM     12  C   UNL     1       0.239   9.498  23.173  0.00  0.00    +0.000 A 
ATOM     13  C   UNL     1       0.520   9.239  21.835  0.00  0.00    +0.000 A 
ATOM     14  C   UNL     1      -0.054  10.040  20.822  0.00  0.00    +0.000 A 
ENDBRANCH   3   5
BRANCH   1  18
ATOM     15  C   UNL     1       5.434   6.043  15.991  0.00  0.00    +0.000 C 
ATOM     16  C   UNL     1       4.376   6.609  16.862  0.00  0.00    +0.000 A 
ATOM     17  N   UNL     1       4.036   7.885  16.913  0.00  0.00    +0.000 NA
ATOM     18  C   UNL     1       2.885   7.887  17.674  0.00  0.00    +0.000 A 
ATOM     19  N   UNL     1       2.481   6.657  18.038  0.00  0.00    +0.000 NA
ATOM     20  N   UNL     1       3.492   5.858  17.627  0.00  0.00    +0.000 N 
BRANCH  20  21
ATOM     21  C   UNL     1       3.521   4.479  17.987  0.00  0.00    +0.000 A 
ATOM     22  C   UNL     1       2.726   3.560  17.279  0.00  0.00    +0.000 A 
ATOM     23  C   UNL     1       2.761   2.200  17.607  0.00  0.00    +0.000 A 
ATOM     24  C   UNL     1       3.556   1.765  18.660  0.00  0.00    +0.000 A 
ATOM     25  F   UNL     1       3.582   0.465  18.980  0.00  0.00    +0.000 F 
ATOM     26  C   UNL     1       4.316   2.666  19.396  0.00  0.00    +0.000 A 
ATOM     27  C   UNL     1       4.302   4.024  19.060  0.00  0.00    +0.000 A 
ENDBRANCH  20  21
ENDBRANCH   1  18
TORSDOF 3
ENDMDL
MODEL 4
REMARK VINA RESULT:      -7.9      3.670      8.821
REMARK  Name = 
REMARK  4 active torsions:
REMARK  status: ('A' for Active; 'I' for Inactive)
REMARK    1  A    between atoms: C_1  and  C_2
REMARK    2  A    between atoms: C_4  and  C_5
REMARK    3  A    between atoms: N_7  and  C_8
REMARK    4  A    between atoms: N_19  and  C_20
REMARK                            x       y       z     vdW  Elec       q    Type
REMARK                         _______ _______ _______ _____ _____    ______ ____
ROOT
ATOM      1  C   UNL     1       2.082   9.246  18.186  0.00  0.00    +0.000 C 
ATOM      2  O   UNL     1       2.319  10.321  17.647  0.00  0.00    +0.000 OA
ATOM      3  N   UNL     1       1.162   9.053  19.221  0.00  0.00    +0.000 N 
ATOM      4  H   UNL     1       1.192   8.134  19.645  0.00  0.00    +0.000 HD
ENDROOT
BRANCH   3   5
ATOM      5  C   UNL     1       0.305  10.045  19.787  0.00  0.00    +0.000 A 
ATOM      6  C   UNL     1       0.579  10.580  21.057  0.00  0.00    +0.000 A 
ATOM      7  C   UNL     1      -0.260  11.518  21.654  0.00  0.00    +0.000 A 
ATOM      8  C   UNL     1      -1.396  11.951  20.990  0.00  0.00    +0.000 A 
ATOM      9  C   UNL     1      -1.689  11.467  19.709  0.00  0.00    +0.000 A 
ATOM     10  C   UNL     1      -2.836  11.907  19.043  0.00  0.00    +0.000 A 
ATOM     11  N   UNL     1      -3.206  11.507  17.810  0.00  0.00    +0.000 NA
ATOM     12  C   UNL     1      -2.396  10.618  17.208  0.00  0.00    +0.000 A 
ATOM     13  C   UNL     1      -1.235  10.108  17.780  0.00  0.00    +0.000 A 
ATOM     14  C   UNL     1      -0.842  10.520  19.074  0.00  0.00    +0.000 A 
ENDBRANCH   3   5
BRANCH   1  18
ATOM     15  C   UNL     1       5.352   6.188  16.073  0.00  0.00    +0.000 C 
ATOM     16  C   UNL     1       4.291   6.740  16.952  0.00  0.00    +0.000 A 
ATOM     17  N   UNL     1       3.965   8.018  17.037  0.00  0.00    +0.000 NA
ATOM     18  C   UNL     1       2.807   8.010  17.788  0.00  0.00    +0.000 A 
ATOM     19  N   UNL     1       2.387   6.775  18.111  0.00  0.00    +0.000 NA
ATOM     20  N   UNL     1       3.392   5.977  17.686  0.00  0.00    +0.000 N 
BRANCH  20  21
ATOM     21  C   UNL     1       3.403   4.588  18.005  0.00  0.00    +0.000 A 
ATOM     22  C   UNL     1       4.306   4.104  18.968  0.00  0.00    +0.000 A 
ATOM     23  C   UNL     1       4.313   2.746  19.308  0.00  0.00    +0.000 A 
ATOM     24  C   UNL     1       3.451   1.870  18.661  0.00  0.00    +0.000 A 
ATOM     25  F   UNL     1       3.464   0.569  18.979  0.00  0.00    +0.000 F 
ATOM     26  C   UNL     1       2.581   2.324  17.678  0.00  0.00    +0.000 A 
ATOM     27  C   UNL     1       2.554   3.684  17.349  0.00  0.00    +0.000 A 
ENDBRANCH  20  21
ENDBRANCH   1  18
TORSDOF 3
ENDMDL
MODEL 5
REMARK VINA RESULT:      -7.9      3.325      8.217
REMARK  Name = 
REMARK  4 active torsions:
REMARK  status: ('A' for Active; 'I' for Inactive)
REMARK    1  A    between atoms: C_1  and  C_2
REMARK    2  A    between atoms: C_4  and  C_5
REMARK    3  A    between atoms: N_7  and  C_8
REMARK    4  A    between atoms: N_19  and  C_20
REMARK                            x       y       z     vdW  Elec       q    Type
REMARK                         _______ _______ _______ _____ _____    ______ ____
ROOT
ATOM      1  C   UNL     1       1.578   6.249  20.505  0.00  0.00    +0.000 C 
ATOM      2  O   UNL     1       0.483   5.790  20.806  0.00  0.00    +0.000 OA
ATOM      3  N   UNL     1       1.941   7.595  20.609  0.00  0.00    +0.000 N 
ATOM      4  H   UNL     1       2.831   7.826  20.187  0.00  0.00    +0.000 HD
ENDROOT
BRANCH   3   5
ATOM      5  C   UNL     1       1.133   8.651  21.133  0.00  0.00    +0.000 A 
ATOM      6  C   UNL     1       0.968   8.797  22.521  0.00  0.00    +0.000 A 
ATOM      7  C   UNL     1       0.154   9.790  23.061  0.00  0.00    +0.000 A 
ATOM      8  C   UNL     1      -0.514  10.668  22.223  0.00  0.00    +0.000 A 
ATOM      9  C   UNL     1      -0.353  10.576  20.835  0.00  0.00    +0.000 A 
ATOM     10  C   UNL     1      -1.029  11.464  19.995  0.00  0.00    +0.000 A 
ATOM     11  N   UNL     1      -0.939  11.463  18.649  0.00  0.00    +0.000 NA
ATOM     12  C   UNL     1      -0.139  10.526  18.110  0.00  0.00    +0.000 A 
ATOM     13  C   UNL     1       0.573   9.588  18.850  0.00  0.00    +0.000 A 
ATOM     14  C   UNL     1       0.482   9.581  20.261  0.00  0.00    +0.000 A 
ENDBRANCH   3   5
BRANCH   1  18
ATOM     15  C   UNL     1       4.595   2.394  19.769  0.00  0.00    +0.000 C 
ATOM     16  C   UNL     1       3.853   3.667  19.590  0.00  0.00    +0.000 A 
ATOM     17  N   UNL     1       2.854   4.076  20.351  0.00  0.00    +0.000 NA
ATOM     18  C   UNL     1       2.649   5.380  19.949  0.00  0.00    +0.000 A 
ATOM     19  N   UNL     1       3.523   5.796  19.015  0.00  0.00    +0.000 NA
ATOM     20  N   UNL     1       4.207   4.673  18.700  0.00  0.00    +0.000 N 
BRANCH  20  21
ATOM     21  C   UNL     1       5.122   4.662  17.608  0.00  0.00    +0.000 A 
ATOM     22  C   UNL     1       4.662   4.327  16.321  0.00  0.00    +0.000 A 
ATOM     23  C   UNL     1       5.545   4.333  15.235  0.00  0.00    +0.000 A 
ATOM     24  C   UNL     1       6.886   4.633  15.437  0.00  0.00    +0.000 A 
ATOM     25  F   UNL     1       7.732   4.629  14.399  0.00  0.00    +0.000 F 
ATOM     26  C   UNL     1       7.365   4.925  16.709  0.00  0.00    +0.000 A 
ATOM     27  C   UNL     1       6.484   4.942  17.796  0.00  0.00    +0.000 A 
ENDBRANCH  20  21
ENDBRANCH   1  18
TORSDOF 3
ENDMDL
MODEL 6
REMARK VINA RESULT:      -7.8      3.621      8.978
REMARK  Name = 
REMARK  4 active torsions:
REMARK  status: ('A' for Active; 'I' for Inactive)
REMARK    1  A    between atoms: C_1  and  C_2
REMARK    2  A    between atoms: C_4  and  C_5
REMARK    3  A    between atoms: N_7  and  C_8
REMARK    4  A    between atoms: N_19  and  C_20
REMARK                            x       y       z     vdW  Elec       q    Type
REMARK                         _______ _______ _______ _____ _____    ______ ____
ROOT
ATOM      1  C   UNL     1       1.479   8.809  19.270  0.00  0.00    +0.000 C 
ATOM      2  O   UNL     1       1.268   8.816  20.478  0.00  0.00    +0.000 OA
ATOM      3  N   UNL     1       0.961   9.735  18.360  0.00  0.00    +0.000 N 
ATOM      4  H   UNL     1       1.118   9.502  17.387  0.00  0.00    +0.000 HD
ENDROOT
BRANCH   3   5
ATOM      5  C   UNL     1       0.154  10.870  18.675  0.00  0.00    +0.000 A 
ATOM      6  C   UNL     1       0.731  12.012  19.256  0.00  0.00    +0.000 A 
ATOM      7  C   UNL     1      -0.036  13.120  19.613  0.00  0.00    +0.000 A 
ATOM      8  C   UNL     1      -1.403  13.114  19.391  0.00  0.00    +0.000 A 
ATOM      9  C   UNL     1      -2.013  12.009  18.785  0.00  0.00    +0.000 A 
ATOM     10  C   UNL     1      -3.392  12.008  18.562  0.00  0.00    +0.000 A 
ATOM     11  N   UNL     1      -4.075  10.999  17.984  0.00  0.00    +0.000 NA
ATOM     12  C   UNL     1      -3.348   9.931  17.611  0.00  0.00    +0.000 A 
ATOM     13  C   UNL     1      -1.973   9.821  17.791  0.00  0.00    +0.000 A 
ATOM     14  C   UNL     1      -1.251  10.874  18.400  0.00  0.00    +0.000 A 
ENDBRANCH   3   5
BRANCH   1  18
ATOM     15  C   UNL     1       4.912   6.550  16.511  0.00  0.00    +0.000 C 
ATOM     16  C   UNL     1       3.869   6.824  17.529  0.00  0.00    +0.000 A 
ATOM     17  N   UNL     1       3.397   8.021  17.830  0.00  0.00    +0.000 NA
ATOM     18  C   UNL     1       2.314   7.751  18.643  0.00  0.00    +0.000 A 
ATOM     19  N   UNL     1       2.077   6.437  18.800  0.00  0.00    +0.000 NA
ATOM     20  N   UNL     1       3.134   5.850  18.195  0.00  0.00    +0.000 N 
BRANCH  20  21
ATOM     21  C   UNL     1       3.342   4.444  18.297  0.00  0.00    +0.000 A 
ATOM     22  C   UNL     1       4.237   3.943  19.259  0.00  0.00    +0.000 A 
ATOM     23  C   UNL     1       4.434   2.563  19.386  0.00  0.00    +0.000 A 
ATOM     24  C   UNL     1       3.772   1.690  18.531  0.00  0.00    +0.000 A 
ATOM     25  F   UNL     1       3.968   0.371  18.646  0.00  0.00    +0.000 F 
ATOM     26  C   UNL     1       2.916   2.171  17.548  0.00  0.00    +0.000 A 
ATOM     27  C   UNL     1       2.698   3.548  17.430  0.00  0.00    +0.000 A 
ENDBRANCH  20  21
ENDBRANCH   1  18
TORSDOF 3
ENDMDL
MODEL 7
REMARK VINA RESULT:      -7.8      3.140      8.204
REMARK  Name = 
REMARK  4 active torsions:
REMARK  status: ('A' for Active; 'I' for Inactive)
REMARK    1  A    between atoms: C_1  and  C_2
REMARK    2  A    between atoms: C_4  and  C_5
REMARK    3  A    between atoms: N_7  and  C_8
REMARK    4  A    between atoms: N_19  and  C_20
REMARK                            x       y       z     vdW  Elec       q    Type
REMARK                         _______ _______ _______ _____ _____    ______ ____
ROOT
ATOM      1  C   UNL     1       1.470   7.807  20.306  0.00  0.00    +0.000 C 
ATOM      2  O   UNL     1       0.843   7.683  21.353  0.00  0.00    +0.000 OA
ATOM      3  N   UNL     1       1.395   8.911  19.452  0.00  0.00    +0.000 N 
ATOM      4  H   UNL     1       1.867   8.790  18.565  0.00  0.00    +0.000 HD
ENDROOT
BRANCH   3   5
ATOM      5  C   UNL     1       0.633  10.099  19.670  0.00  0.00    +0.000 A 
ATOM      6  C   UNL     1       0.960  10.969  20.724  0.00  0.00    +0.000 A 
ATOM      7  C   UNL     1       0.211  12.114  20.988  0.00  0.00    +0.000 A 
ATOM      8  C   UNL     1      -0.885  12.421  20.198  0.00  0.00    +0.000 A 
ATOM      9  C   UNL     1      -1.226  11.597  19.119  0.00  0.00    +0.000 A 
ATOM     10  C   UNL     1      -2.332  11.911  18.325  0.00  0.00    +0.000 A 
ATOM     11  N   UNL     1      -2.742  11.188  17.262  0.00  0.00    +0.000 NA
ATOM     12  C   UNL     1      -2.018  10.092  16.977  0.00  0.00    +0.000 A 
ATOM     13  C   UNL     1      -0.905   9.681  17.704  0.00  0.00    +0.000 A 
ATOM     14  C   UNL     1      -0.471  10.432  18.821  0.00  0.00    +0.000 A 
ENDBRANCH   3   5
BRANCH   1  18
ATOM     15  C   UNL     1       3.700   3.419  19.784  0.00  0.00    +0.000 C 
ATOM     16  C   UNL     1       3.236   4.808  19.551  0.00  0.00    +0.000 A 
ATOM     17  N   UNL     1       2.296   5.422  20.248  0.00  0.00    +0.000 NA
ATOM     18  C   UNL     1       2.376   6.732  19.822  0.00  0.00    +0.000 A 
ATOM     19  N   UNL     1       3.365   6.948  18.938  0.00  0.00    +0.000 NA
ATOM     20  N   UNL     1       3.831   5.707  18.674  0.00  0.00    +0.000 N 
BRANCH  20  21
ATOM     21  C   UNL     1       4.785   5.493  17.637  0.00  0.00    +0.000 A 
ATOM     22  C   UNL     1       4.478   4.612  16.584  0.00  0.00    +0.000 A 
ATOM     23  C   UNL     1       5.396   4.409  15.546  0.00  0.00    +0.000 A 
ATOM     24  C   UNL     1       6.628   5.050  15.581  0.00  0.00    +0.000 A 
ATOM     25  F   UNL     1       7.510   4.848  14.594  0.00  0.00    +0.000 F 
ATOM     26  C   UNL     1       6.963   5.891  16.635  0.00  0.00    +0.000 A 
ATOM     27  C   UNL     1       6.042   6.116  17.664  0.00  0.00    +0.000 A 
ENDBRANCH  20  21
ENDBRANCH   1  18
TORSDOF 3
ENDMDL
MODEL 8
REMARK VINA RESULT:      -7.8      1.786      2.580
REMARK  Name = 
REMARK  4 active torsions:
REMARK  status: ('A' for Active; 'I' for Inactive)
REMARK    1  A    between atoms: C_1  and  C_2
REMARK    2  A    between atoms: C_4  and  C_5
REMARK    3  A    between atoms: N_7  and  C_8
REMARK    4  A    between atoms: N_19  and  C_20
REMARK                            x       y       z     vdW  Elec       q    Type
REMARK                         _______ _______ _______ _____ _____    ______ ____
ROOT
ATOM      1  C   UNL     1       2.058   7.488  19.460  0.00  0.00    +0.000 C 
ATOM      2  O   UNL     1       2.023   6.715  20.411  0.00  0.00    +0.000 OA
ATOM      3  N   UNL     1       2.618   7.198  18.212  0.00  0.00    +0.000 N 
ATOM      4  H   UNL     1       2.690   7.991  17.587  0.00  0.00    +0.000 HD
ENDROOT
BRANCH   3   5
ATOM      5  C   UNL     1       3.187   5.951  17.809  0.00  0.00    +0.000 A 
ATOM      6  C   UNL     1       2.394   4.792  17.756  0.00  0.00    +0.000 A 
ATOM      7  C   UNL     1       2.928   3.553  17.408  0.00  0.00    +0.000 A 
ATOM      8  C   UNL     1       4.274   3.444  17.095  0.00  0.00    +0.000 A 
ATOM      9  C   UNL     1       5.092   4.581  17.105  0.00  0.00    +0.000 A 
ATOM     10  C   UNL     1       6.449   4.465  16.789  0.00  0.00    +0.000 A 
ATOM     11  N   UNL     1       7.320   5.495  16.765  0.00  0.00    +0.000 NA
ATOM     12  C   UNL     1       6.817   6.703  17.076  0.00  0.00    +0.000 A 
ATOM     13  C   UNL     1       5.487   6.931  17.414  0.00  0.00    +0.000 A 
ATOM     14  C   UNL     1       4.568   5.856  17.444  0.00  0.00    +0.000 A 
ENDBRANCH   3   5
BRANCH   1  18
ATOM     15  C   UNL     1       1.214  12.289  18.603  0.00  0.00    +0.000 C 
ATOM     16  C   UNL     1       1.096  10.897  19.104  0.00  0.00    +0.000 A 
ATOM     17  N   UNL     1       1.806   9.872  18.669  0.00  0.00    +0.000 NA
ATOM     18  C   UNL     1       1.513   8.867  19.568  0.00  0.00    +0.000 A 
ATOM     19  N   UNL     1       0.700   9.259  20.564  0.00  0.00    +0.000 NA
ATOM     20  N   UNL     1       0.338  10.511  20.202  0.00  0.00    +0.000 N 
BRANCH  20  21
ATOM     21  C   UNL     1      -0.671  11.213  20.923  0.00  0.00    +0.000 A 
ATOM     22  C   UNL     1      -0.678  11.169  22.328  0.00  0.00    +0.000 A 
ATOM     23  C   UNL     1      -1.649  11.872  23.050  0.00  0.00    +0.000 A 
ATOM     24  C   UNL     1      -2.631  12.584  22.373  0.00  0.00    +0.000 A 
ATOM     25  F   UNL     1      -3.566  13.248  23.064  0.00  0.00    +0.000 F 
ATOM     26  C   UNL     1      -2.663  12.604  20.984  0.00  0.00    +0.000 A 
ATOM     27  C   UNL     1      -1.682  11.921  20.256  0.00  0.00    +0.000 A 
ENDBRANCH  20  21
ENDBRANCH   1  18
TORSDOF 3
ENDMDL
MODEL 9
REMARK VINA RESULT:      -7.7      2.575      4.119
REMARK  Name = 
REMARK  4 active torsions:
REMARK  status: ('A' for Active; 'I' for Inactive)
REMARK    1  A    between atoms: C_1  and  C_2
REMARK    2  A    between atoms: C_4  and  C_5
REMARK    3  A    between atoms: N_7  and  C_8
REMARK    4  A    between atoms: N_19  and  C_20
REMARK                            x       y       z     vdW  Elec       q    Type
REMARK                         _______ _______ _______ _____ _____    ______ ____
ROOT
ATOM      1  C   UNL     1       2.330   8.448  18.047  0.00  0.00    +0.000 C 
ATOM      2  O   UNL     1       2.677   8.480  16.872  0.00  0.00    +0.000 OA
ATOM      3  N   UNL     1       2.386   7.319  18.870  0.00  0.00    +0.000 N 
ATOM      4  H   UNL     1       1.930   7.428  19.768  0.00  0.00    +0.000 HD
ENDROOT
BRANCH   3   5
ATOM      5  C   UNL     1       2.903   6.036  18.512  0.00  0.00    +0.000 A 
ATOM      6  C   UNL     1       3.864   5.917  17.494  0.00  0.00    +0.000 A 
ATOM      7  C   UNL     1       4.357   4.677  17.094  0.00  0.00    +0.000 A 
ATOM      8  C   UNL     1       3.904   3.521  17.709  0.00  0.00    +0.000 A 
ATOM      9  C   UNL     1       2.970   3.599  18.749  0.00  0.00    +0.000 A 
ATOM     10  C   UNL     1       2.516   2.430  19.367  0.00  0.00    +0.000 A 
ATOM     11  N   UNL     1       1.624   2.395  20.378  0.00  0.00    +0.000 NA
ATOM     12  C   UNL     1       1.154   3.585  20.794  0.00  0.00    +0.000 A 
ATOM     13  C   UNL     1       1.530   4.807  20.246  0.00  0.00    +0.000 A 
ATOM     14  C   UNL     1       2.462   4.851  19.184  0.00  0.00    +0.000 A 
ENDBRANCH   3   5
BRANCH   1  18
ATOM     15  C   UNL     1       1.352  13.163  19.193  0.00  0.00    +0.000 C 
ATOM     16  C   UNL     1       1.287  11.683  19.109  0.00  0.00    +0.000 A 
ATOM     17  N   UNL     1       1.991  10.939  18.273  0.00  0.00    +0.000 NA
ATOM     18  C   UNL     1       1.767   9.651  18.715  0.00  0.00    +0.000 A 
ATOM     19  N   UNL     1       1.003   9.589  19.820  0.00  0.00    +0.000 NA
ATOM     20  N   UNL     1       0.599  10.867  19.997  0.00  0.00    +0.000 N 
BRANCH  20  21
ATOM     21  C   UNL     1      -0.380  11.190  20.981  0.00  0.00    +0.000 A 
ATOM     22  C   UNL     1      -0.312  10.590  22.251  0.00  0.00    +0.000 A 
ATOM     23  C   UNL     1      -1.254  10.915  23.234  0.00  0.00    +0.000 A 
ATOM     24  C   UNL     1      -2.281  11.803  22.939  0.00  0.00    +0.000 A 
ATOM     25  F   UNL     1      -3.188  12.105  23.877  0.00  0.00    +0.000 F 
ATOM     26  C   UNL     1      -2.386  12.373  21.676  0.00  0.00    +0.000 A 
ATOM     27  C   UNL     1      -1.436  12.069  20.696  0.00  0.00    +0.000 A 
ENDBRANCH  20  21
ENDBRANCH   1  18
TORSDOF 3
ENDMDL
