MODEL 1
REMARK VINA RESULT:      -8.7      0.000      0.000
REMARK  Name = 
REMARK  4 active torsions:
REMARK  status: ('A' for Active; 'I' for Inactive)
REMARK    1  A    between atoms: C_2  and  N_3
REMARK    2  A    between atoms: C_2  and  C_17
REMARK    3  A    between atoms: N_8  and  C_9
REMARK    4  A    between atoms: C_9  and  C_10
REMARK                            x       y       z     vdW  Elec       q    Type
REMARK                         _______ _______ _______ _____ _____    ______ ____
ROOT
ATOM      1  N   UNL     1       3.798   3.660  17.939  0.00  0.00    +0.000 NA
ATOM      2  C   UNL     1       2.816   3.955  18.720  0.00  0.00    +0.000 A 
ATOM      3  S   UNL     1       1.315   2.976  18.425  0.00  0.00    +0.000 S 
ATOM      4  C   UNL     1       0.616   3.523  19.923  0.00  0.00    +0.000 A 
ATOM      5  C   UNL     1       1.378   4.467  20.486  0.00  0.00    +0.000 A 
ATOM      6  N   UNL     1       2.572   4.769  19.833  0.00  0.00    +0.000 N 
ENDROOT
BRANCH   1   8
ATOM      7  O   UNL     1       5.556   3.603  19.410  0.00  0.00    +0.000 OA
ATOM      8  C   UNL     1       5.062   3.963  18.346  0.00  0.00    +0.000 C 
BRANCH   8   9
ATOM      9  C   UNL     1       5.889   4.638  17.343  0.00  0.00    +0.000 A 
ATOM     10  C   UNL     1       6.759   5.663  17.714  0.00  0.00    +0.000 A 
ATOM     11  N   UNL     1       7.451   6.082  16.620  0.00  0.00    +0.000 N 
ATOM     12  C   UNL     1       7.079   5.346  15.535  0.00  0.00    +0.000 A 
ATOM     13  N   UNL     1       7.635   5.496  14.321  0.00  0.00    +0.000 NA
ATOM     14  C   UNL     1       7.112   4.668  13.395  0.00  0.00    +0.000 A 
ATOM     15  C   UNL     1       6.077   3.770  13.617  0.00  0.00    +0.000 A 
ATOM     16  C   UNL     1       5.532   3.656  14.902  0.00  0.00    +0.000 A 
ATOM     17  C   UNL     1       6.069   4.462  15.926  0.00  0.00    +0.000 A 
ATOM     18  H   UNL     1       8.156   6.804  16.589  0.00  0.00    +0.000 HD
ENDBRANCH   8   9
ENDBRANCH   1   8
BRANCH   6  19
ATOM     19  C   UNL     1       3.253   6.038  20.103  0.00  0.00    +0.000 C 
BRANCH  19  20
ATOM     20  C   UNL     1       2.473   7.218  19.575  0.00  0.00    +0.000 A 
ATOM     21  C   UNL     1       1.631   7.962  20.416  0.00  0.00    +0.000 A 
ATOM     22  C   UNL     1       0.923   9.059  19.919  0.00  0.00    +0.000 A 
ATOM     23  C   UNL     1       1.051   9.431  18.581  0.00  0.00    +0.000 A 
ATOM     24  C   UNL     1       1.882   8.698  17.736  0.00  0.00    +0.000 A 
ATOM     25  C   UNL     1       2.582   7.604  18.234  0.00  0.00    +0.000 A 
ATOM     26  F   UNL     1       3.362   6.903  17.400  0.00  0.00    +0.000 F 
ENDBRANCH  19  20
ENDBRANCH   6  19
TORSDOF 4
ENDMDL
MODEL 2
REMARK VINA RESULT:      -8.6      0.941      1.344
REMARK  Name = 
REMARK  4 active torsions:
REMARK  status: ('A' for Active; 'I' for Inactive)
REMARK    1  A    between atoms: C_2  and  N_3
REMARK    2  A    between atoms: C_2  and  C_17
REMARK    3  A    between atoms: N_8  and  C_9
REMARK    4  A    between atoms: C_9  and  C_10
REMARK                            x       y       z     vdW  Elec       q    Type
REMARK                         _______ _______ _______ _____ _____    ______ ____
ROOT
ATOM      1  N   UNL     1       3.746   3.697  17.920  0.00  0.00    +0.000 NA
ATOM      2  C   UNL     1       2.766   3.943  18.722  0.00  0.00    +0.000 A 
ATOM      3  S   UNL     1       1.270   2.970  18.385  0.00  0.00    +0.000 S 
ATOM      4  C   UNL     1       0.576   3.433  19.914  0.00  0.00    +0.000 A 
ATOM      5  C   UNL     1       1.335   4.352  20.520  0.00  0.00    +0.000 A 
ATOM      6  N   UNL     1       2.523   4.696  19.877  0.00  0.00    +0.000 N 
ENDROOT
BRANCH   1   8
ATOM      7  O   UNL     1       5.494   3.621  19.401  0.00  0.00    +0.000 OA
ATOM      8  C   UNL     1       5.009   3.986  18.335  0.00  0.00    +0.000 C 
BRANCH   8   9
ATOM      9  C   UNL     1       5.849   4.655  17.338  0.00  0.00    +0.000 A 
ATOM     10  C   UNL     1       6.719   5.678  17.713  0.00  0.00    +0.000 A 
ATOM     11  N   UNL     1       7.423   6.090  16.624  0.00  0.00    +0.000 N 
ATOM     12  C   UNL     1       7.058   5.352  15.539  0.00  0.00    +0.000 A 
ATOM     13  N   UNL     1       7.627   5.496  14.329  0.00  0.00    +0.000 NA
ATOM     14  C   UNL     1       7.109   4.667  13.402  0.00  0.00    +0.000 A 
ATOM     15  C   UNL     1       6.069   3.773  13.617  0.00  0.00    +0.000 A 
ATOM     16  C   UNL     1       5.511   3.666  14.897  0.00  0.00    +0.000 A 
ATOM     17  C   UNL     1       6.042   4.474  15.923  0.00  0.00    +0.000 A 
ATOM     18  H   UNL     1       8.131   6.810  16.598  0.00  0.00    +0.000 HD
ENDBRANCH   8   9
ENDBRANCH   1   8
BRANCH   6  19
ATOM     19  C   UNL     1       3.197   5.954  20.209  0.00  0.00    +0.000 C 
BRANCH  19  20
ATOM     20  C   UNL     1       2.550   7.136  19.527  0.00  0.00    +0.000 A 
ATOM     21  C   UNL     1       2.805   7.420  18.178  0.00  0.00    +0.000 A 
ATOM     22  C   UNL     1       2.193   8.510  17.555  0.00  0.00    +0.000 A 
ATOM     23  C   UNL     1       1.315   9.326  18.268  0.00  0.00    +0.000 A 
ATOM     24  C   UNL     1       1.056   9.055  19.610  0.00  0.00    +0.000 A 
ATOM     25  C   UNL     1       1.672   7.971  20.227  0.00  0.00    +0.000 A 
ATOM     26  F   UNL     1       1.421   7.739  21.524  0.00  0.00    +0.000 F 
ENDBRANCH  19  20
ENDBRANCH   6  19
TORSDOF 4
ENDMDL
MODEL 3
REMARK VINA RESULT:      -8.0      1.700      2.696
REMARK  Name = 
REMARK  4 active torsions:
REMARK  status: ('A' for Active; 'I' for Inactive)
REMARK    1  A    between atoms: C_2  and  N_3
REMARK    2  A    between atoms: C_2  and  C_17
REMARK    3  A    between atoms: N_8  and  C_9
REMARK    4  A    between atoms: C_9  and  C_10
REMARK                            x       y       z     vdW  Elec       q    Type
REMARK                         _______ _______ _______ _____ _____    ______ ____
ROOT
ATOM      1  N   UNL     1       3.534   3.495  17.963  0.00  0.00    +0.000 NA
ATOM      2  C   UNL     1       2.596   3.813  18.787  0.00  0.00    +0.000 A 
ATOM      3  S   UNL     1       1.050   2.892  18.543  0.00  0.00    +0.000 S 
ATOM      4  C   UNL     1       0.432   3.443  20.075  0.00  0.00    +0.000 A 
ATOM      5  C   UNL     1       1.249   4.352  20.617  0.00  0.00    +0.000 A 
ATOM      6  N   UNL     1       2.426   4.621  19.919  0.00  0.00    +0.000 N 
ENDROOT
BRANCH   1   8
ATOM      7  O   UNL     1       5.499   3.025  19.048  0.00  0.00    +0.000 OA
ATOM      8  C   UNL     1       4.823   3.747  18.322  0.00  0.00    +0.000 C 
BRANCH   8   9
ATOM      9  C   UNL     1       5.439   4.892  17.646  0.00  0.00    +0.000 A 
ATOM     10  C   UNL     1       4.958   5.331  16.413  0.00  0.00    +0.000 A 
ATOM     11  N   UNL     1       5.654   6.435  16.027  0.00  0.00    +0.000 N 
ATOM     12  C   UNL     1       6.572   6.752  16.983  0.00  0.00    +0.000 A 
ATOM     13  N   UNL     1       7.370   7.832  16.904  0.00  0.00    +0.000 NA
ATOM     14  C   UNL     1       8.203   7.949  17.957  0.00  0.00    +0.000 A 
ATOM     15  C   UNL     1       8.292   7.051  19.013  0.00  0.00    +0.000 A 
ATOM     16  C   UNL     1       7.437   5.942  19.043  0.00  0.00    +0.000 A 
ATOM     17  C   UNL     1       6.509   5.789  17.993  0.00  0.00    +0.000 A 
ATOM     18  H   UNL     1       5.518   6.973  15.183  0.00  0.00    +0.000 HD
ENDBRANCH   8   9
ENDBRANCH   1   8
BRANCH   6  19
ATOM     19  C   UNL     1       3.162   5.861  20.176  0.00  0.00    +0.000 C 
BRANCH  19  20
ATOM     20  C   UNL     1       2.488   7.056  19.546  0.00  0.00    +0.000 A 
ATOM     21  C   UNL     1       2.667   7.354  18.187  0.00  0.00    +0.000 A 
ATOM     22  C   UNL     1       2.030   8.456  17.612  0.00  0.00    +0.000 A 
ATOM     23  C   UNL     1       1.203   9.271  18.384  0.00  0.00    +0.000 A 
ATOM     24  C   UNL     1       1.020   8.988  19.736  0.00  0.00    +0.000 A 
ATOM     25  C   UNL     1       1.660   7.891  20.305  0.00  0.00    +0.000 A 
ATOM     26  F   UNL     1       1.483   7.647  21.611  0.00  0.00    +0.000 F 
ENDBRANCH  19  20
ENDBRANCH   6  19
TORSDOF 4
ENDMDL
MODEL 4
REMARK VINA RESULT:      -7.9      0.961      1.136
REMARK  Name = 
REMARK  4 active torsions:
REMARK  status: ('A' for Active; 'I' for Inactive)
REMARK    1  A    between atoms: C_2  and  N_3
REMARK    2  A    between atoms: C_2  and  C_17
REMARK    3  A    between atoms: N_8  and  C_9
REMARK    4  A    between atoms: C_9  and  C_10
REMARK                            x       y       z     vdW  Elec       q    Type
REMARK                         _______ _______ _______ _____ _____    ______ ____
ROOT
ATOM      1  N   UNL     1       4.762   3.370  18.659  0.00  0.00    +0.000 NA
ATOM      2  C   UNL     1       3.491   3.556  18.760  0.00  0.00    +0.000 A 
ATOM      3  S   UNL     1       2.537   2.035  19.031  0.00  0.00    +0.000 S 
ATOM      4  C   UNL     1       1.118   2.951  19.452  0.00  0.00    +0.000 A 
ATOM      5  C   UNL     1       1.317   4.257  19.244  0.00  0.00    +0.000 A 
ATOM      6  N   UNL     1       2.591   4.628  18.817  0.00  0.00    +0.000 N 
ENDROOT
BRANCH   1   8
ATOM      7  O   UNL     1       5.893   4.802  20.048  0.00  0.00    +0.000 OA
ATOM      8  C   UNL     1       5.592   4.417  18.922  0.00  0.00    +0.000 C 
BRANCH   8   9
ATOM      9  C   UNL     1       6.256   4.989  17.748  0.00  0.00    +0.000 A 
ATOM     10  C   UNL     1       7.125   6.072  17.882  0.00  0.00    +0.000 A 
ATOM     11  N   UNL     1       7.654   6.376  16.666  0.00  0.00    +0.000 N 
ATOM     12  C   UNL     1       7.174   5.508  15.731  0.00  0.00    +0.000 A 
ATOM     13  N   UNL     1       7.564   5.528  14.444  0.00  0.00    +0.000 NA
ATOM     14  C   UNL     1       6.959   4.584  13.696  0.00  0.00    +0.000 A 
ATOM     15  C   UNL     1       5.997   3.693  14.153  0.00  0.00    +0.000 A 
ATOM     16  C   UNL     1       5.627   3.719  15.504  0.00  0.00    +0.000 A 
ATOM     17  C   UNL     1       6.260   4.653  16.349  0.00  0.00    +0.000 A 
ATOM     18  H   UNL     1       8.320   7.107  16.460  0.00  0.00    +0.000 HD
ENDBRANCH   8   9
ENDBRANCH   1   8
BRANCH   6  19
ATOM     19  C   UNL     1       2.795   5.924  18.165  0.00  0.00    +0.000 C 
BRANCH  19  20
ATOM     20  C   UNL     1       2.200   7.057  18.966  0.00  0.00    +0.000 A 
ATOM     21  C   UNL     1       1.862   6.887  20.317  0.00  0.00    +0.000 A 
ATOM     22  C   UNL     1       1.322   7.946  21.051  0.00  0.00    +0.000 A 
ATOM     23  C   UNL     1       1.118   9.187  20.449  0.00  0.00    +0.000 A 
ATOM     24  C   UNL     1       1.447   9.367  19.107  0.00  0.00    +0.000 A 
ATOM     25  C   UNL     1       1.981   8.309  18.379  0.00  0.00    +0.000 A 
ATOM     26  F   UNL     1       2.275   8.499  17.085  0.00  0.00    +0.000 F 
ENDBRANCH  19  20
ENDBRANCH   6  19
TORSDOF 4
ENDMDL
MODEL 5
REMARK VINA RESULT:      -7.8      1.179      2.211
REMARK  Name = 
REMARK  4 active torsions:
REMARK  status: ('A' for Active; 'I' for Inactive)
REMARK    1  A    between atoms: C_2  and  N_3
REMARK    2  A    between atoms: C_2  and  C_17
REMARK    3  A    between atoms: N_8  and  C_9
REMARK    4  A    between atoms: C_9  and  C_10
REMARK                            x       y       z     vdW  Elec       q    Type
REMARK                         _______ _______ _______ _____ _____    ______ ____
ROOT
ATOM      1  N   UNL     1       3.492   3.137  18.141  0.00  0.00    +0.000 NA
ATOM      2  C   UNL     1       2.551   3.593  18.895  0.00  0.00    +0.000 A 
ATOM      3  S   UNL     1       0.954   2.757  18.677  0.00  0.00    +0.000 S 
ATOM      4  C   UNL     1       0.326   3.491  20.126  0.00  0.00    +0.000 A 
ATOM      5  C   UNL     1       1.186   4.391  20.613  0.00  0.00    +0.000 A 
ATOM      6  N   UNL     1       2.401   4.515  19.939  0.00  0.00    +0.000 N 
ENDROOT
BRANCH   1   8
ATOM      7  O   UNL     1       5.357   2.697  19.399  0.00  0.00    +0.000 OA
ATOM      8  C   UNL     1       4.782   3.337  18.524  0.00  0.00    +0.000 C 
BRANCH   8   9
ATOM      9  C   UNL     1       5.531   4.291  17.701  0.00  0.00    +0.000 A 
ATOM     10  C   UNL     1       5.321   4.356  16.324  0.00  0.00    +0.000 A 
ATOM     11  N   UNL     1       6.086   5.352  15.800  0.00  0.00    +0.000 N 
ATOM     12  C   UNL     1       6.782   5.964  16.798  0.00  0.00    +0.000 A 
ATOM     13  N   UNL     1       7.582   7.025  16.591  0.00  0.00    +0.000 NA
ATOM     14  C   UNL     1       8.175   7.467  17.718  0.00  0.00    +0.000 A 
ATOM     15  C   UNL     1       8.037   6.892  18.974  0.00  0.00    +0.000 A 
ATOM     16  C   UNL     1       7.192   5.786  19.132  0.00  0.00    +0.000 A 
ATOM     17  C   UNL     1       6.506   5.306  17.999  0.00  0.00    +0.000 A 
ATOM     18  H   UNL     1       6.133   5.635  14.831  0.00  0.00    +0.000 HD
ENDBRANCH   8   9
ENDBRANCH   1   8
BRANCH   6  19
ATOM     19  C   UNL     1       3.212   5.722  20.109  0.00  0.00    +0.000 C 
BRANCH  19  20
ATOM     20  C   UNL     1       2.502   6.954  19.599  0.00  0.00    +0.000 A 
ATOM     21  C   UNL     1       1.747   7.762  20.462  0.00  0.00    +0.000 A 
ATOM     22  C   UNL     1       1.103   8.904  19.981  0.00  0.00    +0.000 A 
ATOM     23  C   UNL     1       1.210   9.258  18.636  0.00  0.00    +0.000 A 
ATOM     24  C   UNL     1       1.954   8.461  17.769  0.00  0.00    +0.000 A 
ATOM     25  C   UNL     1       2.590   7.322  18.251  0.00  0.00    +0.000 A 
ATOM     26  F   UNL     1       3.287   6.561  17.396  0.00  0.00    +0.000 F 
ENDBRANCH  19  20
ENDBRANCH   6  19
TORSDOF 4
ENDMDL
MODEL 6
REMARK VINA RESULT:      -7.6      1.116      1.507
REMARK  Name = 
REMARK  4 active torsions:
REMARK  status: ('A' for Active; 'I' for Inactive)
REMARK    1  A    between atoms: C_2  and  N_3
REMARK    2  A    between atoms: C_2  and  C_17
REMARK    3  A    between atoms: N_8  and  C_9
REMARK    4  A    between atoms: C_9  and  C_10
REMARK                            x       y       z     vdW  Elec       q    Type
REMARK                         _______ _______ _______ _____ _____    ______ ____
ROOT
ATOM      1  N   UNL     1       4.796   3.312  18.638  0.00  0.00    +0.000 NA
ATOM      2  C   UNL     1       3.523   3.500  18.552  0.00  0.00    +0.000 A 
ATOM      3  S   UNL     1       2.532   2.003  18.827  0.00  0.00    +0.000 S 
ATOM      4  C   UNL     1       1.075   2.945  18.973  0.00  0.00    +0.000 A 
ATOM      5  C   UNL     1       1.309   4.229  18.679  0.00  0.00    +0.000 A 
ATOM      6  N   UNL     1       2.631   4.568  18.395  0.00  0.00    +0.000 N 
ENDROOT
BRANCH   1   8
ATOM      7  O   UNL     1       5.855   4.778  20.047  0.00  0.00    +0.000 OA
ATOM      8  C   UNL     1       5.590   4.382  18.916  0.00  0.00    +0.000 C 
BRANCH   8   9
ATOM      9  C   UNL     1       6.265   4.968  17.756  0.00  0.00    +0.000 A 
ATOM     10  C   UNL     1       7.122   6.057  17.910  0.00  0.00    +0.000 A 
ATOM     11  N   UNL     1       7.665   6.375  16.703  0.00  0.00    +0.000 N 
ATOM     12  C   UNL     1       7.206   5.510  15.755  0.00  0.00    +0.000 A 
ATOM     13  N   UNL     1       7.613   5.543  14.474  0.00  0.00    +0.000 NA
ATOM     14  C   UNL     1       7.027   4.600  13.711  0.00  0.00    +0.000 A 
ATOM     15  C   UNL     1       6.067   3.697  14.148  0.00  0.00    +0.000 A 
ATOM     16  C   UNL     1       5.678   3.709  15.494  0.00  0.00    +0.000 A 
ATOM     17  C   UNL     1       6.291   4.642  16.355  0.00  0.00    +0.000 A 
ATOM     18  H   UNL     1       8.328   7.113  16.511  0.00  0.00    +0.000 HD
ENDBRANCH   8   9
ENDBRANCH   1   8
BRANCH   6  19
ATOM     19  C   UNL     1       2.929   5.802  17.664  0.00  0.00    +0.000 C 
BRANCH  19  20
ATOM     20  C   UNL     1       2.351   7.016  18.351  0.00  0.00    +0.000 A 
ATOM     21  C   UNL     1       1.842   8.092  17.608  0.00  0.00    +0.000 A 
ATOM     22  C   UNL     1       1.300   9.206  18.254  0.00  0.00    +0.000 A 
ATOM     23  C   UNL     1       1.253   9.257  19.647  0.00  0.00    +0.000 A 
ATOM     24  C   UNL     1       1.758   8.196  20.395  0.00  0.00    +0.000 A 
ATOM     25  C   UNL     1       2.300   7.091  19.747  0.00  0.00    +0.000 A 
ATOM     26  F   UNL     1       2.796   6.088  20.487  0.00  0.00    +0.000 F 
ENDBRANCH  19  20
ENDBRANCH   6  19
TORSDOF 4
ENDMDL
MODEL 7
REMARK VINA RESULT:      -7.1      2.667      6.843
REMARK  Name = 
REMARK  4 active torsions:
REMARK  status: ('A' for Active; 'I' for Inactive)
REMARK    1  A    between atoms: C_2  and  N_3
REMARK    2  A    between atoms: C_2  and  C_17
REMARK    3  A    between atoms: N_8  and  C_9
REMARK    4  A    between atoms: C_9  and  C_10
REMARK                            x       y       z     vdW  Elec       q    Type
REMARK                         _______ _______ _______ _____ _____    ______ ____
ROOT
ATOM      1  N   UNL     1       2.165   6.138  19.966  0.00  0.00    +0.000 NA
ATOM      2  C   UNL     1       2.908   5.087  20.038  0.00  0.00    +0.000 A 
ATOM      3  S   UNL     1       2.233   3.771  21.092  0.00  0.00    +0.000 S 
ATOM      4  C   UNL     1       3.388   2.626  20.471  0.00  0.00    +0.000 A 
ATOM      5  C   UNL     1       4.280   3.232  19.681  0.00  0.00    +0.000 A 
ATOM      6  N   UNL     1       4.082   4.593  19.454  0.00  0.00    +0.000 N 
ENDROOT
BRANCH   1   8
ATOM      7  O   UNL     1       2.684   6.596  17.780  0.00  0.00    +0.000 OA
ATOM      8  C   UNL     1       2.309   6.960  18.891  0.00  0.00    +0.000 C 
BRANCH   8   9
ATOM      9  C   UNL     1       1.829   8.330  19.091  0.00  0.00    +0.000 A 
ATOM     10  C   UNL     1       1.934   9.275  18.071  0.00  0.00    +0.000 A 
ATOM     11  N   UNL     1       1.368  10.442  18.481  0.00  0.00    +0.000 N 
ATOM     12  C   UNL     1       0.871  10.290  19.740  0.00  0.00    +0.000 A 
ATOM     13  N   UNL     1       0.203  11.262  20.387  0.00  0.00    +0.000 NA
ATOM     14  C   UNL     1      -0.194  10.895  21.622  0.00  0.00    +0.000 A 
ATOM     15  C   UNL     1       0.072   9.671  22.219  0.00  0.00    +0.000 A 
ATOM     16  C   UNL     1       0.775   8.695  21.500  0.00  0.00    +0.000 A 
ATOM     17  C   UNL     1       1.177   9.001  20.184  0.00  0.00    +0.000 A 
ATOM     18  H   UNL     1       1.290  11.298  17.949  0.00  0.00    +0.000 HD
ENDBRANCH   8   9
ENDBRANCH   1   8
BRANCH   6  19
ATOM     19  C   UNL     1       5.190   5.425  18.979  0.00  0.00    +0.000 C 
BRANCH  19  20
ATOM     20  C   UNL     1       5.663   5.003  17.609  0.00  0.00    +0.000 A 
ATOM     21  C   UNL     1       4.754   4.574  16.631  0.00  0.00    +0.000 A 
ATOM     22  C   UNL     1       5.202   4.196  15.363  0.00  0.00    +0.000 A 
ATOM     23  C   UNL     1       6.560   4.247  15.053  0.00  0.00    +0.000 A 
ATOM     24  C   UNL     1       7.474   4.669  16.017  0.00  0.00    +0.000 A 
ATOM     25  C   UNL     1       7.023   5.040  17.280  0.00  0.00    +0.000 A 
ATOM     26  F   UNL     1       7.921   5.426  18.197  0.00  0.00    +0.000 F 
ENDBRANCH  19  20
ENDBRANCH   6  19
TORSDOF 4
ENDMDL
MODEL 8
REMARK VINA RESULT:      -7.1      2.794      6.773
REMARK  Name = 
REMARK  4 active torsions:
REMARK  status: ('A' for Active; 'I' for Inactive)
REMARK    1  A    between atoms: C_2  and  N_3
REMARK    2  A    between atoms: C_2  and  C_17
REMARK    3  A    between atoms: N_8  and  C_9
REMARK    4  A    between atoms: C_9  and  C_10
REMARK                            x       y       z     vdW  Elec       q    Type
REMARK                         _______ _______ _______ _____ _____    ______ ____
ROOT
ATOM      1  N   UNL     1       3.815   6.969  17.504  0.00  0.00    +0.000 NA
ATOM      2  C   UNL     1       4.146   5.809  17.052  0.00  0.00    +0.000 A 
ATOM      3  S   UNL     1       5.538   5.835  15.886  0.00  0.00    +0.000 S 
ATOM      4  C   UNL     1       5.711   4.106  15.990  0.00  0.00    +0.000 A 
ATOM      5  C   UNL     1       4.714   3.571  16.702  0.00  0.00    +0.000 A 
ATOM      6  N   UNL     1       3.804   4.467  17.262  0.00  0.00    +0.000 N 
ENDROOT
BRANCH   1   8
ATOM      7  O   UNL     1       3.368   6.322  19.657  0.00  0.00    +0.000 OA
ATOM      8  C   UNL     1       3.142   7.035  18.685  0.00  0.00    +0.000 C 
BRANCH   8   9
ATOM      9  C   UNL     1       2.197   8.150  18.796  0.00  0.00    +0.000 A 
ATOM     10  C   UNL     1       1.876   8.922  17.680  0.00  0.00    +0.000 A 
ATOM     11  N   UNL     1       0.941   9.847  18.029  0.00  0.00    +0.000 N 
ATOM     12  C   UNL     1       0.617   9.695  19.343  0.00  0.00    +0.000 A 
ATOM     13  N   UNL     1      -0.323  10.435  19.957  0.00  0.00    +0.000 NA
ATOM     14  C   UNL     1      -0.476  10.118  21.258  0.00  0.00    +0.000 A 
ATOM     15  C   UNL     1       0.267   9.167  21.944  0.00  0.00    +0.000 A 
ATOM     16  C   UNL     1       1.237   8.427  21.255  0.00  0.00    +0.000 A 
ATOM     17  C   UNL     1       1.411   8.679  19.879  0.00  0.00    +0.000 A 
ATOM     18  H   UNL     1       0.515  10.535  17.424  0.00  0.00    +0.000 HD
ENDBRANCH   8   9
ENDBRANCH   1   8
BRANCH   6  19
ATOM     19  C   UNL     1       2.480   3.999  17.680  0.00  0.00    +0.000 C 
BRANCH  19  20
ATOM     20  C   UNL     1       2.500   3.429  19.078  0.00  0.00    +0.000 A 
ATOM     21  C   UNL     1       3.664   2.850  19.606  0.00  0.00    +0.000 A 
ATOM     22  C   UNL     1       3.674   2.335  20.904  0.00  0.00    +0.000 A 
ATOM     23  C   UNL     1       2.526   2.396  21.693  0.00  0.00    +0.000 A 
ATOM     24  C   UNL     1       1.363   2.965  21.180  0.00  0.00    +0.000 A 
ATOM     25  C   UNL     1       1.357   3.474  19.884  0.00  0.00    +0.000 A 
ATOM     26  F   UNL     1       0.222   4.002  19.404  0.00  0.00    +0.000 F 
ENDBRANCH  19  20
ENDBRANCH   6  19
TORSDOF 4
ENDMDL
MODEL 9
REMARK VINA RESULT:      -7.0      4.597      7.065
REMARK  Name = 
REMARK  4 active torsions:
REMARK  status: ('A' for Active; 'I' for Inactive)
REMARK    1  A    between atoms: C_2  and  N_3
REMARK    2  A    between atoms: C_2  and  C_17
REMARK    3  A    between atoms: N_8  and  C_9
REMARK    4  A    between atoms: C_9  and  C_10
REMARK                            x       y       z     vdW  Elec       q    Type
REMARK                         _______ _______ _______ _____ _____    ______ ____
ROOT
ATOM      1  N   UNL     1       2.147  10.484  18.968  0.00  0.00    +0.000 NA
ATOM      2  C   UNL     1       1.311  11.466  18.958  0.00  0.00    +0.000 A 
ATOM      3  S   UNL     1       2.078  13.095  19.193  0.00  0.00    +0.000 S 
ATOM      4  C   UNL     1       0.614  13.900  18.702  0.00  0.00    +0.000 A 
ATOM      5  C   UNL     1      -0.380  13.020  18.542  0.00  0.00    +0.000 A 
ATOM      6  N   UNL     1      -0.053  11.677  18.720  0.00  0.00    +0.000 N 
ENDROOT
BRANCH   1   8
ATOM      7  O   UNL     1       1.443   9.231  17.182  0.00  0.00    +0.000 OA
ATOM      8  C   UNL     1       1.788   9.323  18.356  0.00  0.00    +0.000 C 
BRANCH   8   9
ATOM      9  C   UNL     1       1.989   8.114  19.159  0.00  0.00    +0.000 A 
ATOM     10  C   UNL     1       1.530   8.051  20.474  0.00  0.00    +0.000 A 
ATOM     11  N   UNL     1       1.783   6.813  20.979  0.00  0.00    +0.000 N 
ATOM     12  C   UNL     1       2.380   6.045  20.025  0.00  0.00    +0.000 A 
ATOM     13  N   UNL     1       2.699   4.753  20.218  0.00  0.00    +0.000 NA
ATOM     14  C   UNL     1       3.284   4.189  19.143  0.00  0.00    +0.000 A 
ATOM     15  C   UNL     1       3.585   4.846  17.957  0.00  0.00    +0.000 A 
ATOM     16  C   UNL     1       3.232   6.194  17.812  0.00  0.00    +0.000 A 
ATOM     17  C   UNL     1       2.574   6.828  18.885  0.00  0.00    +0.000 A 
ATOM     18  H   UNL     1       1.554   6.478  21.904  0.00  0.00    +0.000 HD
ENDBRANCH   8   9
ENDBRANCH   1   8
BRANCH   6  19
ATOM     19  C   UNL     1      -1.107  10.696  18.988  0.00  0.00    +0.000 C 
BRANCH  19  20
ATOM     20  C   UNL     1      -2.149  10.677  17.896  0.00  0.00    +0.000 A 
ATOM     21  C   UNL     1      -1.954   9.932  16.724  0.00  0.00    +0.000 A 
ATOM     22  C   UNL     1      -2.930   9.913  15.724  0.00  0.00    +0.000 A 
ATOM     23  C   UNL     1      -4.114  10.632  15.885  0.00  0.00    +0.000 A 
ATOM     24  C   UNL     1      -4.318  11.379  17.043  0.00  0.00    +0.000 A 
ATOM     25  C   UNL     1      -3.341  11.397  18.034  0.00  0.00    +0.000 A 
ATOM     26  F   UNL     1      -3.551  12.135  19.133  0.00  0.00    +0.000 F 
ENDBRANCH  19  20
ENDBRANCH   6  19
TORSDOF 4
ENDMDL
