MODEL 1
REMARK VINA RESULT:      -9.1      0.000      0.000
REMARK  Name = 
REMARK  3 active torsions:
REMARK  status: ('A' for Active; 'I' for Inactive)
REMARK    1  A    between atoms: C_4  and  C_5
REMARK    2  A    between atoms: C_5  and  N_6
REMARK    3  A    between atoms: C_11  and  C_12
REMARK                            x       y       z     vdW  Elec       q    Type
REMARK                         _______ _______ _______ _____ _____    ______ ____
ROOT
ATOM      1  N   UNL     1       5.254   5.944  18.412  0.00  0.00    +0.000 NA
ATOM      2  C   UNL     1       5.934   5.134  19.423  0.00  0.00    +0.000 C 
ATOM      3  C   UNL     1       7.296   5.675  19.848  0.00  0.00    +0.000 C 
ATOM      4  C   UNL     1       8.140   6.041  18.645  0.00  0.00    +0.000 C 
ATOM      5  C   UNL     1       7.367   7.056  17.813  0.00  0.00    +0.000 C 
ATOM      6  C   UNL     1       6.035   6.466  17.277  0.00  0.00    +0.000 C 
ENDROOT
BRANCH   6   7
ATOM      7  C   UNL     1       6.331   5.617  16.031  0.00  0.00    +0.000 A 
ATOM      8  N   UNL     1       7.263   5.740  15.108  0.00  0.00    +0.000 NA
ATOM      9  C   UNL     1       6.978   4.896  14.019  0.00  0.00    +0.000 A 
ATOM     10  C   UNL     1       7.701   4.774  12.807  0.00  0.00    +0.000 A 
ATOM     11  C   UNL     1       7.200   3.987  11.754  0.00  0.00    +0.000 A 
ATOM     12  C   UNL     1       5.998   3.302  11.893  0.00  0.00    +0.000 A 
ATOM     13  C   UNL     1       5.303   3.338  13.101  0.00  0.00    +0.000 A 
ATOM     14  C   UNL     1       5.822   4.123  14.148  0.00  0.00    +0.000 A 
ATOM     15  S   UNL     1       5.219   4.298  15.738  0.00  0.00    +0.000 S 
ENDBRANCH   6   7
BRANCH   1  16
ATOM     16  C   UNL     1       3.882   5.497  18.138  0.00  0.00    +0.000 C 
BRANCH  16  20
ATOM     17  O   UNL     1       2.079   9.858  17.237  0.00  0.00    +0.000 OA
ATOM     18  C   UNL     1       2.135   8.905  18.013  0.00  0.00    +0.000 A 
ATOM     19  C   UNL     1       2.847   7.688  17.593  0.00  0.00    +0.000 A 
ATOM     20  C   UNL     1       2.901   6.640  18.425  0.00  0.00    +0.000 A 
ATOM     21  N   UNL     1       2.238   6.604  19.628  0.00  0.00    +0.000 NA
ATOM     22  C   UNL     1       1.665   7.696  20.029  0.00  0.00    +0.000 A 
ATOM     23  C   UNL     1       1.018   7.724  21.372  0.00  0.00    +0.000 A 
ATOM     24  C   UNL     1       0.515   8.869  21.858  0.00  0.00    +0.000 A 
ATOM     25  C   UNL     1       0.565  10.083  21.080  0.00  0.00    +0.000 A 
ATOM     26 BR   UNL     1      -0.084  11.652  21.843  0.00  0.00    +0.000 Br
ATOM     27  C   UNL     1       1.076  10.043  19.840  0.00  0.00    +0.000 A 
ATOM     28  N   UNL     1       1.617   8.880  19.299  0.00  0.00    +0.000 N 
ENDBRANCH  16  20
ENDBRANCH   1  16
TORSDOF 3
ENDMDL
MODEL 2
REMARK VINA RESULT:      -8.8      2.232      3.716
REMARK  Name = 
REMARK  3 active torsions:
REMARK  status: ('A' for Active; 'I' for Inactive)
REMARK    1  A    between atoms: C_4  and  C_5
REMARK    2  A    between atoms: C_5  and  N_6
REMARK    3  A    between atoms: C_11  and  C_12
REMARK                            x       y       z     vdW  Elec       q    Type
REMARK                         _______ _______ _______ _____ _____    ______ ____
ROOT
ATOM      1  N   UNL     1       2.389   4.222  20.360  0.00  0.00    +0.000 NA
ATOM      2  C   UNL     1       1.027   4.253  19.828  0.00  0.00    +0.000 C 
ATOM      3  C   UNL     1       0.496   2.891  19.386  0.00  0.00    +0.000 C 
ATOM      4  C   UNL     1       1.506   2.163  18.524  0.00  0.00    +0.000 C 
ATOM      5  C   UNL     1       2.800   2.031  19.317  0.00  0.00    +0.000 C 
ATOM      6  C   UNL     1       3.407   3.417  19.662  0.00  0.00    +0.000 C 
ENDROOT
BRANCH   6   7
ATOM      7  C   UNL     1       4.169   3.948  18.438  0.00  0.00    +0.000 A 
ATOM      8  N   UNL     1       3.854   3.937  17.159  0.00  0.00    +0.000 NA
ATOM      9  C   UNL     1       4.975   4.290  16.383  0.00  0.00    +0.000 A 
ATOM     10  C   UNL     1       5.068   4.342  14.971  0.00  0.00    +0.000 A 
ATOM     11  C   UNL     1       6.307   4.573  14.346  0.00  0.00    +0.000 A 
ATOM     12  C   UNL     1       7.455   4.772  15.104  0.00  0.00    +0.000 A 
ATOM     13  C   UNL     1       7.382   4.807  16.496  0.00  0.00    +0.000 A 
ATOM     14  C   UNL     1       6.134   4.582  17.107  0.00  0.00    +0.000 A 
ATOM     15  S   UNL     1       5.745   4.628  18.771  0.00  0.00    +0.000 S 
ENDBRANCH   6   7
BRANCH   1  16
ATOM     16  C   UNL     1       2.818   5.507  20.927  0.00  0.00    +0.000 C 
BRANCH  16  20
ATOM     17  O   UNL     1       2.583   8.403  17.101  0.00  0.00    +0.000 OA
ATOM     18  C   UNL     1       2.206   8.180  18.251  0.00  0.00    +0.000 A 
ATOM     19  C   UNL     1       2.597   6.916  18.894  0.00  0.00    +0.000 A 
ATOM     20  C   UNL     1       2.179   6.658  20.140  0.00  0.00    +0.000 A 
ATOM     21  N   UNL     1       1.317   7.478  20.825  0.00  0.00    +0.000 NA
ATOM     22  C   UNL     1       1.024   8.621  20.289  0.00  0.00    +0.000 A 
ATOM     23  C   UNL     1       0.168   9.579  21.045  0.00  0.00    +0.000 A 
ATOM     24  C   UNL     1      -0.061  10.810  20.564  0.00  0.00    +0.000 A 
ATOM     25  C   UNL     1       0.492  11.218  19.296  0.00  0.00    +0.000 A 
ATOM     26 BR   UNL     1       0.198  12.964  18.721  0.00  0.00    +0.000 Br
ATOM     27  C   UNL     1       1.197  10.332  18.576  0.00  0.00    +0.000 A 
ATOM     28  N   UNL     1       1.467   9.047  19.040  0.00  0.00    +0.000 N 
ENDBRANCH  16  20
ENDBRANCH   1  16
TORSDOF 3
ENDMDL
MODEL 3
REMARK VINA RESULT:      -8.8      1.835      2.669
REMARK  Name = 
REMARK  3 active torsions:
REMARK  status: ('A' for Active; 'I' for Inactive)
REMARK    1  A    between atoms: C_4  and  C_5
REMARK    2  A    between atoms: C_5  and  N_6
REMARK    3  A    between atoms: C_11  and  C_12
REMARK                            x       y       z     vdW  Elec       q    Type
REMARK                         _______ _______ _______ _____ _____    ______ ____
ROOT
ATOM      1  N   UNL     1       3.346   5.556  18.250  0.00  0.00    +0.000 NA
ATOM      2  C   UNL     1       1.962   5.154  18.000  0.00  0.00    +0.000 C 
ATOM      3  C   UNL     1       1.676   3.681  18.279  0.00  0.00    +0.000 C 
ATOM      4  C   UNL     1       2.726   2.791  17.649  0.00  0.00    +0.000 C 
ATOM      5  C   UNL     1       4.089   3.210  18.185  0.00  0.00    +0.000 C 
ATOM      6  C   UNL     1       4.435   4.672  17.796  0.00  0.00    +0.000 C 
ENDROOT
BRANCH   6   7
ATOM      7  C   UNL     1       4.956   4.695  16.351  0.00  0.00    +0.000 A 
ATOM      8  N   UNL     1       4.610   3.980  15.301  0.00  0.00    +0.000 NA
ATOM      9  C   UNL     1       5.544   4.161  14.264  0.00  0.00    +0.000 A 
ATOM     10  C   UNL     1       5.562   3.530  12.996  0.00  0.00    +0.000 A 
ATOM     11  C   UNL     1       6.650   3.713  12.124  0.00  0.00    +0.000 A 
ATOM     12  C   UNL     1       7.716   4.531  12.485  0.00  0.00    +0.000 A 
ATOM     13  C   UNL     1       7.690   5.228  13.692  0.00  0.00    +0.000 A 
ATOM     14  C   UNL     1       6.590   5.041  14.550  0.00  0.00    +0.000 A 
ATOM     15  S   UNL     1       6.271   5.808  16.044  0.00  0.00    +0.000 S 
ENDBRANCH   6   7
BRANCH   1  16
ATOM     16  C   UNL     1       3.560   7.004  18.132  0.00  0.00    +0.000 C 
BRANCH  16  20
ATOM     17  O   UNL     1       0.069  10.282  17.744  0.00  0.00    +0.000 OA
ATOM     18  C   UNL     1       0.693   9.522  18.484  0.00  0.00    +0.000 A 
ATOM     19  C   UNL     1       1.666   8.592  17.889  0.00  0.00    +0.000 A 
ATOM     20  C   UNL     1       2.340   7.751  18.685  0.00  0.00    +0.000 A 
ATOM     21  N   UNL     1       2.101   7.643  20.033  0.00  0.00    +0.000 NA
ATOM     22  C   UNL     1       1.294   8.504  20.569  0.00  0.00    +0.000 A 
ATOM     23  C   UNL     1       1.083   8.478  22.045  0.00  0.00    +0.000 A 
ATOM     24  C   UNL     1       0.340   9.424  22.640  0.00  0.00    +0.000 A 
ATOM     25  C   UNL     1      -0.289  10.462  21.862  0.00  0.00    +0.000 A 
ATOM     26 BR   UNL     1      -1.244  11.786  22.757  0.00  0.00    +0.000 Br
ATOM     27  C   UNL     1      -0.167  10.442  20.526  0.00  0.00    +0.000 A 
ATOM     28  N   UNL     1       0.601   9.486  19.867  0.00  0.00    +0.000 N 
ENDBRANCH  16  20
ENDBRANCH   1  16
TORSDOF 3
ENDMDL
MODEL 4
REMARK VINA RESULT:      -8.8      3.489      8.130
REMARK  Name = 
REMARK  3 active torsions:
REMARK  status: ('A' for Active; 'I' for Inactive)
REMARK    1  A    between atoms: C_4  and  C_5
REMARK    2  A    between atoms: C_5  and  N_6
REMARK    3  A    between atoms: C_11  and  C_12
REMARK                            x       y       z     vdW  Elec       q    Type
REMARK                         _______ _______ _______ _____ _____    ______ ____
ROOT
ATOM      1  N   UNL     1       3.702   4.223  19.326  0.00  0.00    +0.000 NA
ATOM      2  C   UNL     1       3.131   3.307  20.312  0.00  0.00    +0.000 C 
ATOM      3  C   UNL     1       1.819   2.656  19.878  0.00  0.00    +0.000 C 
ATOM      4  C   UNL     1       0.856   3.684  19.323  0.00  0.00    +0.000 C 
ATOM      5  C   UNL     1       1.540   4.398  18.164  0.00  0.00    +0.000 C 
ATOM      6  C   UNL     1       2.809   5.163  18.627  0.00  0.00    +0.000 C 
ENDROOT
BRANCH   6   7
ATOM      7  C   UNL     1       2.385   6.502  19.249  0.00  0.00    +0.000 A 
ATOM      8  N   UNL     1       1.930   6.785  20.454  0.00  0.00    +0.000 NA
ATOM      9  C   UNL     1       1.422   8.097  20.481  0.00  0.00    +0.000 A 
ATOM     10  C   UNL     1       0.796   8.759  21.565  0.00  0.00    +0.000 A 
ATOM     11  C   UNL     1       0.211  10.025  21.385  0.00  0.00    +0.000 A 
ATOM     12  C   UNL     1       0.253  10.655  20.146  0.00  0.00    +0.000 A 
ATOM     13  C   UNL     1       0.931  10.064  19.080  0.00  0.00    +0.000 A 
ATOM     14  C   UNL     1       1.519   8.801  19.278  0.00  0.00    +0.000 A 
ATOM     15  S   UNL     1       2.453   7.884  18.179  0.00  0.00    +0.000 S 
ENDBRANCH   6   7
BRANCH   1  16
ATOM     16  C   UNL     1       5.038   4.710  19.693  0.00  0.00    +0.000 C 
BRANCH  16  20
ATOM     17  O   UNL     1       7.956   7.240  16.835  0.00  0.00    +0.000 OA
ATOM     18  C   UNL     1       7.246   6.242  16.963  0.00  0.00    +0.000 A 
ATOM     19  C   UNL     1       6.658   5.952  18.279  0.00  0.00    +0.000 A 
ATOM     20  C   UNL     1       5.897   4.861  18.431  0.00  0.00    +0.000 A 
ATOM     21  N   UNL     1       5.708   3.935  17.435  0.00  0.00    +0.000 NA
ATOM     22  C   UNL     1       6.170   4.220  16.257  0.00  0.00    +0.000 A 
ATOM     23  C   UNL     1       5.903   3.284  15.127  0.00  0.00    +0.000 A 
ATOM     24  C   UNL     1       6.272   3.606  13.879  0.00  0.00    +0.000 A 
ATOM     25  C   UNL     1       6.958   4.846  13.611  0.00  0.00    +0.000 A 
ATOM     26 BR   UNL     1       7.376   5.266  11.847  0.00  0.00    +0.000 Br
ATOM     27  C   UNL     1       7.270   5.654  14.637  0.00  0.00    +0.000 A 
ATOM     28  N   UNL     1       6.899   5.365  15.947  0.00  0.00    +0.000 N 
ENDBRANCH  16  20
ENDBRANCH   1  16
TORSDOF 3
ENDMDL
MODEL 5
REMARK VINA RESULT:      -8.7      2.763      4.217
REMARK  Name = 
REMARK  3 active torsions:
REMARK  status: ('A' for Active; 'I' for Inactive)
REMARK    1  A    between atoms: C_4  and  C_5
REMARK    2  A    between atoms: C_5  and  N_6
REMARK    3  A    between atoms: C_11  and  C_12
REMARK                            x       y       z     vdW  Elec       q    Type
REMARK                         _______ _______ _______ _____ _____    ______ ____
ROOT
ATOM      1  N   UNL     1       2.386   3.667  20.205  0.00  0.00    +0.000 NA
ATOM      2  C   UNL     1       1.352   3.832  19.184  0.00  0.00    +0.000 C 
ATOM      3  C   UNL     1       1.219   2.649  18.228  0.00  0.00    +0.000 C 
ATOM      4  C   UNL     1       2.571   2.212  17.707  0.00  0.00    +0.000 C 
ATOM      5  C   UNL     1       3.454   1.873  18.901  0.00  0.00    +0.000 C 
ATOM      6  C   UNL     1       3.691   3.109  19.811  0.00  0.00    +0.000 C 
ENDROOT
BRANCH   6   7
ATOM      7  C   UNL     1       4.797   3.979  19.194  0.00  0.00    +0.000 A 
ATOM      8  N   UNL     1       5.954   4.375  19.685  0.00  0.00    +0.000 NA
ATOM      9  C   UNL     1       6.509   5.376  18.865  0.00  0.00    +0.000 A 
ATOM     10  C   UNL     1       7.710   6.097  19.074  0.00  0.00    +0.000 A 
ATOM     11  C   UNL     1       8.051   7.171  18.232  0.00  0.00    +0.000 A 
ATOM     12  C   UNL     1       7.225   7.531  17.173  0.00  0.00    +0.000 A 
ATOM     13  C   UNL     1       6.077   6.790  16.894  0.00  0.00    +0.000 A 
ATOM     14  C   UNL     1       5.753   5.713  17.740  0.00  0.00    +0.000 A 
ATOM     15  S   UNL     1       4.456   4.609  17.598  0.00  0.00    +0.000 S 
ENDBRANCH   6   7
BRANCH   1  16
ATOM     16  C   UNL     1       2.386   4.739  21.208  0.00  0.00    +0.000 C 
BRANCH  16  20
ATOM     17  O   UNL     1       2.777   8.295  18.001  0.00  0.00    +0.000 OA
ATOM     18  C   UNL     1       2.230   7.883  19.023  0.00  0.00    +0.000 A 
ATOM     19  C   UNL     1       2.496   6.505  19.466  0.00  0.00    +0.000 A 
ATOM     20  C   UNL     1       1.893   6.043  20.569  0.00  0.00    +0.000 A 
ATOM     21  N   UNL     1       0.956   6.764  21.268  0.00  0.00    +0.000 NA
ATOM     22  C   UNL     1       0.769   7.999  20.920  0.00  0.00    +0.000 A 
ATOM     23  C   UNL     1      -0.170   8.842  21.714  0.00  0.00    +0.000 A 
ATOM     24  C   UNL     1      -0.301  10.150  21.445  0.00  0.00    +0.000 A 
ATOM     25  C   UNL     1       0.442  10.756  20.368  0.00  0.00    +0.000 A 
ATOM     26 BR   UNL     1       0.272  12.590  20.096  0.00  0.00    +0.000 Br
ATOM     27  C   UNL     1       1.228   9.984  19.601  0.00  0.00    +0.000 A 
ATOM     28  N   UNL     1       1.400   8.625  19.849  0.00  0.00    +0.000 N 
ENDBRANCH  16  20
ENDBRANCH   1  16
TORSDOF 3
ENDMDL
MODEL 6
REMARK VINA RESULT:      -8.4      1.190      1.714
REMARK  Name = 
REMARK  3 active torsions:
REMARK  status: ('A' for Active; 'I' for Inactive)
REMARK    1  A    between atoms: C_4  and  C_5
REMARK    2  A    between atoms: C_5  and  N_6
REMARK    3  A    between atoms: C_11  and  C_12
REMARK                            x       y       z     vdW  Elec       q    Type
REMARK                         _______ _______ _______ _____ _____    ______ ____
ROOT
ATOM      1  N   UNL     1       4.129   6.222  18.364  0.00  0.00    +0.000 NA
ATOM      2  C   UNL     1       3.161   5.173  18.684  0.00  0.00    +0.000 C 
ATOM      3  C   UNL     1       3.658   4.151  19.704  0.00  0.00    +0.000 C 
ATOM      4  C   UNL     1       5.046   3.658  19.353  0.00  0.00    +0.000 C 
ATOM      5  C   UNL     1       5.972   4.865  19.270  0.00  0.00    +0.000 C 
ATOM      6  C   UNL     1       5.538   5.848  18.149  0.00  0.00    +0.000 C 
ENDROOT
BRANCH   6   7
ATOM      7  C   UNL     1       6.044   5.321  16.798  0.00  0.00    +0.000 A 
ATOM      8  N   UNL     1       7.033   5.733  16.030  0.00  0.00    +0.000 NA
ATOM      9  C   UNL     1       6.951   5.118  14.767  0.00  0.00    +0.000 A 
ATOM     10  C   UNL     1       7.787   5.333  13.644  0.00  0.00    +0.000 A 
ATOM     11  C   UNL     1       7.481   4.745  12.404  0.00  0.00    +0.000 A 
ATOM     12  C   UNL     1       6.365   3.928  12.265  0.00  0.00    +0.000 A 
ATOM     13  C   UNL     1       5.567   3.633  13.369  0.00  0.00    +0.000 A 
ATOM     14  C   UNL     1       5.891   4.223  14.606  0.00  0.00    +0.000 A 
ATOM     15  S   UNL     1       5.133   3.991  16.120  0.00  0.00    +0.000 S 
ENDBRANCH   6   7
BRANCH   1  16
ATOM     16  C   UNL     1       3.575   7.281  17.511  0.00  0.00    +0.000 C 
BRANCH  16  20
ATOM     17  O   UNL     1      -0.055  10.426  17.642  0.00  0.00    +0.000 OA
ATOM     18  C   UNL     1       0.652   9.638  18.271  0.00  0.00    +0.000 A 
ATOM     19  C   UNL     1       1.611   8.801  17.534  0.00  0.00    +0.000 A 
ATOM     20  C   UNL     1       2.374   7.930  18.209  0.00  0.00    +0.000 A 
ATOM     21  N   UNL     1       2.242   7.708  19.557  0.00  0.00    +0.000 NA
ATOM     22  C   UNL     1       1.445   8.489  20.218  0.00  0.00    +0.000 A 
ATOM     23  C   UNL     1       1.348   8.340  21.699  0.00  0.00    +0.000 A 
ATOM     24  C   UNL     1       0.618   9.204  22.420  0.00  0.00    +0.000 A 
ATOM     25  C   UNL     1      -0.107  10.271  21.776  0.00  0.00    +0.000 A 
ATOM     26 BR   UNL     1      -1.040  11.479  22.841  0.00  0.00    +0.000 Br
ATOM     27  C   UNL     1      -0.085  10.360  20.437  0.00  0.00    +0.000 A 
ATOM     28  N   UNL     1       0.666   9.491  19.649  0.00  0.00    +0.000 N 
ENDBRANCH  16  20
ENDBRANCH   1  16
TORSDOF 3
ENDMDL
MODEL 7
REMARK VINA RESULT:      -8.2      2.298      3.900
REMARK  Name = 
REMARK  3 active torsions:
REMARK  status: ('A' for Active; 'I' for Inactive)
REMARK    1  A    between atoms: C_4  and  C_5
REMARK    2  A    between atoms: C_5  and  N_6
REMARK    3  A    between atoms: C_11  and  C_12
REMARK                            x       y       z     vdW  Elec       q    Type
REMARK                         _______ _______ _______ _____ _____    ______ ____
ROOT
ATOM      1  N   UNL     1       2.209   4.205  20.531  0.00  0.00    +0.000 NA
ATOM      2  C   UNL     1       0.974   4.344  19.759  0.00  0.00    +0.000 C 
ATOM      3  C   UNL     1       0.339   3.018  19.346  0.00  0.00    +0.000 C 
ATOM      4  C   UNL     1       1.368   2.082  18.748  0.00  0.00    +0.000 C 
ATOM      5  C   UNL     1       2.478   1.879  19.771  0.00  0.00    +0.000 C 
ATOM      6  C   UNL     1       3.207   3.209  20.101  0.00  0.00    +0.000 C 
ENDROOT
BRANCH   6   7
ATOM      7  C   UNL     1       4.231   3.506  18.995  0.00  0.00    +0.000 A 
ATOM      8  N   UNL     1       5.453   3.994  19.063  0.00  0.00    +0.000 NA
ATOM      9  C   UNL     1       5.906   4.344  17.777  0.00  0.00    +0.000 A 
ATOM     10  C   UNL     1       7.138   4.949  17.429  0.00  0.00    +0.000 A 
ATOM     11  C   UNL     1       7.378   5.368  16.108  0.00  0.00    +0.000 A 
ATOM     12  C   UNL     1       6.418   5.179  15.120  0.00  0.00    +0.000 A 
ATOM     13  C   UNL     1       5.228   4.515  15.414  0.00  0.00    +0.000 A 
ATOM     14  C   UNL     1       5.006   4.094  16.739  0.00  0.00    +0.000 A 
ATOM     15  S   UNL     1       3.680   3.212  17.362  0.00  0.00    +0.000 S 
ENDBRANCH   6   7
BRANCH   1  16
ATOM     16  C   UNL     1       2.711   5.481  21.054  0.00  0.00    +0.000 C 
BRANCH  16  20
ATOM     17  O   UNL     1       2.675   8.334  17.189  0.00  0.00    +0.000 OA
ATOM     18  C   UNL     1       2.258   8.136  18.330  0.00  0.00    +0.000 A 
ATOM     19  C   UNL     1       2.592   6.870  18.999  0.00  0.00    +0.000 A 
ATOM     20  C   UNL     1       2.130   6.639  20.235  0.00  0.00    +0.000 A 
ATOM     21  N   UNL     1       1.272   7.493  20.885  0.00  0.00    +0.000 NA
ATOM     22  C   UNL     1       1.029   8.637  20.326  0.00  0.00    +0.000 A 
ATOM     23  C   UNL     1       0.179   9.629  21.046  0.00  0.00    +0.000 A 
ATOM     24  C   UNL     1       0.001  10.860  20.543  0.00  0.00    +0.000 A 
ATOM     25  C   UNL     1       0.603  11.236  19.288  0.00  0.00    +0.000 A 
ATOM     26 BR   UNL     1       0.378  12.983  18.684  0.00  0.00    +0.000 Br
ATOM     27  C   UNL     1       1.303  10.321  18.600  0.00  0.00    +0.000 A 
ATOM     28  N   UNL     1       1.521   9.035  19.087  0.00  0.00    +0.000 N 
ENDBRANCH  16  20
ENDBRANCH   1  16
TORSDOF 3
ENDMDL
MODEL 8
REMARK VINA RESULT:      -8.1      1.329      1.895
REMARK  Name = 
REMARK  3 active torsions:
REMARK  status: ('A' for Active; 'I' for Inactive)
REMARK    1  A    between atoms: C_4  and  C_5
REMARK    2  A    between atoms: C_5  and  N_6
REMARK    3  A    between atoms: C_11  and  C_12
REMARK                            x       y       z     vdW  Elec       q    Type
REMARK                         _______ _______ _______ _____ _____    ______ ____
ROOT
ATOM      1  N   UNL     1       5.274   6.225  18.189  0.00  0.00    +0.000 NA
ATOM      2  C   UNL     1       5.600   5.258  19.236  0.00  0.00    +0.000 C 
ATOM      3  C   UNL     1       7.016   5.387  19.792  0.00  0.00    +0.000 C 
ATOM      4  C   UNL     1       8.034   5.493  18.676  0.00  0.00    +0.000 C 
ATOM      5  C   UNL     1       7.661   6.685  17.804  0.00  0.00    +0.000 C 
ATOM      6  C   UNL     1       6.271   6.499  17.139  0.00  0.00    +0.000 C 
ENDROOT
BRANCH   6   7
ATOM      7  C   UNL     1       6.423   5.597  15.905  0.00  0.00    +0.000 A 
ATOM      8  N   UNL     1       7.323   5.602  14.941  0.00  0.00    +0.000 NA
ATOM      9  C   UNL     1       6.905   4.769  13.887  0.00  0.00    +0.000 A 
ATOM     10  C   UNL     1       7.558   4.547  12.650  0.00  0.00    +0.000 A 
ATOM     11  C   UNL     1       6.934   3.794  11.639  0.00  0.00    +0.000 A 
ATOM     12  C   UNL     1       5.675   3.240  11.845  0.00  0.00    +0.000 A 
ATOM     13  C   UNL     1       5.041   3.374  13.079  0.00  0.00    +0.000 A 
ATOM     14  C   UNL     1       5.682   4.124  14.083  0.00  0.00    +0.000 A 
ATOM     15  S   UNL     1       5.171   4.395  15.692  0.00  0.00    +0.000 S 
ENDBRANCH   6   7
BRANCH   1  16
ATOM     16  C   UNL     1       3.863   6.189  17.786  0.00  0.00    +0.000 C 
BRANCH  16  20
ATOM     17  O   UNL     1       0.929   7.345  21.412  0.00  0.00    +0.000 OA
ATOM     18  C   UNL     1       1.468   7.705  20.365  0.00  0.00    +0.000 A 
ATOM     19  C   UNL     1       2.463   6.821  19.738  0.00  0.00    +0.000 A 
ATOM     20  C   UNL     1       3.066   7.210  18.607  0.00  0.00    +0.000 A 
ATOM     21  N   UNL     1       2.871   8.447  18.043  0.00  0.00    +0.000 NA
ATOM     22  C   UNL     1       1.948   9.201  18.555  0.00  0.00    +0.000 A 
ATOM     23  C   UNL     1       1.643  10.511  17.912  0.00  0.00    +0.000 A 
ATOM     24  C   UNL     1       0.621  11.260  18.353  0.00  0.00    +0.000 A 
ATOM     25  C   UNL     1      -0.179  10.827  19.471  0.00  0.00    +0.000 A 
ATOM     26 BR   UNL     1      -1.627  11.878  19.985  0.00  0.00    +0.000 Br
ATOM     27  C   UNL     1       0.143   9.687  20.102  0.00  0.00    +0.000 A 
ATOM     28  N   UNL     1       1.189   8.874  19.674  0.00  0.00    +0.000 N 
ENDBRANCH  16  20
ENDBRANCH   1  16
TORSDOF 3
ENDMDL
MODEL 9
REMARK VINA RESULT:      -8.1      1.846      3.179
REMARK  Name = 
REMARK  3 active torsions:
REMARK  status: ('A' for Active; 'I' for Inactive)
REMARK    1  A    between atoms: C_4  and  C_5
REMARK    2  A    between atoms: C_5  and  N_6
REMARK    3  A    between atoms: C_11  and  C_12
REMARK                            x       y       z     vdW  Elec       q    Type
REMARK                         _______ _______ _______ _____ _____    ______ ____
ROOT
ATOM      1  N   UNL     1       2.765   5.760  19.571  0.00  0.00    +0.000 NA
ATOM      2  C   UNL     1       1.466   5.271  19.111  0.00  0.00    +0.000 C 
ATOM      3  C   UNL     1       1.093   3.887  19.639  0.00  0.00    +0.000 C 
ATOM      4  C   UNL     1       2.241   2.913  19.477  0.00  0.00    +0.000 C 
ATOM      5  C   UNL     1       3.455   3.482  20.200  0.00  0.00    +0.000 C 
ATOM      6  C   UNL     1       3.910   4.832  19.583  0.00  0.00    +0.000 C 
ENDROOT
BRANCH   6   7
ATOM      7  C   UNL     1       4.746   4.551  18.326  0.00  0.00    +0.000 A 
ATOM      8  N   UNL     1       5.983   4.888  18.022  0.00  0.00    +0.000 NA
ATOM      9  C   UNL     1       6.228   4.646  16.657  0.00  0.00    +0.000 A 
ATOM     10  C   UNL     1       7.411   4.923  15.929  0.00  0.00    +0.000 A 
ATOM     11  C   UNL     1       7.444   4.754  14.533  0.00  0.00    +0.000 A 
ATOM     12  C   UNL     1       6.323   4.295  13.849  0.00  0.00    +0.000 A 
ATOM     13  C   UNL     1       5.171   3.938  14.547  0.00  0.00    +0.000 A 
ATOM     14  C   UNL     1       5.156   4.105  15.945  0.00  0.00    +0.000 A 
ATOM     15  S   UNL     1       3.915   3.694  17.047  0.00  0.00    +0.000 S 
ENDBRANCH   6   7
BRANCH   1  16
ATOM     16  C   UNL     1       3.030   7.152  19.185  0.00  0.00    +0.000 C 
BRANCH  16  20
ATOM     17  O   UNL     1      -0.073  10.700  18.255  0.00  0.00    +0.000 OA
ATOM     18  C   UNL     1       0.386   9.923  19.092  0.00  0.00    +0.000 A 
ATOM     19  C   UNL     1       1.333   8.887  18.655  0.00  0.00    +0.000 A 
ATOM     20  C   UNL     1       1.826   8.027  19.556  0.00  0.00    +0.000 A 
ATOM     21  N   UNL     1       1.419   8.002  20.867  0.00  0.00    +0.000 NA
ATOM     22  C   UNL     1       0.635   8.953  21.269  0.00  0.00    +0.000 A 
ATOM     23  C   UNL     1       0.247   9.014  22.708  0.00  0.00    +0.000 A 
ATOM     24  C   UNL     1      -0.471  10.047  23.173  0.00  0.00    +0.000 A 
ATOM     25  C   UNL     1      -0.904  11.099  22.288  0.00  0.00    +0.000 A 
ATOM     26 BR   UNL     1      -1.834  12.540  23.012  0.00  0.00    +0.000 Br
ATOM     27  C   UNL     1      -0.625  11.007  20.979  0.00  0.00    +0.000 A 
ATOM     28  N   UNL     1       0.126   9.959  20.453  0.00  0.00    +0.000 N 
ENDBRANCH  16  20
ENDBRANCH   1  16
TORSDOF 3
ENDMDL
