MODEL 1
REMARK VINA RESULT:      -8.3      0.000      0.000
REMARK  Name = 
REMARK  6 active torsions:
REMARK  status: ('A' for Active; 'I' for Inactive)
REMARK    1  A    between atoms: C_1  and  N_2
REMARK    2  A    between atoms: N_2  and  C_3
REMARK    3  A    between atoms: N_2  and  C_19
REMARK    4  A    between atoms: N_6  and  C_7
REMARK    5  A    between atoms: C_25  and  C_26
REMARK    6  A    between atoms: C_25  and  C_27
REMARK                            x       y       z     vdW  Elec       q    Type
REMARK                         _______ _______ _______ _____ _____    ______ ____
ROOT
ATOM      1  C   UNL     1       1.232   9.461  19.338  0.00  0.00    +0.000 A 
ATOM      2  C   UNL     1       1.923   9.406  18.029  0.00  0.00    +0.000 A 
ATOM      3  N   UNL     1       2.629   8.433  17.561  0.00  0.00    +0.000 NA
ATOM      4  N   UNL     1       2.788   7.318  18.344  0.00  0.00    +0.000 N 
ATOM      5  C   UNL     1       2.280   7.231  19.654  0.00  0.00    +0.000 A 
ATOM      6  O   UNL     1       2.495   6.298  20.431  0.00  0.00    +0.000 OA
ATOM      7  C   UNL     1       1.450   8.384  20.105  0.00  0.00    +0.000 A 
ATOM      8 CL   UNL     1       0.710   8.221  21.667  0.00  0.00    +0.000 Cl
ENDROOT
BRANCH   4   9
ATOM      9  C   UNL     1       3.507   6.250  17.705  0.00  0.00    +0.000 A 
ATOM     10  C   UNL     1       4.815   6.441  17.223  0.00  0.00    +0.000 A 
ATOM     11  C   UNL     1       5.530   5.398  16.626  0.00  0.00    +0.000 A 
ATOM     12  C   UNL     1       4.945   4.147  16.503  0.00  0.00    +0.000 A 
ATOM     13  F   UNL     1       5.632   3.151  15.930  0.00  0.00    +0.000 F 
ATOM     14  C   UNL     1       3.663   3.917  16.968  0.00  0.00    +0.000 A 
ATOM     15  C   UNL     1       2.954   4.960  17.565  0.00  0.00    +0.000 A 
ATOM     16  F   UNL     1       1.698   4.687  17.954  0.00  0.00    +0.000 F 
ENDBRANCH   4   9
BRANCH   1  18
ATOM     17  C   UNL     1       1.076  11.701  20.378  0.00  0.00    +0.000 C 
ATOM     18  N   UNL     1       0.480  10.612  19.604  0.00  0.00    +0.000 N 
BRANCH  18  19
ATOM     19  C   UNL     1      -0.937  10.590  19.298  0.00  0.00    +0.000 C 
ATOM     20  C   UNL     1      -1.376  10.486  17.821  0.00  0.00    +0.000 C 
ATOM     21  C   UNL     1      -2.227   9.611  16.914  0.00  0.00    +0.000 C 
ATOM     22  C   UNL     1      -3.097  10.669  16.176  0.00  0.00    +0.000 C 
ATOM     23  O   UNL     1      -3.275  11.744  17.136  0.00  0.00    +0.000 OA
ATOM     24  C   UNL     1      -2.635  11.283  18.332  0.00  0.00    +0.000 C 
ATOM     25  C   UNL     1      -1.674  12.027  19.288  0.00  0.00    +0.000 C 
ATOM     26  C   UNL     1      -2.234  12.327  20.683  0.00  0.00    +0.000 C 
ATOM     27  C   UNL     1      -1.115  13.309  18.668  0.00  0.00    +0.000 C 
ENDBRANCH  18  19
ENDBRANCH   1  18
TORSDOF 3
ENDMDL
MODEL 2
REMARK VINA RESULT:      -8.2      1.438      1.667
REMARK  Name = 
REMARK  6 active torsions:
REMARK  status: ('A' for Active; 'I' for Inactive)
REMARK    1  A    between atoms: C_1  and  N_2
REMARK    2  A    between atoms: N_2  and  C_3
REMARK    3  A    between atoms: N_2  and  C_19
REMARK    4  A    between atoms: N_6  and  C_7
REMARK    5  A    between atoms: C_25  and  C_26
REMARK    6  A    between atoms: C_25  and  C_27
REMARK                            x       y       z     vdW  Elec       q    Type
REMARK                         _______ _______ _______ _____ _____    ______ ____
ROOT
ATOM      1  C   UNL     1       1.232   9.244  19.316  0.00  0.00    +0.000 A 
ATOM      2  C   UNL     1       1.823   8.709  18.067  0.00  0.00    +0.000 A 
ATOM      3  N   UNL     1       2.291   7.523  17.872  0.00  0.00    +0.000 NA
ATOM      4  N   UNL     1       2.268   6.641  18.923  0.00  0.00    +0.000 N 
ATOM      5  C   UNL     1       1.829   7.004  20.210  0.00  0.00    +0.000 A 
ATOM      6  O   UNL     1       1.897   6.280  21.206  0.00  0.00    +0.000 OA
ATOM      7  C   UNL     1       1.273   8.381  20.341  0.00  0.00    +0.000 A 
ATOM      8 CL   UNL     1       0.607   8.786  21.891  0.00  0.00    +0.000 Cl
ENDROOT
BRANCH   4   9
ATOM      9  C   UNL     1       2.721   5.319  18.589  0.00  0.00    +0.000 A 
ATOM     10  C   UNL     1       1.902   4.429  17.869  0.00  0.00    +0.000 A 
ATOM     11  C   UNL     1       2.350   3.152  17.517  0.00  0.00    +0.000 A 
ATOM     12  C   UNL     1       3.624   2.746  17.880  0.00  0.00    +0.000 A 
ATOM     13  F   UNL     1       4.049   1.522  17.542  0.00  0.00    +0.000 F 
ATOM     14  C   UNL     1       4.462   3.592  18.585  0.00  0.00    +0.000 A 
ATOM     15  C   UNL     1       4.013   4.866  18.932  0.00  0.00    +0.000 A 
ATOM     16  F   UNL     1       4.854   5.623  19.655  0.00  0.00    +0.000 F 
ENDBRANCH   4   9
BRANCH   1  18
ATOM     17  C   UNL     1       1.673  11.677  19.383  0.00  0.00    +0.000 C 
ATOM     18  N   UNL     1       0.743  10.555  19.269  0.00  0.00    +0.000 N 
BRANCH  18  19
ATOM     19  C   UNL     1      -0.692  10.753  19.336  0.00  0.00    +0.000 C 
ATOM     20  C   UNL     1      -1.539  10.479  18.074  0.00  0.00    +0.000 C 
ATOM     21  C   UNL     1      -2.724   9.639  17.622  0.00  0.00    +0.000 C 
ATOM     22  C   UNL     1      -3.611  10.699  16.908  0.00  0.00    +0.000 C 
ATOM     23  O   UNL     1      -3.362  11.939  17.621  0.00  0.00    +0.000 OA
ATOM     24  C   UNL     1      -2.481  11.579  18.693  0.00  0.00    +0.000 C 
ATOM     25  C   UNL     1      -1.197  12.280  19.194  0.00  0.00    +0.000 C 
ATOM     26  C   UNL     1      -1.294  12.921  20.582  0.00  0.00    +0.000 C 
ATOM     27  C   UNL     1      -0.663  13.302  18.188  0.00  0.00    +0.000 C 
ENDBRANCH  18  19
ENDBRANCH   1  18
TORSDOF 3
ENDMDL
MODEL 3
REMARK VINA RESULT:      -8.1      1.154      1.159
REMARK  Name = 
REMARK  6 active torsions:
REMARK  status: ('A' for Active; 'I' for Inactive)
REMARK    1  A    between atoms: C_1  and  N_2
REMARK    2  A    between atoms: N_2  and  C_3
REMARK    3  A    between atoms: N_2  and  C_19
REMARK    4  A    between atoms: N_6  and  C_7
REMARK    5  A    between atoms: C_25  and  C_26
REMARK    6  A    between atoms: C_25  and  C_27
REMARK                            x       y       z     vdW  Elec       q    Type
REMARK                         _______ _______ _______ _____ _____    ______ ____
ROOT
ATOM      1  C   UNL     1       1.253   9.330  19.373  0.00  0.00    +0.000 A 
ATOM      2  C   UNL     1       1.923   8.882  18.130  0.00  0.00    +0.000 A 
ATOM      3  N   UNL     1       2.428   7.719  17.892  0.00  0.00    +0.000 NA
ATOM      4  N   UNL     1       2.365   6.776  18.886  0.00  0.00    +0.000 N 
ATOM      5  C   UNL     1       1.847   7.052  20.165  0.00  0.00    +0.000 A 
ATOM      6  O   UNL     1       1.875   6.271  21.119  0.00  0.00    +0.000 OA
ATOM      7  C   UNL     1       1.256   8.408  20.345  0.00  0.00    +0.000 A 
ATOM      8 CL   UNL     1       0.495   8.707  21.877  0.00  0.00    +0.000 Cl
ENDROOT
BRANCH   4   9
ATOM      9  C   UNL     1       2.865   5.484  18.500  0.00  0.00    +0.000 A 
ATOM     10  C   UNL     1       4.145   5.053  18.893  0.00  0.00    +0.000 A 
ATOM     11  C   UNL     1       4.625   3.786  18.544  0.00  0.00    +0.000 A 
ATOM     12  C   UNL     1       3.830   2.933  17.796  0.00  0.00    +0.000 A 
ATOM     13  F   UNL     1       4.293   1.721  17.463  0.00  0.00    +0.000 F 
ATOM     14  C   UNL     1       2.564   3.318  17.393  0.00  0.00    +0.000 A 
ATOM     15  C   UNL     1       2.087   4.580  17.745  0.00  0.00    +0.000 A 
ATOM     16  F   UNL     1       0.871   4.914  17.285  0.00  0.00    +0.000 F 
ENDBRANCH   4   9
BRANCH   1  18
ATOM     17  C   UNL     1       1.635  11.762  19.619  0.00  0.00    +0.000 C 
ATOM     18  N   UNL     1       0.739  10.633  19.376  0.00  0.00    +0.000 N 
BRANCH  18  19
ATOM     19  C   UNL     1      -0.702  10.800  19.362  0.00  0.00    +0.000 C 
ATOM     20  C   UNL     1      -1.473  10.485  18.062  0.00  0.00    +0.000 C 
ATOM     21  C   UNL     1      -2.614   9.611  17.564  0.00  0.00    +0.000 C 
ATOM     22  C   UNL     1      -3.484  10.639  16.784  0.00  0.00    +0.000 C 
ATOM     23  O   UNL     1      -3.300  11.896  17.485  0.00  0.00    +0.000 OA
ATOM     24  C   UNL     1      -2.470  11.575  18.609  0.00  0.00    +0.000 C 
ATOM     25  C   UNL     1      -1.230  12.313  19.164  0.00  0.00    +0.000 C 
ATOM     26  C   UNL     1      -1.415  12.976  20.533  0.00  0.00    +0.000 C 
ATOM     27  C   UNL     1      -0.664  13.328  18.169  0.00  0.00    +0.000 C 
ENDBRANCH  18  19
ENDBRANCH   1  18
TORSDOF 3
ENDMDL
MODEL 4
REMARK VINA RESULT:      -8.1      0.906      1.304
REMARK  Name = 
REMARK  6 active torsions:
REMARK  status: ('A' for Active; 'I' for Inactive)
REMARK    1  A    between atoms: C_1  and  N_2
REMARK    2  A    between atoms: N_2  and  C_3
REMARK    3  A    between atoms: N_2  and  C_19
REMARK    4  A    between atoms: N_6  and  C_7
REMARK    5  A    between atoms: C_25  and  C_26
REMARK    6  A    between atoms: C_25  and  C_27
REMARK                            x       y       z     vdW  Elec       q    Type
REMARK                         _______ _______ _______ _____ _____    ______ ____
ROOT
ATOM      1  C   UNL     1       1.255   9.385  19.377  0.00  0.00    +0.000 A 
ATOM      2  C   UNL     1       1.994   9.335  18.094  0.00  0.00    +0.000 A 
ATOM      3  N   UNL     1       2.695   8.353  17.637  0.00  0.00    +0.000 NA
ATOM      4  N   UNL     1       2.798   7.222  18.406  0.00  0.00    +0.000 N 
ATOM      5  C   UNL     1       2.239   7.126  19.695  0.00  0.00    +0.000 A 
ATOM      6  O   UNL     1       2.403   6.176  20.463  0.00  0.00    +0.000 OA
ATOM      7  C   UNL     1       1.419   8.291  20.133  0.00  0.00    +0.000 A 
ATOM      8 CL   UNL     1       0.617   8.121  21.663  0.00  0.00    +0.000 Cl
ENDROOT
BRANCH   4   9
ATOM      9  C   UNL     1       3.517   6.148  17.777  0.00  0.00    +0.000 A 
ATOM     10  C   UNL     1       2.941   4.873  17.635  0.00  0.00    +0.000 A 
ATOM     11  C   UNL     1       3.625   3.832  16.998  0.00  0.00    +0.000 A 
ATOM     12  C   UNL     1       4.897   4.054  16.495  0.00  0.00    +0.000 A 
ATOM     13  F   UNL     1       5.550   3.055  15.887  0.00  0.00    +0.000 F 
ATOM     14  C   UNL     1       5.498   5.295  16.612  0.00  0.00    +0.000 A 
ATOM     15  C   UNL     1       4.811   6.331  17.244  0.00  0.00    +0.000 A 
ATOM     16  F   UNL     1       5.464   7.497  17.368  0.00  0.00    +0.000 F 
ENDBRANCH   4   9
BRANCH   1  18
ATOM     17  C   UNL     1       1.117  11.619  20.432  0.00  0.00    +0.000 C 
ATOM     18  N   UNL     1       0.520  10.549  19.634  0.00  0.00    +0.000 N 
BRANCH  18  19
ATOM     19  C   UNL     1      -0.889  10.559  19.291  0.00  0.00    +0.000 C 
ATOM     20  C   UNL     1      -1.292  10.423  17.806  0.00  0.00    +0.000 C 
ATOM     21  C   UNL     1      -2.146   9.545  16.904  0.00  0.00    +0.000 C 
ATOM     22  C   UNL     1      -2.964  10.605  16.111  0.00  0.00    +0.000 C 
ATOM     23  O   UNL     1      -3.135  11.714  17.033  0.00  0.00    +0.000 OA
ATOM     24  C   UNL     1      -2.540  11.271  18.259  0.00  0.00    +0.000 C 
ATOM     25  C   UNL     1      -1.582  12.016  19.218  0.00  0.00    +0.000 C 
ATOM     26  C   UNL     1      -2.168  12.374  20.588  0.00  0.00    +0.000 C 
ATOM     27  C   UNL     1      -0.969  13.261  18.575  0.00  0.00    +0.000 C 
ENDBRANCH  18  19
ENDBRANCH   1  18
TORSDOF 3
ENDMDL
MODEL 5
REMARK VINA RESULT:      -7.9      3.041      8.120
REMARK  Name = 
REMARK  6 active torsions:
REMARK  status: ('A' for Active; 'I' for Inactive)
REMARK    1  A    between atoms: C_1  and  N_2
REMARK    2  A    between atoms: N_2  and  C_3
REMARK    3  A    between atoms: N_2  and  C_19
REMARK    4  A    between atoms: N_6  and  C_7
REMARK    5  A    between atoms: C_25  and  C_26
REMARK    6  A    between atoms: C_25  and  C_27
REMARK                            x       y       z     vdW  Elec       q    Type
REMARK                         _______ _______ _______ _____ _____    ______ ____
ROOT
ATOM      1  C   UNL     1       3.349   6.508  18.576  0.00  0.00    +0.000 A 
ATOM      2  C   UNL     1       3.169   7.720  17.743  0.00  0.00    +0.000 A 
ATOM      3  N   UNL     1       2.403   8.728  17.991  0.00  0.00    +0.000 NA
ATOM      4  N   UNL     1       1.648   8.697  19.136  0.00  0.00    +0.000 N 
ATOM      5  C   UNL     1       1.621   7.585  19.999  0.00  0.00    +0.000 A 
ATOM      6  O   UNL     1       0.875   7.470  20.974  0.00  0.00    +0.000 OA
ATOM      7  C   UNL     1       2.559   6.478  19.658  0.00  0.00    +0.000 A 
ATOM      8 CL   UNL     1       2.628   5.167  20.793  0.00  0.00    +0.000 Cl
ENDROOT
BRANCH   4   9
ATOM      9  C   UNL     1       0.900   9.900  19.376  0.00  0.00    +0.000 A 
ATOM     10  C   UNL     1       1.193  10.733  20.472  0.00  0.00    +0.000 A 
ATOM     11  C   UNL     1       0.486  11.919  20.694  0.00  0.00    +0.000 A 
ATOM     12  C   UNL     1      -0.526  12.289  19.823  0.00  0.00    +0.000 A 
ATOM     13  F   UNL     1      -1.202  13.424  20.039  0.00  0.00    +0.000 F 
ATOM     14  C   UNL     1      -0.844  11.499  18.732  0.00  0.00    +0.000 A 
ATOM     15  C   UNL     1      -0.134  10.319  18.512  0.00  0.00    +0.000 A 
ATOM     16  F   UNL     1      -0.520   9.573  17.464  0.00  0.00    +0.000 F 
ENDBRANCH   4   9
BRANCH   1  18
ATOM     17  C   UNL     1       4.593   4.402  18.949  0.00  0.00    +0.000 C 
ATOM     18  N   UNL     1       4.280   5.565  18.121  0.00  0.00    +0.000 N 
BRANCH  18  19
ATOM     19  C   UNL     1       5.069   5.893  16.949  0.00  0.00    +0.000 C 
ATOM     20  C   UNL     1       5.378   4.778  15.927  0.00  0.00    +0.000 C 
ATOM     21  C   UNL     1       5.211   4.471  14.446  0.00  0.00    +0.000 C 
ATOM     22  C   UNL     1       6.643   4.005  14.056  0.00  0.00    +0.000 C 
ATOM     23  O   UNL     1       7.533   4.760  14.920  0.00  0.00    +0.000 OA
ATOM     24  C   UNL     1       6.673   5.633  15.664  0.00  0.00    +0.000 C 
ATOM     25  C   UNL     1       6.666   5.959  17.176  0.00  0.00    +0.000 C 
ATOM     26  C   UNL     1       7.074   7.390  17.543  0.00  0.00    +0.000 C 
ATOM     27  C   UNL     1       7.491   4.960  17.989  0.00  0.00    +0.000 C 
ENDBRANCH  18  19
ENDBRANCH   1  18
TORSDOF 3
ENDMDL
MODEL 6
REMARK VINA RESULT:      -7.9      1.625      2.899
REMARK  Name = 
REMARK  6 active torsions:
REMARK  status: ('A' for Active; 'I' for Inactive)
REMARK    1  A    between atoms: C_1  and  N_2
REMARK    2  A    between atoms: N_2  and  C_3
REMARK    3  A    between atoms: N_2  and  C_19
REMARK    4  A    between atoms: N_6  and  C_7
REMARK    5  A    between atoms: C_25  and  C_26
REMARK    6  A    between atoms: C_25  and  C_27
REMARK                            x       y       z     vdW  Elec       q    Type
REMARK                         _______ _______ _______ _____ _____    ______ ____
ROOT
ATOM      1  C   UNL     1       0.989   9.513  19.224  0.00  0.00    +0.000 A 
ATOM      2  C   UNL     1       1.663   9.464  17.905  0.00  0.00    +0.000 A 
ATOM      3  N   UNL     1       2.453   8.543  17.468  0.00  0.00    +0.000 NA
ATOM      4  N   UNL     1       2.730   7.486  18.296  0.00  0.00    +0.000 N 
ATOM      5  C   UNL     1       2.252   7.410  19.618  0.00  0.00    +0.000 A 
ATOM      6  O   UNL     1       2.568   6.539  20.432  0.00  0.00    +0.000 OA
ATOM      7  C   UNL     1       1.321   8.498  20.033  0.00  0.00    +0.000 A 
ATOM      8 CL   UNL     1       0.624   8.337  21.615  0.00  0.00    +0.000 Cl
ENDROOT
BRANCH   4   9
ATOM      9  C   UNL     1       3.540   6.464  17.692  0.00  0.00    +0.000 A 
ATOM     10  C   UNL     1       4.831   6.749  17.210  0.00  0.00    +0.000 A 
ATOM     11  C   UNL     1       5.634   5.752  16.647  0.00  0.00    +0.000 A 
ATOM     12  C   UNL     1       5.156   4.454  16.558  0.00  0.00    +0.000 A 
ATOM     13  F   UNL     1       5.927   3.502  16.017  0.00  0.00    +0.000 F 
ATOM     14  C   UNL     1       3.894   4.132  17.023  0.00  0.00    +0.000 A 
ATOM     15  C   UNL     1       3.097   5.128  17.587  0.00  0.00    +0.000 A 
ATOM     16  F   UNL     1       1.866   4.763  17.977  0.00  0.00    +0.000 F 
ENDBRANCH   4   9
BRANCH   1  18
ATOM     17  C   UNL     1      -1.061  10.762  18.626  0.00  0.00    +0.000 C 
ATOM     18  N   UNL     1       0.134  10.598  19.453  0.00  0.00    +0.000 N 
BRANCH  18  19
ATOM     19  C   UNL     1       0.581  11.645  20.351  0.00  0.00    +0.000 C 
ATOM     20  C   UNL     1      -0.471  12.407  21.185  0.00  0.00    +0.000 C 
ATOM     21  C   UNL     1      -0.796  12.739  22.634  0.00  0.00    +0.000 C 
ATOM     22  C   UNL     1      -1.036  14.275  22.561  0.00  0.00    +0.000 C 
ATOM     23  O   UNL     1      -0.155  14.743  21.505  0.00  0.00    +0.000 OA
ATOM     24  C   UNL     1       0.573  13.581  21.089  0.00  0.00    +0.000 C 
ATOM     25  C   UNL     1       0.891  13.073  19.663  0.00  0.00    +0.000 C 
ATOM     26  C   UNL     1       2.367  13.136  19.255  0.00  0.00    +0.000 C 
ATOM     27  C   UNL     1       0.028  13.752  18.599  0.00  0.00    +0.000 C 
ENDBRANCH  18  19
ENDBRANCH   1  18
TORSDOF 3
ENDMDL
MODEL 7
REMARK VINA RESULT:      -7.8      2.090      2.335
REMARK  Name = 
REMARK  6 active torsions:
REMARK  status: ('A' for Active; 'I' for Inactive)
REMARK    1  A    between atoms: C_1  and  N_2
REMARK    2  A    between atoms: N_2  and  C_3
REMARK    3  A    between atoms: N_2  and  C_19
REMARK    4  A    between atoms: N_6  and  C_7
REMARK    5  A    between atoms: C_25  and  C_26
REMARK    6  A    between atoms: C_25  and  C_27
REMARK                            x       y       z     vdW  Elec       q    Type
REMARK                         _______ _______ _______ _____ _____    ______ ____
ROOT
ATOM      1  C   UNL     1       1.015   9.295  19.981  0.00  0.00    +0.000 A 
ATOM      2  C   UNL     1       0.896   8.171  20.939  0.00  0.00    +0.000 A 
ATOM      3  N   UNL     1       1.437   7.003  20.841  0.00  0.00    +0.000 NA
ATOM      4  N   UNL     1       2.199   6.738  19.732  0.00  0.00    +0.000 N 
ATOM      5  C   UNL     1       2.346   7.655  18.674  0.00  0.00    +0.000 A 
ATOM      6  O   UNL     1       2.926   7.416  17.612  0.00  0.00    +0.000 OA
ATOM      7  C   UNL     1       1.718   8.990  18.881  0.00  0.00    +0.000 A 
ATOM      8 CL   UNL     1       2.011  10.168  17.641  0.00  0.00    +0.000 Cl
ENDROOT
BRANCH   4   9
ATOM      9  C   UNL     1       2.837   5.450  19.753  0.00  0.00    +0.000 A 
ATOM     10  C   UNL     1       4.203   5.310  19.448  0.00  0.00    +0.000 A 
ATOM     11  C   UNL     1       4.835   4.063  19.495  0.00  0.00    +0.000 A 
ATOM     12  C   UNL     1       4.107   2.938  19.848  0.00  0.00    +0.000 A 
ATOM     13  F   UNL     1       4.715   1.745  19.891  0.00  0.00    +0.000 F 
ATOM     14  C   UNL     1       2.762   3.033  20.158  0.00  0.00    +0.000 A 
ATOM     15  C   UNL     1       2.137   4.279  20.114  0.00  0.00    +0.000 A 
ATOM     16  F   UNL     1       0.821   4.301  20.380  0.00  0.00    +0.000 F 
ENDBRANCH   4   9
BRANCH   1  18
ATOM     17  C   UNL     1       1.007  11.395  21.289  0.00  0.00    +0.000 C 
ATOM     18  N   UNL     1       0.374  10.489  20.332  0.00  0.00    +0.000 N 
BRANCH  18  19
ATOM     19  C   UNL     1      -1.000  10.679  19.906  0.00  0.00    +0.000 C 
ATOM     20  C   UNL     1      -1.363  10.414  18.429  0.00  0.00    +0.000 C 
ATOM     21  C   UNL     1      -2.315   9.573  17.593  0.00  0.00    +0.000 C 
ATOM     22  C   UNL     1      -2.914  10.636  16.628  0.00  0.00    +0.000 C 
ATOM     23  O   UNL     1      -2.934  11.870  17.393  0.00  0.00    +0.000 OA
ATOM     24  C   UNL     1      -2.468  11.503  18.698  0.00  0.00    +0.000 C 
ATOM     25  C   UNL     1      -1.438  12.206  19.613  0.00  0.00    +0.000 C 
ATOM     26  C   UNL     1      -2.009  12.831  20.890  0.00  0.00    +0.000 C 
ATOM     27  C   UNL     1      -0.602  13.240  18.858  0.00  0.00    +0.000 C 
ENDBRANCH  18  19
ENDBRANCH   1  18
TORSDOF 3
ENDMDL
MODEL 8
REMARK VINA RESULT:      -7.8      3.482      8.144
REMARK  Name = 
REMARK  6 active torsions:
REMARK  status: ('A' for Active; 'I' for Inactive)
REMARK    1  A    between atoms: C_1  and  N_2
REMARK    2  A    between atoms: N_2  and  C_3
REMARK    3  A    between atoms: N_2  and  C_19
REMARK    4  A    between atoms: N_6  and  C_7
REMARK    5  A    between atoms: C_25  and  C_26
REMARK    6  A    between atoms: C_25  and  C_27
REMARK                            x       y       z     vdW  Elec       q    Type
REMARK                         _______ _______ _______ _____ _____    ______ ____
ROOT
ATOM      1  C   UNL     1       3.384   5.029  18.301  0.00  0.00    +0.000 A 
ATOM      2  C   UNL     1       3.155   6.395  17.775  0.00  0.00    +0.000 A 
ATOM      3  N   UNL     1       2.551   7.368  18.369  0.00  0.00    +0.000 NA
ATOM      4  N   UNL     1       2.042   7.139  19.622  0.00  0.00    +0.000 N 
ATOM      5  C   UNL     1       2.085   5.876  20.241  0.00  0.00    +0.000 A 
ATOM      6  O   UNL     1       1.541   5.600  21.313  0.00  0.00    +0.000 OA
ATOM      7  C   UNL     1       2.828   4.817  19.502  0.00  0.00    +0.000 A 
ATOM      8 CL   UNL     1       3.000   3.297  20.322  0.00  0.00    +0.000 Cl
ENDROOT
BRANCH   4   9
ATOM      9  C   UNL     1       1.471   8.303  20.244  0.00  0.00    +0.000 A 
ATOM     10  C   UNL     1       1.481   8.459  21.642  0.00  0.00    +0.000 A 
ATOM     11  C   UNL     1       0.953   9.602  22.251  0.00  0.00    +0.000 A 
ATOM     12  C   UNL     1       0.407  10.607  21.467  0.00  0.00    +0.000 A 
ATOM     13  F   UNL     1      -0.099  11.699  22.053  0.00  0.00    +0.000 F 
ATOM     14  C   UNL     1       0.381  10.494  20.089  0.00  0.00    +0.000 A 
ATOM     15  C   UNL     1       0.912   9.353  19.486  0.00  0.00    +0.000 A 
ATOM     16  F   UNL     1       0.816   9.281  18.148  0.00  0.00    +0.000 F 
ENDBRANCH   4   9
BRANCH   1  18
ATOM     17  C   UNL     1       3.495   2.915  17.021  0.00  0.00    +0.000 C 
ATOM     18  N   UNL     1       4.114   4.155  17.485  0.00  0.00    +0.000 N 
BRANCH  18  19
ATOM     19  C   UNL     1       5.533   4.402  17.315  0.00  0.00    +0.000 C 
ATOM     20  C   UNL     1       6.162   5.628  18.012  0.00  0.00    +0.000 C 
ATOM     21  C   UNL     1       7.278   5.974  18.985  0.00  0.00    +0.000 C 
ATOM     22  C   UNL     1       7.999   7.136  18.243  0.00  0.00    +0.000 C 
ATOM     23  O   UNL     1       7.837   6.838  16.831  0.00  0.00    +0.000 OA
ATOM     24  C   UNL     1       7.161   5.574  16.795  0.00  0.00    +0.000 C 
ATOM     25  C   UNL     1       5.959   5.121  15.934  0.00  0.00    +0.000 C 
ATOM     26  C   UNL     1       6.270   4.058  14.876  0.00  0.00    +0.000 C 
ATOM     27  C   UNL     1       5.232   6.300  15.285  0.00  0.00    +0.000 C 
ENDBRANCH  18  19
ENDBRANCH   1  18
TORSDOF 3
ENDMDL
MODEL 9
REMARK VINA RESULT:      -7.7      3.222      8.212
REMARK  Name = 
REMARK  6 active torsions:
REMARK  status: ('A' for Active; 'I' for Inactive)
REMARK    1  A    between atoms: C_1  and  N_2
REMARK    2  A    between atoms: N_2  and  C_3
REMARK    3  A    between atoms: N_2  and  C_19
REMARK    4  A    between atoms: N_6  and  C_7
REMARK    5  A    between atoms: C_25  and  C_26
REMARK    6  A    between atoms: C_25  and  C_27
REMARK                            x       y       z     vdW  Elec       q    Type
REMARK                         _______ _______ _______ _____ _____    ______ ____
ROOT
ATOM      1  C   UNL     1       3.499   6.130  18.661  0.00  0.00    +0.000 A 
ATOM      2  C   UNL     1       3.309   7.416  17.949  0.00  0.00    +0.000 A 
ATOM      3  N   UNL     1       2.518   8.380  18.280  0.00  0.00    +0.000 NA
ATOM      4  N   UNL     1       1.745   8.222  19.402  0.00  0.00    +0.000 N 
ATOM      5  C   UNL     1       1.727   7.030  20.150  0.00  0.00    +0.000 A 
ATOM      6  O   UNL     1       0.966   6.804  21.095  0.00  0.00    +0.000 OA
ATOM      7  C   UNL     1       2.692   5.979  19.720  0.00  0.00    +0.000 A 
ATOM      8 CL   UNL     1       2.769   4.563  20.720  0.00  0.00    +0.000 Cl
ENDROOT
BRANCH   4   9
ATOM      9  C   UNL     1       0.968   9.381  19.747  0.00  0.00    +0.000 A 
ATOM     10  C   UNL     1       0.106   9.982  18.812  0.00  0.00    +0.000 A 
ATOM     11  C   UNL     1      -0.674  11.093  19.151  0.00  0.00    +0.000 A 
ATOM     12  C   UNL     1      -0.600  11.618  20.431  0.00  0.00    +0.000 A 
ATOM     13  F   UNL     1      -1.347  12.683  20.752  0.00  0.00    +0.000 F 
ATOM     14  C   UNL     1       0.233  11.054  21.381  0.00  0.00    +0.000 A 
ATOM     15  C   UNL     1       1.006   9.944  21.040  0.00  0.00    +0.000 A 
ATOM     16  F   UNL     1       1.829   9.471  21.989  0.00  0.00    +0.000 F 
ENDBRANCH   4   9
BRANCH   1  18
ATOM     17  C   UNL     1       4.838   4.062  18.886  0.00  0.00    +0.000 C 
ATOM     18  N   UNL     1       4.457   5.255  18.132  0.00  0.00    +0.000 N 
BRANCH  18  19
ATOM     19  C   UNL     1       5.202   5.681  16.963  0.00  0.00    +0.000 C 
ATOM     20  C   UNL     1       5.485   4.650  15.848  0.00  0.00    +0.000 C 
ATOM     21  C   UNL     1       5.271   4.456  14.355  0.00  0.00    +0.000 C 
ATOM     22  C   UNL     1       6.693   4.038  13.882  0.00  0.00    +0.000 C 
ATOM     23  O   UNL     1       7.605   4.735  14.771  0.00  0.00    +0.000 OA
ATOM     24  C   UNL     1       6.763   5.539  15.608  0.00  0.00    +0.000 C 
ATOM     25  C   UNL     1       6.805   5.748  17.140  0.00  0.00    +0.000 C 
ATOM     26  C   UNL     1       7.213   7.151  17.602  0.00  0.00    +0.000 C 
ATOM     27  C   UNL     1       7.666   4.699  17.846  0.00  0.00    +0.000 C 
ENDBRANCH  18  19
ENDBRANCH   1  18
TORSDOF 3
ENDMDL
