MODEL 1
REMARK VINA RESULT:      -8.6      0.000      0.000
REMARK  Name = 
REMARK  6 active torsions:
REMARK  status: ('A' for Active; 'I' for Inactive)
REMARK    1  A    between atoms: C_1  and  C_2
REMARK    2  A    between atoms: C_2  and  C_3
REMARK    3  A    between atoms: C_5  and  N_6
REMARK    4  A    between atoms: C_7  and  C_9
REMARK    5  A    between atoms: C_9  and  C_10
REMARK    6  A    between atoms: N_13  and  C_14
REMARK                            x       y       z     vdW  Elec       q    Type
REMARK                         _______ _______ _______ _____ _____    ______ ____
ROOT
ATOM      1  N   UNL     1       4.359   4.063  16.552  0.00  0.00    +0.000 N 
ATOM      2  C   UNL     1       3.544   3.326  17.384  0.00  0.00    +0.000 C 
ATOM      3  O   UNL     1       3.912   2.305  17.959  0.00  0.00    +0.000 OA
ATOM      4  H   UNL     1       3.968   4.833  16.024  0.00  0.00    +0.000 HD
ENDROOT
BRANCH   1   9
ATOM      5  C   UNL     1       7.741   6.632  18.056  0.00  0.00    +0.000 C 
ATOM      6  C   UNL     1       6.852   5.965  16.994  0.00  0.00    +0.000 C 
ATOM      7  C   UNL     1       5.568   6.804  16.873  0.00  0.00    +0.000 C 
ATOM      8  C   UNL     1       6.640   4.502  17.405  0.00  0.00    +0.000 C 
ATOM      9  C   UNL     1       5.773   3.758  16.389  0.00  0.00    +0.000 C 
ATOM     10  C   UNL     1       6.242   4.095  14.991  0.00  0.00    +0.000 A 
ATOM     11  C   UNL     1       5.821   3.315  13.899  0.00  0.00    +0.000 A 
ATOM     12  C   UNL     1       6.277   3.601  12.612  0.00  0.00    +0.000 A 
ATOM     13  C   UNL     1       7.157   4.660  12.416  0.00  0.00    +0.000 A 
ATOM     14  F   UNL     1       7.599   4.924  11.180  0.00  0.00    +0.000 F 
ATOM     15  C   UNL     1       7.579   5.447  13.477  0.00  0.00    +0.000 A 
ATOM     16  C   UNL     1       7.110   5.177  14.762  0.00  0.00    +0.000 A 
ATOM     17  O   UNL     1       7.562   6.022  15.743  0.00  0.00    +0.000 OA
ENDBRANCH   1   9
BRANCH   2  18
ATOM     18  C   UNL     1       2.147   3.888  17.556  0.00  0.00    +0.000 C 
BRANCH  18  19
ATOM     19  C   UNL     1       2.164   5.152  18.329  0.00  0.00    +0.000 A 
ATOM     20  C   UNL     1       2.562   5.348  19.666  0.00  0.00    +0.000 A 
ATOM     21  N   UNL     1       2.487   6.624  20.041  0.00  0.00    +0.000 NA
ATOM     22  N   UNL     1       2.013   7.282  18.952  0.00  0.00    +0.000 N 
ATOM     23  C   UNL     1       1.812   6.413  17.900  0.00  0.00    +0.000 A 
BRANCH  22  24
ATOM     24  C   UNL     1       1.769   8.681  18.983  0.00  0.00    +0.000 A 
ATOM     25  C   UNL     1       1.028   9.231  20.039  0.00  0.00    +0.000 A 
ATOM     26  C   UNL     1       0.760  10.601  20.070  0.00  0.00    +0.000 A 
ATOM     27  C   UNL     1       1.224  11.427  19.047  0.00  0.00    +0.000 A 
ATOM     28  C   UNL     1       1.968  10.888  17.999  0.00  0.00    +0.000 A 
ATOM     29  C   UNL     1       2.247   9.520  17.965  0.00  0.00    +0.000 A 
ENDBRANCH  22  24
ENDBRANCH  18  19
ENDBRANCH   2  18
TORSDOF 4
ENDMDL
MODEL 2
REMARK VINA RESULT:      -8.3      3.610      5.775
REMARK  Name = 
REMARK  6 active torsions:
REMARK  status: ('A' for Active; 'I' for Inactive)
REMARK    1  A    between atoms: C_1  and  C_2
REMARK    2  A    between atoms: C_2  and  C_3
REMARK    3  A    between atoms: C_5  and  N_6
REMARK    4  A    between atoms: C_7  and  C_9
REMARK    5  A    between atoms: C_9  and  C_10
REMARK    6  A    between atoms: N_13  and  C_14
REMARK                            x       y       z     vdW  Elec       q    Type
REMARK                         _______ _______ _______ _____ _____    ______ ____
ROOT
ATOM      1  N   UNL     1       2.226   7.150  18.835  0.00  0.00    +0.000 N 
ATOM      2  C   UNL     1       1.985   8.461  18.487  0.00  0.00    +0.000 C 
ATOM      3  O   UNL     1       2.119   8.893  17.345  0.00  0.00    +0.000 OA
ATOM      4  H   UNL     1       2.201   6.879  19.810  0.00  0.00    +0.000 HD
ENDROOT
BRANCH   1   9
ATOM      5  C   UNL     1       1.270   2.766  19.244  0.00  0.00    +0.000 C 
ATOM      6  C   UNL     1       2.183   3.999  19.154  0.00  0.00    +0.000 C 
ATOM      7  C   UNL     1       2.196   4.667  20.541  0.00  0.00    +0.000 C 
ATOM      8  C   UNL     1       1.673   4.883  18.009  0.00  0.00    +0.000 C 
ATOM      9  C   UNL     1       2.538   6.133  17.841  0.00  0.00    +0.000 C 
ATOM     10  C   UNL     1       3.998   5.742  17.907  0.00  0.00    +0.000 A 
ATOM     11  C   UNL     1       4.989   6.641  17.478  0.00  0.00    +0.000 A 
ATOM     12  C   UNL     1       6.334   6.273  17.506  0.00  0.00    +0.000 A 
ATOM     13  C   UNL     1       6.689   5.006  17.955  0.00  0.00    +0.000 A 
ATOM     14  F   UNL     1       7.981   4.653  17.970  0.00  0.00    +0.000 F 
ATOM     15  C   UNL     1       5.728   4.104  18.390  0.00  0.00    +0.000 A 
ATOM     16  C   UNL     1       4.385   4.476  18.383  0.00  0.00    +0.000 A 
ATOM     17  O   UNL     1       3.510   3.530  18.853  0.00  0.00    +0.000 OA
ENDBRANCH   1   9
BRANCH   2  18
ATOM     18  C   UNL     1       1.514   9.339  19.629  0.00  0.00    +0.000 C 
BRANCH  18  19
ATOM     19  C   UNL     1       0.467  10.289  19.186  0.00  0.00    +0.000 A 
ATOM     20  C   UNL     1       0.590  11.673  18.956  0.00  0.00    +0.000 A 
ATOM     21  N   UNL     1      -0.545  12.224  18.527  0.00  0.00    +0.000 NA
ATOM     22  N   UNL     1      -1.439  11.203  18.494  0.00  0.00    +0.000 N 
ATOM     23  C   UNL     1      -0.850  10.018  18.885  0.00  0.00    +0.000 A 
BRANCH  22  24
ATOM     24  C   UNL     1      -2.790  11.416  18.108  0.00  0.00    +0.000 A 
ATOM     25  C   UNL     1      -3.193  11.105  16.802  0.00  0.00    +0.000 A 
ATOM     26  C   UNL     1      -4.511  11.334  16.402  0.00  0.00    +0.000 A 
ATOM     27  C   UNL     1      -5.430  11.876  17.299  0.00  0.00    +0.000 A 
ATOM     28  C   UNL     1      -5.037  12.180  18.601  0.00  0.00    +0.000 A 
ATOM     29  C   UNL     1      -3.723  11.947  19.011  0.00  0.00    +0.000 A 
ENDBRANCH  22  24
ENDBRANCH  18  19
ENDBRANCH   2  18
TORSDOF 4
ENDMDL
MODEL 3
REMARK VINA RESULT:      -8.1      3.735      5.785
REMARK  Name = 
REMARK  6 active torsions:
REMARK  status: ('A' for Active; 'I' for Inactive)
REMARK    1  A    between atoms: C_1  and  C_2
REMARK    2  A    between atoms: C_2  and  C_3
REMARK    3  A    between atoms: C_5  and  N_6
REMARK    4  A    between atoms: C_7  and  C_9
REMARK    5  A    between atoms: C_9  and  C_10
REMARK    6  A    between atoms: N_13  and  C_14
REMARK                            x       y       z     vdW  Elec       q    Type
REMARK                         _______ _______ _______ _____ _____    ______ ____
ROOT
ATOM      1  N   UNL     1       3.001   6.941  18.408  0.00  0.00    +0.000 N 
ATOM      2  C   UNL     1       2.240   7.990  18.877  0.00  0.00    +0.000 C 
ATOM      3  O   UNL     1       1.846   8.074  20.037  0.00  0.00    +0.000 OA
ATOM      4  H   UNL     1       3.205   6.875  17.419  0.00  0.00    +0.000 HD
ENDROOT
BRANCH   1   9
ATOM      5  C   UNL     1       6.776   4.584  17.710  0.00  0.00    +0.000 C 
ATOM      6  C   UNL     1       5.259   4.796  17.837  0.00  0.00    +0.000 C 
ATOM      7  C   UNL     1       4.764   5.401  16.512  0.00  0.00    +0.000 C 
ATOM      8  C   UNL     1       5.004   5.654  19.083  0.00  0.00    +0.000 C 
ATOM      9  C   UNL     1       3.510   5.903  19.292  0.00  0.00    +0.000 C 
ATOM     10  C   UNL     1       2.756   4.606  19.095  0.00  0.00    +0.000 A 
ATOM     11  C   UNL     1       1.424   4.493  19.527  0.00  0.00    +0.000 A 
ATOM     12  C   UNL     1       0.734   3.289  19.377  0.00  0.00    +0.000 A 
ATOM     13  C   UNL     1       1.377   2.198  18.803  0.00  0.00    +0.000 A 
ATOM     14  F   UNL     1       0.715   1.041  18.671  0.00  0.00    +0.000 F 
ATOM     15  C   UNL     1       2.689   2.289  18.363  0.00  0.00    +0.000 A 
ATOM     16  C   UNL     1       3.374   3.496  18.492  0.00  0.00    +0.000 A 
ATOM     17  O   UNL     1       4.658   3.500  18.007  0.00  0.00    +0.000 OA
ENDBRANCH   1   9
BRANCH   2  18
ATOM     18  C   UNL     1       1.940   9.060  17.845  0.00  0.00    +0.000 C 
BRANCH  18  19
ATOM     19  C   UNL     1       0.984  10.063  18.368  0.00  0.00    +0.000 A 
ATOM     20  C   UNL     1       1.266  11.245  19.080  0.00  0.00    +0.000 A 
ATOM     21  N   UNL     1       0.169  11.943  19.371  0.00  0.00    +0.000 NA
ATOM     22  N   UNL     1      -0.856  11.208  18.869  0.00  0.00    +0.000 N 
ATOM     23  C   UNL     1      -0.389  10.066  18.253  0.00  0.00    +0.000 A 
BRANCH  22  24
ATOM     24  C   UNL     1      -2.206  11.628  19.016  0.00  0.00    +0.000 A 
ATOM     25  C   UNL     1      -2.568  12.416  20.118  0.00  0.00    +0.000 A 
ATOM     26  C   UNL     1      -3.896  12.814  20.288  0.00  0.00    +0.000 A 
ATOM     27  C   UNL     1      -4.866  12.425  19.366  0.00  0.00    +0.000 A 
ATOM     28  C   UNL     1      -4.510  11.649  18.265  0.00  0.00    +0.000 A 
ATOM     29  C   UNL     1      -3.184  11.253  18.083  0.00  0.00    +0.000 A 
ENDBRANCH  22  24
ENDBRANCH  18  19
ENDBRANCH   2  18
TORSDOF 4
ENDMDL
MODEL 4
REMARK VINA RESULT:      -8.0      0.757      1.310
REMARK  Name = 
REMARK  6 active torsions:
REMARK  status: ('A' for Active; 'I' for Inactive)
REMARK    1  A    between atoms: C_1  and  C_2
REMARK    2  A    between atoms: C_2  and  C_3
REMARK    3  A    between atoms: C_5  and  N_6
REMARK    4  A    between atoms: C_7  and  C_9
REMARK    5  A    between atoms: C_9  and  C_10
REMARK    6  A    between atoms: N_13  and  C_14
REMARK                            x       y       z     vdW  Elec       q    Type
REMARK                         _______ _______ _______ _____ _____    ______ ____
ROOT
ATOM      1  N   UNL     1       4.496   3.981  16.468  0.00  0.00    +0.000 N 
ATOM      2  C   UNL     1       3.795   3.546  17.572  0.00  0.00    +0.000 C 
ATOM      3  O   UNL     1       4.288   2.845  18.452  0.00  0.00    +0.000 OA
ATOM      4  H   UNL     1       4.008   4.466  15.725  0.00  0.00    +0.000 HD
ENDROOT
BRANCH   1   9
ATOM      5  C   UNL     1       7.726   6.743  17.962  0.00  0.00    +0.000 C 
ATOM      6  C   UNL     1       6.883   6.016  16.902  0.00  0.00    +0.000 C 
ATOM      7  C   UNL     1       5.558   6.785  16.758  0.00  0.00    +0.000 C 
ATOM      8  C   UNL     1       6.744   4.550  17.333  0.00  0.00    +0.000 C 
ATOM      9  C   UNL     1       5.925   3.747  16.321  0.00  0.00    +0.000 C 
ATOM     10  C   UNL     1       6.388   4.088  14.922  0.00  0.00    +0.000 A 
ATOM     11  C   UNL     1       6.019   3.273  13.839  0.00  0.00    +0.000 A 
ATOM     12  C   UNL     1       6.471   3.564  12.551  0.00  0.00    +0.000 A 
ATOM     13  C   UNL     1       7.296   4.664  12.346  0.00  0.00    +0.000 A 
ATOM     14  F   UNL     1       7.735   4.934  11.111  0.00  0.00    +0.000 F 
ATOM     15  C   UNL     1       7.667   5.487  13.400  0.00  0.00    +0.000 A 
ATOM     16  C   UNL     1       7.201   5.211  14.684  0.00  0.00    +0.000 A 
ATOM     17  O   UNL     1       7.600   6.092  15.657  0.00  0.00    +0.000 OA
ENDBRANCH   1   9
BRANCH   2  18
ATOM     18  C   UNL     1       2.358   4.022  17.632  0.00  0.00    +0.000 C 
BRANCH  18  19
ATOM     19  C   UNL     1       2.150   4.980  18.743  0.00  0.00    +0.000 A 
ATOM     20  C   UNL     1       2.254   4.742  20.127  0.00  0.00    +0.000 A 
ATOM     21  N   UNL     1       2.038   5.838  20.854  0.00  0.00    +0.000 NA
ATOM     22  N   UNL     1       1.765   6.810  19.946  0.00  0.00    +0.000 N 
ATOM     23  C   UNL     1       1.830   6.318  18.660  0.00  0.00    +0.000 A 
BRANCH  22  24
ATOM     24  C   UNL     1       1.448   8.134  20.356  0.00  0.00    +0.000 A 
ATOM     25  C   UNL     1       1.237   9.125  19.388  0.00  0.00    +0.000 A 
ATOM     26  C   UNL     1       0.949  10.435  19.776  0.00  0.00    +0.000 A 
ATOM     27  C   UNL     1       0.876  10.763  21.129  0.00  0.00    +0.000 A 
ATOM     28  C   UNL     1       1.077   9.780  22.096  0.00  0.00    +0.000 A 
ATOM     29  C   UNL     1       1.357   8.466  21.716  0.00  0.00    +0.000 A 
ENDBRANCH  22  24
ENDBRANCH  18  19
ENDBRANCH   2  18
TORSDOF 4
ENDMDL
MODEL 5
REMARK VINA RESULT:      -7.8      2.193      3.055
REMARK  Name = 
REMARK  6 active torsions:
REMARK  status: ('A' for Active; 'I' for Inactive)
REMARK    1  A    between atoms: C_1  and  C_2
REMARK    2  A    between atoms: C_2  and  C_3
REMARK    3  A    between atoms: C_5  and  N_6
REMARK    4  A    between atoms: C_7  and  C_9
REMARK    5  A    between atoms: C_9  and  C_10
REMARK    6  A    between atoms: N_13  and  C_14
REMARK                            x       y       z     vdW  Elec       q    Type
REMARK                         _______ _______ _______ _____ _____    ______ ____
ROOT
ATOM      1  N   UNL     1       4.172   6.600  17.402  0.00  0.00    +0.000 N 
ATOM      2  C   UNL     1       2.884   6.823  17.840  0.00  0.00    +0.000 C 
ATOM      3  O   UNL     1       2.139   5.929  18.232  0.00  0.00    +0.000 OA
ATOM      4  H   UNL     1       4.700   7.361  16.992  0.00  0.00    +0.000 HD
ENDROOT
BRANCH   1   9
ATOM      5  C   UNL     1       8.203   5.796  19.246  0.00  0.00    +0.000 C 
ATOM      6  C   UNL     1       7.179   5.898  18.104  0.00  0.00    +0.000 C 
ATOM      7  C   UNL     1       7.064   7.384  17.718  0.00  0.00    +0.000 C 
ATOM      8  C   UNL     1       5.876   5.244  18.579  0.00  0.00    +0.000 C 
ATOM      9  C   UNL     1       4.801   5.290  17.492  0.00  0.00    +0.000 C 
ATOM     10  C   UNL     1       5.413   4.892  16.167  0.00  0.00    +0.000 A 
ATOM     11  C   UNL     1       4.588   4.558  15.080  0.00  0.00    +0.000 A 
ATOM     12  C   UNL     1       5.147   4.158  13.867  0.00  0.00    +0.000 A 
ATOM     13  C   UNL     1       6.530   4.086  13.740  0.00  0.00    +0.000 A 
ATOM     14  F   UNL     1       7.062   3.692  12.576  0.00  0.00    +0.000 F 
ATOM     15  C   UNL     1       7.364   4.418  14.797  0.00  0.00    +0.000 A 
ATOM     16  C   UNL     1       6.809   4.838  16.005  0.00  0.00    +0.000 A 
ATOM     17  O   UNL     1       7.711   5.168  16.984  0.00  0.00    +0.000 OA
ENDBRANCH   1   9
BRANCH   2  18
ATOM     18  C   UNL     1       2.458   8.278  17.822  0.00  0.00    +0.000 C 
BRANCH  18  19
ATOM     19  C   UNL     1       1.741   8.647  19.065  0.00  0.00    +0.000 A 
ATOM     20  C   UNL     1       1.793   8.009  20.320  0.00  0.00    +0.000 A 
ATOM     21  N   UNL     1       1.050   8.625  21.239  0.00  0.00    +0.000 NA
ATOM     22  N   UNL     1       0.479   9.669  20.585  0.00  0.00    +0.000 N 
ATOM     23  C   UNL     1       0.884   9.707  19.267  0.00  0.00    +0.000 A 
BRANCH  22  24
ATOM     24  C   UNL     1      -0.420  10.550  21.244  0.00  0.00    +0.000 A 
ATOM     25  C   UNL     1      -0.668  10.387  22.614  0.00  0.00    +0.000 A 
ATOM     26  C   UNL     1      -1.568  11.230  23.269  0.00  0.00    +0.000 A 
ATOM     27  C   UNL     1      -2.227  12.234  22.562  0.00  0.00    +0.000 A 
ATOM     28  C   UNL     1      -1.978  12.406  21.201  0.00  0.00    +0.000 A 
ATOM     29  C   UNL     1      -1.074  11.573  20.540  0.00  0.00    +0.000 A 
ENDBRANCH  22  24
ENDBRANCH  18  19
ENDBRANCH   2  18
TORSDOF 4
ENDMDL
MODEL 6
REMARK VINA RESULT:      -7.7      4.260      6.999
REMARK  Name = 
REMARK  6 active torsions:
REMARK  status: ('A' for Active; 'I' for Inactive)
REMARK    1  A    between atoms: C_1  and  C_2
REMARK    2  A    between atoms: C_2  and  C_3
REMARK    3  A    between atoms: C_5  and  N_6
REMARK    4  A    between atoms: C_7  and  C_9
REMARK    5  A    between atoms: C_9  and  C_10
REMARK    6  A    between atoms: N_13  and  C_14
REMARK                            x       y       z     vdW  Elec       q    Type
REMARK                         _______ _______ _______ _____ _____    ______ ____
ROOT
ATOM      1  N   UNL     1       5.484   4.493  18.741  0.00  0.00    +0.000 N 
ATOM      2  C   UNL     1       6.571   4.576  17.899  0.00  0.00    +0.000 C 
ATOM      3  O   UNL     1       6.558   4.179  16.737  0.00  0.00    +0.000 OA
ATOM      4  H   UNL     1       5.588   4.740  19.718  0.00  0.00    +0.000 HD
ENDROOT
BRANCH   1   9
ATOM      5  C   UNL     1       2.113   7.198  17.471  0.00  0.00    +0.000 C 
ATOM      6  C   UNL     1       2.825   6.173  18.367  0.00  0.00    +0.000 C 
ATOM      7  C   UNL     1       3.814   6.946  19.259  0.00  0.00    +0.000 C 
ATOM      8  C   UNL     1       3.459   5.110  17.460  0.00  0.00    +0.000 C 
ATOM      9  C   UNL     1       4.182   4.038  18.276  0.00  0.00    +0.000 C 
ATOM     10  C   UNL     1       3.307   3.622  19.438  0.00  0.00    +0.000 A 
ATOM     11  C   UNL     1       3.598   2.449  20.155  0.00  0.00    +0.000 A 
ATOM     12  C   UNL     1       2.776   2.043  21.206  0.00  0.00    +0.000 A 
ATOM     13  C   UNL     1       1.661   2.804  21.538  0.00  0.00    +0.000 A 
ATOM     14  F   UNL     1       0.868   2.405  22.541  0.00  0.00    +0.000 F 
ATOM     15  C   UNL     1       1.358   3.970  20.848  0.00  0.00    +0.000 A 
ATOM     16  C   UNL     1       2.189   4.389  19.811  0.00  0.00    +0.000 A 
ATOM     17  O   UNL     1       1.825   5.565  19.204  0.00  0.00    +0.000 OA
ENDBRANCH   1   9
BRANCH   2  18
ATOM     18  C   UNL     1       7.795   5.225  18.514  0.00  0.00    +0.000 C 
BRANCH  18  19
ATOM     19  C   UNL     1       7.840   6.678  18.226  0.00  0.00    +0.000 A 
ATOM     20  C   UNL     1       7.103   7.397  17.265  0.00  0.00    +0.000 A 
ATOM     21  N   UNL     1       7.360   8.704  17.294  0.00  0.00    +0.000 NA
ATOM     22  N   UNL     1       8.294   8.855  18.268  0.00  0.00    +0.000 N 
ATOM     23  C   UNL     1       8.600   7.643  18.850  0.00  0.00    +0.000 A 
BRANCH  22  24
ATOM     24  C   UNL     1       8.844  10.130  18.572  0.00  0.00    +0.000 A 
ATOM     25  C   UNL     1       9.572  10.303  19.757  0.00  0.00    +0.000 A 
ATOM     26  C   UNL     1      10.097  11.557  20.081  0.00  0.00    +0.000 A 
ATOM     27  C   UNL     1       9.894  12.640  19.228  0.00  0.00    +0.000 A 
ATOM     28  C   UNL     1       9.179  12.472  18.044  0.00  0.00    +0.000 A 
ATOM     29  C   UNL     1       8.657  11.220  17.709  0.00  0.00    +0.000 A 
ENDBRANCH  22  24
ENDBRANCH  18  19
ENDBRANCH   2  18
TORSDOF 4
ENDMDL
MODEL 7
REMARK VINA RESULT:      -7.7      3.522      5.677
REMARK  Name = 
REMARK  6 active torsions:
REMARK  status: ('A' for Active; 'I' for Inactive)
REMARK    1  A    between atoms: C_1  and  C_2
REMARK    2  A    between atoms: C_2  and  C_3
REMARK    3  A    between atoms: C_5  and  N_6
REMARK    4  A    between atoms: C_7  and  C_9
REMARK    5  A    between atoms: C_9  and  C_10
REMARK    6  A    between atoms: N_13  and  C_14
REMARK                            x       y       z     vdW  Elec       q    Type
REMARK                         _______ _______ _______ _____ _____    ______ ____
ROOT
ATOM      1  N   UNL     1       3.132   6.947  18.362  0.00  0.00    +0.000 N 
ATOM      2  C   UNL     1       2.281   7.910  18.858  0.00  0.00    +0.000 C 
ATOM      3  O   UNL     1       1.874   7.921  20.017  0.00  0.00    +0.000 OA
ATOM      4  H   UNL     1       3.347   6.931  17.372  0.00  0.00    +0.000 HD
ENDROOT
BRANCH   1   9
ATOM      5  C   UNL     1       6.861   4.614  17.386  0.00  0.00    +0.000 C 
ATOM      6  C   UNL     1       5.358   4.813  17.636  0.00  0.00    +0.000 C 
ATOM      7  C   UNL     1       4.748   5.394  16.348  0.00  0.00    +0.000 C 
ATOM      8  C   UNL     1       5.198   5.689  18.886  0.00  0.00    +0.000 C 
ATOM      9  C   UNL     1       3.724   5.927  19.216  0.00  0.00    +0.000 C 
ATOM     10  C   UNL     1       2.970   4.621  19.100  0.00  0.00    +0.000 A 
ATOM     11  C   UNL     1       1.679   4.501  19.643  0.00  0.00    +0.000 A 
ATOM     12  C   UNL     1       0.992   3.289  19.570  0.00  0.00    +0.000 A 
ATOM     13  C   UNL     1       1.596   2.195  18.960  0.00  0.00    +0.000 A 
ATOM     14  F   UNL     1       0.937   1.031  18.901  0.00  0.00    +0.000 F 
ATOM     15  C   UNL     1       2.867   2.292  18.411  0.00  0.00    +0.000 A 
ATOM     16  C   UNL     1       3.547   3.507  18.465  0.00  0.00    +0.000 A 
ATOM     17  O   UNL     1       4.786   3.515  17.875  0.00  0.00    +0.000 OA
ENDBRANCH   1   9
BRANCH   2  18
ATOM     18  C   UNL     1       1.896   8.984  17.859  0.00  0.00    +0.000 C 
BRANCH  18  19
ATOM     19  C   UNL     1       1.207  10.117  18.521  0.00  0.00    +0.000 A 
ATOM     20  C   UNL     1       1.687  11.425  18.728  0.00  0.00    +0.000 A 
ATOM     21  N   UNL     1       0.793  12.210  19.327  0.00  0.00    +0.000 NA
ATOM     22  N   UNL     1      -0.285  11.412  19.542  0.00  0.00    +0.000 N 
ATOM     23  C   UNL     1      -0.061  10.140  19.060  0.00  0.00    +0.000 A 
BRANCH  22  24
ATOM     24  C   UNL     1      -1.446  11.902  20.199  0.00  0.00    +0.000 A 
ATOM     25  C   UNL     1      -1.446  12.034  21.595  0.00  0.00    +0.000 A 
ATOM     26  C   UNL     1      -2.588  12.490  22.256  0.00  0.00    +0.000 A 
ATOM     27  C   UNL     1      -3.734  12.811  21.531  0.00  0.00    +0.000 A 
ATOM     28  C   UNL     1      -3.737  12.689  20.143  0.00  0.00    +0.000 A 
ATOM     29  C   UNL     1      -2.597  12.241  19.473  0.00  0.00    +0.000 A 
ENDBRANCH  22  24
ENDBRANCH  18  19
ENDBRANCH   2  18
TORSDOF 4
ENDMDL
MODEL 8
REMARK VINA RESULT:      -7.7      3.224      5.670
REMARK  Name = 
REMARK  6 active torsions:
REMARK  status: ('A' for Active; 'I' for Inactive)
REMARK    1  A    between atoms: C_1  and  C_2
REMARK    2  A    between atoms: C_2  and  C_3
REMARK    3  A    between atoms: C_5  and  N_6
REMARK    4  A    between atoms: C_7  and  C_9
REMARK    5  A    between atoms: C_9  and  C_10
REMARK    6  A    between atoms: N_13  and  C_14
REMARK                            x       y       z     vdW  Elec       q    Type
REMARK                         _______ _______ _______ _____ _____    ______ ____
ROOT
ATOM      1  N   UNL     1       2.233   7.111  18.861  0.00  0.00    +0.000 N 
ATOM      2  C   UNL     1       1.897   8.410  18.548  0.00  0.00    +0.000 C 
ATOM      3  O   UNL     1       1.970   8.872  17.412  0.00  0.00    +0.000 OA
ATOM      4  H   UNL     1       2.253   6.819  19.831  0.00  0.00    +0.000 HD
ENDROOT
BRANCH   1   9
ATOM      5  C   UNL     1       1.296   2.709  19.063  0.00  0.00    +0.000 C 
ATOM      6  C   UNL     1       2.203   3.950  19.052  0.00  0.00    +0.000 C 
ATOM      7  C   UNL     1       2.168   4.561  20.464  0.00  0.00    +0.000 C 
ATOM      8  C   UNL     1       1.722   4.876  17.928  0.00  0.00    +0.000 C 
ATOM      9  C   UNL     1       2.583   6.137  17.838  0.00  0.00    +0.000 C 
ATOM     10  C   UNL     1       4.043   5.752  17.934  0.00  0.00    +0.000 A 
ATOM     11  C   UNL     1       5.041   6.674  17.574  0.00  0.00    +0.000 A 
ATOM     12  C   UNL     1       6.387   6.313  17.629  0.00  0.00    +0.000 A 
ATOM     13  C   UNL     1       6.737   5.031  18.038  0.00  0.00    +0.000 A 
ATOM     14  F   UNL     1       8.030   4.685  18.080  0.00  0.00    +0.000 F 
ATOM     15  C   UNL     1       5.769   4.107  18.405  0.00  0.00    +0.000 A 
ATOM     16  C   UNL     1       4.424   4.471  18.371  0.00  0.00    +0.000 A 
ATOM     17  O   UNL     1       3.542   3.501  18.775  0.00  0.00    +0.000 OA
ENDBRANCH   1   9
BRANCH   2  18
ATOM     18  C   UNL     1       1.401   9.232  19.721  0.00  0.00    +0.000 C 
BRANCH  18  19
ATOM     19  C   UNL     1       0.869  10.542  19.278  0.00  0.00    +0.000 A 
ATOM     20  C   UNL     1      -0.377  10.817  18.681  0.00  0.00    +0.000 A 
ATOM     21  N   UNL     1      -0.554  12.115  18.439  0.00  0.00    +0.000 NA
ATOM     22  N   UNL     1       0.593  12.708  18.858  0.00  0.00    +0.000 N 
ATOM     23  C   UNL     1       1.470  11.777  19.374  0.00  0.00    +0.000 A 
BRANCH  22  24
ATOM     24  C   UNL     1       0.788  14.110  18.730  0.00  0.00    +0.000 A 
ATOM     25  C   UNL     1       2.082  14.613  18.540  0.00  0.00    +0.000 A 
ATOM     26  C   UNL     1       2.292  15.990  18.437  0.00  0.00    +0.000 A 
ATOM     27  C   UNL     1       1.214  16.869  18.529  0.00  0.00    +0.000 A 
ATOM     28  C   UNL     1      -0.076  16.374  18.709  0.00  0.00    +0.000 A 
ATOM     29  C   UNL     1      -0.295  14.999  18.805  0.00  0.00    +0.000 A 
ENDBRANCH  22  24
ENDBRANCH  18  19
ENDBRANCH   2  18
TORSDOF 4
ENDMDL
MODEL 9
REMARK VINA RESULT:      -7.7      3.473      5.708
REMARK  Name = 
REMARK  6 active torsions:
REMARK  status: ('A' for Active; 'I' for Inactive)
REMARK    1  A    between atoms: C_1  and  C_2
REMARK    2  A    between atoms: C_2  and  C_3
REMARK    3  A    between atoms: C_5  and  N_6
REMARK    4  A    between atoms: C_7  and  C_9
REMARK    5  A    between atoms: C_9  and  C_10
REMARK    6  A    between atoms: N_13  and  C_14
REMARK                            x       y       z     vdW  Elec       q    Type
REMARK                         _______ _______ _______ _____ _____    ______ ____
ROOT
ATOM      1  N   UNL     1       3.129   6.934  18.438  0.00  0.00    +0.000 N 
ATOM      2  C   UNL     1       2.301   7.895  18.976  0.00  0.00    +0.000 C 
ATOM      3  O   UNL     1       1.887   7.861  20.131  0.00  0.00    +0.000 OA
ATOM      4  H   UNL     1       3.351   6.960  17.451  0.00  0.00    +0.000 HD
ENDROOT
BRANCH   1   9
ATOM      5  C   UNL     1       6.814   4.566  17.385  0.00  0.00    +0.000 C 
ATOM      6  C   UNL     1       5.313   4.788  17.629  0.00  0.00    +0.000 C 
ATOM      7  C   UNL     1       4.732   5.448  16.365  0.00  0.00    +0.000 C 
ATOM      8  C   UNL     1       5.159   5.602  18.920  0.00  0.00    +0.000 C 
ATOM      9  C   UNL     1       3.687   5.858  19.245  0.00  0.00    +0.000 C 
ATOM     10  C   UNL     1       2.904   4.578  19.056  0.00  0.00    +0.000 A 
ATOM     11  C   UNL     1       1.605   4.462  19.578  0.00  0.00    +0.000 A 
ATOM     12  C   UNL     1       0.891   3.272  19.435  0.00  0.00    +0.000 A 
ATOM     13  C   UNL     1       1.477   2.196  18.777  0.00  0.00    +0.000 A 
ATOM     14  F   UNL     1       0.792   1.052  18.651  0.00  0.00    +0.000 F 
ATOM     15  C   UNL     1       2.755   2.290  18.247  0.00  0.00    +0.000 A 
ATOM     16  C   UNL     1       3.463   3.485  18.370  0.00  0.00    +0.000 A 
ATOM     17  O   UNL     1       4.709   3.493  17.794  0.00  0.00    +0.000 OA
ENDBRANCH   1   9
BRANCH   2  18
ATOM     18  C   UNL     1       1.953   9.026  18.028  0.00  0.00    +0.000 C 
BRANCH  18  19
ATOM     19  C   UNL     1       1.257  10.128  18.733  0.00  0.00    +0.000 A 
ATOM     20  C   UNL     1       1.558  11.503  18.709  0.00  0.00    +0.000 A 
ATOM     21  N   UNL     1       0.705  12.229  19.430  0.00  0.00    +0.000 NA
ATOM     22  N   UNL     1      -0.160  11.326  19.960  0.00  0.00    +0.000 N 
ATOM     23  C   UNL     1       0.150  10.046  19.550  0.00  0.00    +0.000 A 
BRANCH  22  24
ATOM     24  C   UNL     1      -1.210  11.731  20.827  0.00  0.00    +0.000 A 
ATOM     25  C   UNL     1      -2.311  12.424  20.302  0.00  0.00    +0.000 A 
ATOM     26  C   UNL     1      -3.339  12.850  21.146  0.00  0.00    +0.000 A 
ATOM     27  C   UNL     1      -3.271  12.592  22.515  0.00  0.00    +0.000 A 
ATOM     28  C   UNL     1      -2.184  11.897  23.040  0.00  0.00    +0.000 A 
ATOM     29  C   UNL     1      -1.156  11.460  22.202  0.00  0.00    +0.000 A 
ENDBRANCH  22  24
ENDBRANCH  18  19
ENDBRANCH   2  18
TORSDOF 4
ENDMDL
