MODEL 1
REMARK VINA RESULT:      -8.7      0.000      0.000
REMARK  Name = 
REMARK  3 active torsions:
REMARK  status: ('A' for Active; 'I' for Inactive)
REMARK    1  A    between atoms: C_2  and  C_5
REMARK    2  A    between atoms: C_9  and  C_10
REMARK    3  A    between atoms: C_13  and  C_14
REMARK                            x       y       z     vdW  Elec       q    Type
REMARK                         _______ _______ _______ _____ _____    ______ ____
ROOT
ATOM      1  C   UNL     1       2.585   7.561  18.415  0.00  0.00    +0.000 A 
ATOM      2  N   UNL     1       2.697   6.281  18.793  0.00  0.00    +0.000 NA
ATOM      3  O   UNL     1       3.825   5.839  18.093  0.00  0.00    +0.000 OA
ATOM      4  C   UNL     1       4.278   6.900  17.370  0.00  0.00    +0.000 A 
ATOM      5  N   UNL     1       3.543   7.976  17.524  0.00  0.00    +0.000 NA
ENDROOT
BRANCH   4   6
ATOM      6  C   UNL     1       5.552   6.727  16.627  0.00  0.00    +0.000 C 
ATOM      7  C   UNL     1       5.273   6.156  15.205  0.00  0.00    +0.000 C 
ATOM      8  C   UNL     1       5.612   4.674  14.884  0.00  0.00    +0.000 C 
ATOM      9  C   UNL     1       6.564   3.878  15.796  0.00  0.00    +0.000 C 
ATOM     10  C   UNL     1       6.910   4.627  17.007  0.00  0.00    +0.000 A 
ATOM     11  N   UNL     1       7.714   4.221  18.029  0.00  0.00    +0.000 N 
ATOM     12  N   UNL     1       7.819   5.183  18.962  0.00  0.00    +0.000 NA
ATOM     13  N   UNL     1       7.069   6.210  18.573  0.00  0.00    +0.000 NA
ATOM     14  C   UNL     1       6.493   5.876  17.381  0.00  0.00    +0.000 A 
ATOM     15  H   UNL     1       8.208   3.346  18.169  0.00  0.00    +0.000 HD
ENDBRANCH   4   6
BRANCH   1  20
ATOM     16  C   UNL     1       0.435   9.502  20.848  0.00  0.00    +0.000 A 
ATOM     17  C   UNL     1      -0.081  10.486  19.990  0.00  0.00    +0.000 A 
ATOM     18  C   UNL     1       0.229  10.479  18.634  0.00  0.00    +0.000 A 
ATOM     19  C   UNL     1       1.076   9.492  18.122  0.00  0.00    +0.000 A 
ATOM     20  C   UNL     1       1.611   8.504  18.957  0.00  0.00    +0.000 A 
ATOM     21  C   UNL     1       1.265   8.499  20.316  0.00  0.00    +0.000 A 
BRANCH  16  23
ATOM     22  F   UNL     1      -0.857   8.669  22.694  0.00  0.00    +0.000 F 
ATOM     23  C   UNL     1       0.135   9.527  22.325  0.00  0.00    +0.000 C 
ATOM     24  F   UNL     1      -0.263  10.758  22.753  0.00  0.00    +0.000 F 
ATOM     25  F   UNL     1       1.215   9.197  23.085  0.00  0.00    +0.000 F 
ENDBRANCH  16  23
ENDBRANCH   1  20
TORSDOF 3
ENDMDL
MODEL 2
REMARK VINA RESULT:      -8.6      5.796      8.496
REMARK  Name = 
REMARK  3 active torsions:
REMARK  status: ('A' for Active; 'I' for Inactive)
REMARK    1  A    between atoms: C_2  and  C_5
REMARK    2  A    between atoms: C_9  and  C_10
REMARK    3  A    between atoms: C_13  and  C_14
REMARK                            x       y       z     vdW  Elec       q    Type
REMARK                         _______ _______ _______ _____ _____    ______ ____
ROOT
ATOM      1  C   UNL     1       6.476   4.353  16.188  0.00  0.00    +0.000 A 
ATOM      2  N   UNL     1       7.463   4.600  17.061  0.00  0.00    +0.000 NA
ATOM      3  O   UNL     1       6.846   4.406  18.302  0.00  0.00    +0.000 OA
ATOM      4  C   UNL     1       5.555   4.057  18.048  0.00  0.00    +0.000 A 
ATOM      5  N   UNL     1       5.276   4.024  16.766  0.00  0.00    +0.000 NA
ENDROOT
BRANCH   4   6
ATOM      6  C   UNL     1       4.710   3.672  19.207  0.00  0.00    +0.000 C 
ATOM      7  C   UNL     1       4.235   2.196  19.059  0.00  0.00    +0.000 C 
ATOM      8  C   UNL     1       2.760   1.890  18.681  0.00  0.00    +0.000 C 
ATOM      9  C   UNL     1       1.676   2.974  18.833  0.00  0.00    +0.000 C 
ATOM     10  C   UNL     1       2.253   4.276  19.179  0.00  0.00    +0.000 A 
ATOM     11  N   UNL     1       1.589   5.449  19.374  0.00  0.00    +0.000 N 
ATOM     12  N   UNL     1       2.447   6.431  19.700  0.00  0.00    +0.000 NA
ATOM     13  N   UNL     1       3.674   5.918  19.696  0.00  0.00    +0.000 NA
ATOM     14  C   UNL     1       3.571   4.598  19.362  0.00  0.00    +0.000 A 
ATOM     15  H   UNL     1       0.601   5.663  19.309  0.00  0.00    +0.000 HD
ENDBRANCH   4   6
BRANCH   1  20
ATOM     16  C   UNL     1       5.801   3.780  12.510  0.00  0.00    +0.000 A 
ATOM     17  C   UNL     1       6.880   4.485  11.949  0.00  0.00    +0.000 A 
ATOM     18  C   UNL     1       7.833   5.088  12.763  0.00  0.00    +0.000 A 
ATOM     19  C   UNL     1       7.709   5.007  14.153  0.00  0.00    +0.000 A 
ATOM     20  C   UNL     1       6.641   4.318  14.738  0.00  0.00    +0.000 A 
ATOM     21  C   UNL     1       5.703   3.684  13.910  0.00  0.00    +0.000 A 
BRANCH  16  23
ATOM     22  F   UNL     1       4.429   3.911  10.543  0.00  0.00    +0.000 F 
ATOM     23  C   UNL     1       4.743   3.159  11.635  0.00  0.00    +0.000 C 
ATOM     24  F   UNL     1       3.569   2.963  12.299  0.00  0.00    +0.000 F 
ATOM     25  F   UNL     1       5.110   1.939  11.155  0.00  0.00    +0.000 F 
ENDBRANCH  16  23
ENDBRANCH   1  20
TORSDOF 3
ENDMDL
MODEL 3
REMARK VINA RESULT:      -8.5      1.679      2.264
REMARK  Name = 
REMARK  3 active torsions:
REMARK  status: ('A' for Active; 'I' for Inactive)
REMARK    1  A    between atoms: C_2  and  C_5
REMARK    2  A    between atoms: C_9  and  C_10
REMARK    3  A    between atoms: C_13  and  C_14
REMARK                            x       y       z     vdW  Elec       q    Type
REMARK                         _______ _______ _______ _____ _____    ______ ____
ROOT
ATOM      1  C   UNL     1       2.633   7.341  18.666  0.00  0.00    +0.000 A 
ATOM      2  N   UNL     1       2.678   6.008  18.797  0.00  0.00    +0.000 NA
ATOM      3  O   UNL     1       3.769   5.647  17.999  0.00  0.00    +0.000 OA
ATOM      4  C   UNL     1       4.271   6.799  17.475  0.00  0.00    +0.000 A 
ATOM      5  N   UNL     1       3.600   7.864  17.845  0.00  0.00    +0.000 NA
ENDROOT
BRANCH   4   6
ATOM      6  C   UNL     1       5.523   6.701  16.682  0.00  0.00    +0.000 C 
ATOM      7  C   UNL     1       5.211   6.187  15.245  0.00  0.00    +0.000 C 
ATOM      8  C   UNL     1       5.583   4.733  14.845  0.00  0.00    +0.000 C 
ATOM      9  C   UNL     1       6.592   3.927  15.685  0.00  0.00    +0.000 C 
ATOM     10  C   UNL     1       6.957   4.631  16.918  0.00  0.00    +0.000 A 
ATOM     11  N   UNL     1       7.809   4.204  17.891  0.00  0.00    +0.000 N 
ATOM     12  N   UNL     1       7.917   5.126  18.864  0.00  0.00    +0.000 NA
ATOM     13  N   UNL     1       7.123   6.145  18.549  0.00  0.00    +0.000 NA
ATOM     14  C   UNL     1       6.516   5.847  17.364  0.00  0.00    +0.000 A 
ATOM     15  H   UNL     1       8.334   3.341  17.974  0.00  0.00    +0.000 HD
ENDBRANCH   4   6
BRANCH   1  20
ATOM     16  C   UNL     1       0.070  10.011  19.446  0.00  0.00    +0.000 A 
ATOM     17  C   UNL     1      -0.193   9.714  20.794  0.00  0.00    +0.000 A 
ATOM     18  C   UNL     1       0.495   8.695  21.443  0.00  0.00    +0.000 A 
ATOM     19  C   UNL     1       1.447   7.946  20.744  0.00  0.00    +0.000 A 
ATOM     20  C   UNL     1       1.722   8.216  19.398  0.00  0.00    +0.000 A 
ATOM     21  C   UNL     1       1.048   9.268  18.761  0.00  0.00    +0.000 A 
BRANCH  16  23
ATOM     22  F   UNL     1      -1.290  10.658  17.575  0.00  0.00    +0.000 F 
ATOM     23  C   UNL     1      -0.701  11.088  18.725  0.00  0.00    +0.000 C 
ATOM     24  F   UNL     1       0.089  12.139  18.366  0.00  0.00    +0.000 F 
ATOM     25  F   UNL     1      -1.702  11.613  19.484  0.00  0.00    +0.000 F 
ENDBRANCH  16  23
ENDBRANCH   1  20
TORSDOF 3
ENDMDL
MODEL 4
REMARK VINA RESULT:      -8.4      5.944      7.453
REMARK  Name = 
REMARK  3 active torsions:
REMARK  status: ('A' for Active; 'I' for Inactive)
REMARK    1  A    between atoms: C_2  and  C_5
REMARK    2  A    between atoms: C_9  and  C_10
REMARK    3  A    between atoms: C_13  and  C_14
REMARK                            x       y       z     vdW  Elec       q    Type
REMARK                         _______ _______ _______ _____ _____    ______ ____
ROOT
ATOM      1  C   UNL     1       8.257   8.801  18.148  0.00  0.00    +0.000 A 
ATOM      2  N   UNL     1       7.292   8.914  17.225  0.00  0.00    +0.000 NA
ATOM      3  O   UNL     1       6.840   7.598  17.074  0.00  0.00    +0.000 OA
ATOM      4  C   UNL     1       7.574   6.831  17.925  0.00  0.00    +0.000 A 
ATOM      5  N   UNL     1       8.466   7.521  18.597  0.00  0.00    +0.000 NA
ENDROOT
BRANCH   4   6
ATOM      6  C   UNL     1       7.202   5.399  18.049  0.00  0.00    +0.000 C 
ATOM      7  C   UNL     1       7.527   4.641  16.728  0.00  0.00    +0.000 C 
ATOM      8  C   UNL     1       6.376   4.212  15.776  0.00  0.00    +0.000 C 
ATOM      9  C   UNL     1       4.923   4.164  16.284  0.00  0.00    +0.000 C 
ATOM     10  C   UNL     1       4.799   4.724  17.633  0.00  0.00    +0.000 A 
ATOM     11  N   UNL     1       3.664   4.849  18.375  0.00  0.00    +0.000 N 
ATOM     12  N   UNL     1       3.939   5.388  19.575  0.00  0.00    +0.000 NA
ATOM     13  N   UNL     1       5.243   5.641  19.619  0.00  0.00    +0.000 NA
ATOM     14  C   UNL     1       5.781   5.252  18.426  0.00  0.00    +0.000 A 
ATOM     15  H   UNL     1       2.705   4.607  18.154  0.00  0.00    +0.000 HD
ENDBRANCH   4   6
BRANCH   1  20
ATOM     16  C   UNL     1      10.097  12.084  18.528  0.00  0.00    +0.000 A 
ATOM     17  C   UNL     1      10.142  12.180  19.929  0.00  0.00    +0.000 A 
ATOM     18  C   UNL     1       9.627  11.163  20.727  0.00  0.00    +0.000 A 
ATOM     19  C   UNL     1       9.043  10.042  20.130  0.00  0.00    +0.000 A 
ATOM     20  C   UNL     1       8.977   9.925  18.737  0.00  0.00    +0.000 A 
ATOM     21  C   UNL     1       9.531  10.938  17.941  0.00  0.00    +0.000 A 
BRANCH  16  23
ATOM     22  F   UNL     1      11.133  12.769  16.473  0.00  0.00    +0.000 F 
ATOM     23  C   UNL     1      10.618  13.199  17.658  0.00  0.00    +0.000 C 
ATOM     24  F   UNL     1      11.616  13.904  18.261  0.00  0.00    +0.000 F 
ATOM     25  F   UNL     1       9.656  14.108  17.340  0.00  0.00    +0.000 F 
ENDBRANCH  16  23
ENDBRANCH   1  20
TORSDOF 3
ENDMDL
MODEL 5
REMARK VINA RESULT:      -8.3      1.774      2.483
REMARK  Name = 
REMARK  3 active torsions:
REMARK  status: ('A' for Active; 'I' for Inactive)
REMARK    1  A    between atoms: C_2  and  C_5
REMARK    2  A    between atoms: C_9  and  C_10
REMARK    3  A    between atoms: C_13  and  C_14
REMARK                            x       y       z     vdW  Elec       q    Type
REMARK                         _______ _______ _______ _____ _____    ______ ____
ROOT
ATOM      1  C   UNL     1       2.669   6.461  19.573  0.00  0.00    +0.000 A 
ATOM      2  N   UNL     1       2.473   5.307  20.225  0.00  0.00    +0.000 NA
ATOM      3  O   UNL     1       3.569   4.530  19.834  0.00  0.00    +0.000 OA
ATOM      4  C   UNL     1       4.314   5.298  18.992  0.00  0.00    +0.000 A 
ATOM      5  N   UNL     1       3.796   6.487  18.790  0.00  0.00    +0.000 NA
ENDROOT
BRANCH   4   6
ATOM      6  C   UNL     1       5.611   4.743  18.528  0.00  0.00    +0.000 C 
ATOM      7  C   UNL     1       6.791   5.451  19.259  0.00  0.00    +0.000 C 
ATOM      8  C   UNL     1       7.671   6.479  18.495  0.00  0.00    +0.000 C 
ATOM      9  C   UNL     1       7.659   6.523  16.956  0.00  0.00    +0.000 C 
ATOM     10  C   UNL     1       6.628   5.644  16.394  0.00  0.00    +0.000 A 
ATOM     11  N   UNL     1       6.334   5.451  15.079  0.00  0.00    +0.000 N 
ATOM     12  N   UNL     1       5.342   4.554  14.941  0.00  0.00    +0.000 NA
ATOM     13  N   UNL     1       4.965   4.175  16.158  0.00  0.00    +0.000 NA
ATOM     14  C   UNL     1       5.737   4.848  17.061  0.00  0.00    +0.000 A 
ATOM     15  H   UNL     1       6.736   5.868  14.247  0.00  0.00    +0.000 HD
ENDBRANCH   4   6
BRANCH   1  20
ATOM     16  C   UNL     1       0.553   9.181  21.132  0.00  0.00    +0.000 A 
ATOM     17  C   UNL     1       0.469  10.077  20.053  0.00  0.00    +0.000 A 
ATOM     18  C   UNL     1       1.049   9.767  18.827  0.00  0.00    +0.000 A 
ATOM     19  C   UNL     1       1.738   8.561  18.672  0.00  0.00    +0.000 A 
ATOM     20  C   UNL     1       1.844   7.654  19.733  0.00  0.00    +0.000 A 
ATOM     21  C   UNL     1       1.226   7.959  20.954  0.00  0.00    +0.000 A 
BRANCH  16  23
ATOM     22  F   UNL     1      -0.566  10.784  22.529  0.00  0.00    +0.000 F 
ATOM     23  C   UNL     1      -0.040   9.528  22.474  0.00  0.00    +0.000 C 
ATOM     24  F   UNL     1       0.880   9.469  23.479  0.00  0.00    +0.000 F 
ATOM     25  F   UNL     1      -1.046   8.686  22.836  0.00  0.00    +0.000 F 
ENDBRANCH  16  23
ENDBRANCH   1  20
TORSDOF 3
ENDMDL
MODEL 6
REMARK VINA RESULT:      -8.2      2.212      2.807
REMARK  Name = 
REMARK  3 active torsions:
REMARK  status: ('A' for Active; 'I' for Inactive)
REMARK    1  A    between atoms: C_2  and  C_5
REMARK    2  A    between atoms: C_9  and  C_10
REMARK    3  A    between atoms: C_13  and  C_14
REMARK                            x       y       z     vdW  Elec       q    Type
REMARK                         _______ _______ _______ _____ _____    ______ ____
ROOT
ATOM      1  C   UNL     1       2.129   8.356  18.636  0.00  0.00    +0.000 A 
ATOM      2  N   UNL     1       2.918   8.658  17.596  0.00  0.00    +0.000 NA
ATOM      3  O   UNL     1       3.337   7.404  17.138  0.00  0.00    +0.000 OA
ATOM      4  C   UNL     1       2.753   6.477  17.946  0.00  0.00    +0.000 A 
ATOM      5  N   UNL     1       2.013   7.012  18.888  0.00  0.00    +0.000 NA
ENDROOT
BRANCH   4   6
ATOM      6  C   UNL     1       2.940   5.047  17.593  0.00  0.00    +0.000 C 
ATOM      7  C   UNL     1       1.629   4.250  17.863  0.00  0.00    +0.000 C 
ATOM      8  C   UNL     1       1.543   3.290  19.082  0.00  0.00    +0.000 C 
ATOM      9  C   UNL     1       2.825   2.811  19.789  0.00  0.00    +0.000 C 
ATOM     10  C   UNL     1       4.015   3.503  19.285  0.00  0.00    +0.000 A 
ATOM     11  N   UNL     1       5.303   3.336  19.693  0.00  0.00    +0.000 N 
ATOM     12  N   UNL     1       6.131   4.127  18.988  0.00  0.00    +0.000 NA
ATOM     13  N   UNL     1       5.393   4.830  18.135  0.00  0.00    +0.000 NA
ATOM     14  C   UNL     1       4.089   4.468  18.317  0.00  0.00    +0.000 A 
ATOM     15  H   UNL     1       5.692   2.736  20.412  0.00  0.00    +0.000 HD
ENDBRANCH   4   6
BRANCH   1  20
ATOM     16  C   UNL     1       0.181   9.997  21.432  0.00  0.00    +0.000 A 
ATOM     17  C   UNL     1       0.074  11.303  20.924  0.00  0.00    +0.000 A 
ATOM     18  C   UNL     1       0.584  11.620  19.670  0.00  0.00    +0.000 A 
ATOM     19  C   UNL     1       1.225  10.635  18.913  0.00  0.00    +0.000 A 
ATOM     20  C   UNL     1       1.352   9.329  19.398  0.00  0.00    +0.000 A 
ATOM     21  C   UNL     1       0.804   9.009  20.649  0.00  0.00    +0.000 A 
BRANCH  16  23
ATOM     22  F   UNL     1       0.651   9.485  23.731  0.00  0.00    +0.000 F 
ATOM     23  C   UNL     1      -0.335   9.656  22.807  0.00  0.00    +0.000 C 
ATOM     24  F   UNL     1      -1.056   8.500  22.818  0.00  0.00    +0.000 F 
ATOM     25  F   UNL     1      -1.158  10.616  23.311  0.00  0.00    +0.000 F 
ENDBRANCH  16  23
ENDBRANCH   1  20
TORSDOF 3
ENDMDL
MODEL 7
REMARK VINA RESULT:      -8.2      2.527      3.372
REMARK  Name = 
REMARK  3 active torsions:
REMARK  status: ('A' for Active; 'I' for Inactive)
REMARK    1  A    between atoms: C_2  and  C_5
REMARK    2  A    between atoms: C_9  and  C_10
REMARK    3  A    between atoms: C_13  and  C_14
REMARK                            x       y       z     vdW  Elec       q    Type
REMARK                         _______ _______ _______ _____ _____    ______ ____
ROOT
ATOM      1  C   UNL     1       1.940   8.202  19.280  0.00  0.00    +0.000 A 
ATOM      2  N   UNL     1       2.504   8.721  18.180  0.00  0.00    +0.000 NA
ATOM      3  O   UNL     1       2.972   7.592  17.498  0.00  0.00    +0.000 OA
ATOM      4  C   UNL     1       2.637   6.511  18.254  0.00  0.00    +0.000 A 
ATOM      5  N   UNL     1       2.013   6.834  19.363  0.00  0.00    +0.000 NA
ENDROOT
BRANCH   4   6
ATOM      6  C   UNL     1       2.913   5.167  17.686  0.00  0.00    +0.000 C 
ATOM      7  C   UNL     1       1.639   4.275  17.769  0.00  0.00    +0.000 C 
ATOM      8  C   UNL     1       1.563   3.128  18.814  0.00  0.00    +0.000 C 
ATOM      9  C   UNL     1       2.843   2.604  19.491  0.00  0.00    +0.000 C 
ATOM     10  C   UNL     1       4.010   3.424  19.156  0.00  0.00    +0.000 A 
ATOM     11  N   UNL     1       5.291   3.256  19.588  0.00  0.00    +0.000 N 
ATOM     12  N   UNL     1       6.099   4.189  19.054  0.00  0.00    +0.000 NA
ATOM     13  N   UNL     1       5.354   4.984  18.293  0.00  0.00    +0.000 NA
ATOM     14  C   UNL     1       4.066   4.535  18.359  0.00  0.00    +0.000 A 
ATOM     15  H   UNL     1       5.687   2.567  20.218  0.00  0.00    +0.000 HD
ENDBRANCH   4   6
BRANCH   1  20
ATOM     16  C   UNL     1      -0.423  10.693  20.866  0.00  0.00    +0.000 A 
ATOM     17  C   UNL     1      -0.371  10.265  22.203  0.00  0.00    +0.000 A 
ATOM     18  C   UNL     1       0.462   9.217  22.580  0.00  0.00    +0.000 A 
ATOM     19  C   UNL     1       1.243   8.572  21.617  0.00  0.00    +0.000 A 
ATOM     20  C   UNL     1       1.204   8.972  20.277  0.00  0.00    +0.000 A 
ATOM     21  C   UNL     1       0.388  10.053  19.912  0.00  0.00    +0.000 A 
BRANCH  16  23
ATOM     22  F   UNL     1      -2.152  12.256  21.450  0.00  0.00    +0.000 F 
ATOM     23  C   UNL     1      -1.353  11.802  20.443  0.00  0.00    +0.000 C 
ATOM     24  F   UNL     1      -2.198  11.418  19.445  0.00  0.00    +0.000 F 
ATOM     25  F   UNL     1      -0.688  12.893  19.973  0.00  0.00    +0.000 F 
ENDBRANCH  16  23
ENDBRANCH   1  20
TORSDOF 3
ENDMDL
MODEL 8
REMARK VINA RESULT:      -8.2      2.693      3.182
REMARK  Name = 
REMARK  3 active torsions:
REMARK  status: ('A' for Active; 'I' for Inactive)
REMARK    1  A    between atoms: C_2  and  C_5
REMARK    2  A    between atoms: C_9  and  C_10
REMARK    3  A    between atoms: C_13  and  C_14
REMARK                            x       y       z     vdW  Elec       q    Type
REMARK                         _______ _______ _______ _____ _____    ______ ____
ROOT
ATOM      1  C   UNL     1       2.430   7.662  18.606  0.00  0.00    +0.000 A 
ATOM      2  N   UNL     1       3.445   7.815  17.744  0.00  0.00    +0.000 NA
ATOM      3  O   UNL     1       3.757   6.500  17.383  0.00  0.00    +0.000 OA
ATOM      4  C   UNL     1       2.895   5.692  18.059  0.00  0.00    +0.000 A 
ATOM      5  N   UNL     1       2.070   6.357  18.833  0.00  0.00    +0.000 NA
ENDROOT
BRANCH   4   6
ATOM      6  C   UNL     1       2.936   4.240  17.753  0.00  0.00    +0.000 C 
ATOM      7  C   UNL     1       1.493   3.691  17.547  0.00  0.00    +0.000 C 
ATOM      8  C   UNL     1       0.836   2.805  18.641  0.00  0.00    +0.000 C 
ATOM      9  C   UNL     1       1.702   2.137  19.726  0.00  0.00    +0.000 C 
ATOM     10  C   UNL     1       3.093   2.594  19.669  0.00  0.00    +0.000 A 
ATOM     11  N   UNL     1       4.120   2.220  20.482  0.00  0.00    +0.000 N 
ATOM     12  N   UNL     1       5.261   2.830  20.116  0.00  0.00    +0.000 NA
ATOM     13  N   UNL     1       4.987   3.620  19.083  0.00  0.00    +0.000 NA
ATOM     14  C   UNL     1       3.656   3.497  18.807  0.00  0.00    +0.000 A 
ATOM     15  H   UNL     1       4.134   1.588  21.274  0.00  0.00    +0.000 HD
ENDBRANCH   4   6
BRANCH   1  20
ATOM     16  C   UNL     1       0.478   9.757  21.077  0.00  0.00    +0.000 A 
ATOM     17  C   UNL     1       0.423  10.975  20.378  0.00  0.00    +0.000 A 
ATOM     18  C   UNL     1       0.969  11.087  19.104  0.00  0.00    +0.000 A 
ATOM     19  C   UNL     1       1.593   9.981  18.518  0.00  0.00    +0.000 A 
ATOM     20  C   UNL     1       1.669   8.759  19.195  0.00  0.00    +0.000 A 
ATOM     21  C   UNL     1       1.085   8.646  20.466  0.00  0.00    +0.000 A 
BRANCH  16  23
ATOM     22  F   UNL     1      -0.772  10.740  22.878  0.00  0.00    +0.000 F 
ATOM     23  C   UNL     1      -0.076   9.641  22.474  0.00  0.00    +0.000 C 
ATOM     24  F   UNL     1       0.901   9.459  23.407  0.00  0.00    +0.000 F 
ATOM     25  F   UNL     1      -0.928   8.588  22.614  0.00  0.00    +0.000 F 
ENDBRANCH  16  23
ENDBRANCH   1  20
TORSDOF 3
ENDMDL
MODEL 9
REMARK VINA RESULT:      -8.2      2.734      3.591
REMARK  Name = 
REMARK  3 active torsions:
REMARK  status: ('A' for Active; 'I' for Inactive)
REMARK    1  A    between atoms: C_2  and  C_5
REMARK    2  A    between atoms: C_9  and  C_10
REMARK    3  A    between atoms: C_13  and  C_14
REMARK                            x       y       z     vdW  Elec       q    Type
REMARK                         _______ _______ _______ _____ _____    ______ ____
ROOT
ATOM      1  C   UNL     1       2.235   7.836  19.080  0.00  0.00    +0.000 A 
ATOM      2  N   UNL     1       2.764   7.850  17.849  0.00  0.00    +0.000 NA
ATOM      3  O   UNL     1       3.386   6.600  17.754  0.00  0.00    +0.000 OA
ATOM      4  C   UNL     1       3.163   5.961  18.936  0.00  0.00    +0.000 A 
ATOM      5  N   UNL     1       2.472   6.684  19.786  0.00  0.00    +0.000 NA
ENDROOT
BRANCH   4   6
ATOM      6  C   UNL     1       3.619   4.553  19.048  0.00  0.00    +0.000 C 
ATOM      7  C   UNL     1       3.575   3.860  17.653  0.00  0.00    +0.000 C 
ATOM      8  C   UNL     1       2.465   2.819  17.339  0.00  0.00    +0.000 C 
ATOM      9  C   UNL     1       1.660   2.171  18.480  0.00  0.00    +0.000 C 
ATOM     10  C   UNL     1       1.958   2.788  19.776  0.00  0.00    +0.000 A 
ATOM     11  N   UNL     1       1.419   2.472  20.986  0.00  0.00    +0.000 N 
ATOM     12  N   UNL     1       1.950   3.236  21.956  0.00  0.00    +0.000 NA
ATOM     13  N   UNL     1       2.817   4.070  21.389  0.00  0.00    +0.000 NA
ATOM     14  C   UNL     1       2.820   3.816  20.048  0.00  0.00    +0.000 A 
ATOM     15  H   UNL     1       0.717   1.784  21.233  0.00  0.00    +0.000 HD
ENDBRANCH   4   6
BRANCH   1  20
ATOM     16  C   UNL     1       0.153   9.878  21.489  0.00  0.00    +0.000 A 
ATOM     17  C   UNL     1      -0.056  11.033  20.716  0.00  0.00    +0.000 A 
ATOM     18  C   UNL     1       0.432  11.114  19.416  0.00  0.00    +0.000 A 
ATOM     19  C   UNL     1       1.151  10.043  18.877  0.00  0.00    +0.000 A 
ATOM     20  C   UNL     1       1.381   8.885  19.628  0.00  0.00    +0.000 A 
ATOM     21  C   UNL     1       0.855   8.797  20.925  0.00  0.00    +0.000 A 
BRANCH  16  23
ATOM     22  F   UNL     1      -0.947  10.939  23.342  0.00  0.00    +0.000 F 
ATOM     23  C   UNL     1      -0.338   9.798  22.912  0.00  0.00    +0.000 C 
ATOM     24  F   UNL     1       0.671   9.562  23.797  0.00  0.00    +0.000 F 
ATOM     25  F   UNL     1      -1.244   8.799  23.099  0.00  0.00    +0.000 F 
ENDBRANCH  16  23
ENDBRANCH   1  20
TORSDOF 3
ENDMDL
