MODEL 1
REMARK VINA RESULT:      -8.0      0.000      0.000
REMARK  Name = 
REMARK  6 active torsions:
REMARK  status: ('A' for Active; 'I' for Inactive)
REMARK    1  A    between atoms: C_1  and  N_2
REMARK    2  A    between atoms: C_3  and  C_4
REMARK    3  A    between atoms: C_4  and  C_5
REMARK    4  A    between atoms: C_5  and  N_6
REMARK    5  A    between atoms: C_5  and  C_17
REMARK    6  A    between atoms: C_7  and  C_9
REMARK                            x       y       z     vdW  Elec       q    Type
REMARK                         _______ _______ _______ _____ _____    ______ ____
ROOT
ATOM      1  C   UNL     1       0.527  10.802  18.934  0.00  0.00    +0.000 C 
ENDROOT
BRANCH   1   2
ATOM      2  C   UNL     1      -0.942  10.801  18.494  0.00  0.00    +0.000 A 
ATOM      3  C   UNL     1      -1.372   9.912  17.493  0.00  0.00    +0.000 A 
ATOM      4  C   UNL     1      -2.707   9.893  17.071  0.00  0.00    +0.000 A 
ATOM      5  C   UNL     1      -3.634  10.763  17.640  0.00  0.00    +0.000 A 
ATOM      6  C   UNL     1      -3.232  11.644  18.636  0.00  0.00    +0.000 A 
ATOM      7  C   UNL     1      -1.901  11.655  19.067  0.00  0.00    +0.000 A 
ENDBRANCH   1   2
BRANCH   1   8
ATOM      8  N   UNL     1       1.005   9.425  19.114  0.00  0.00    +0.000 N 
ATOM      9  C   UNL     1       1.943   8.827  18.304  0.00  0.00    +0.000 C 
ATOM     10  O   UNL     1       2.385   9.358  17.290  0.00  0.00    +0.000 OA
ATOM     11  H   UNL     1       0.689   8.977  19.959  0.00  0.00    +0.000 HD
BRANCH   9  12
ATOM     12  C   UNL     1       2.422   7.457  18.672  0.00  0.00    +0.000 A 
ATOM     13  C   UNL     1       2.122   6.818  19.881  0.00  0.00    +0.000 A 
ATOM     14  C   UNL     1       2.609   5.532  20.125  0.00  0.00    +0.000 A 
ATOM     15  F   UNL     1       2.312   4.934  21.286  0.00  0.00    +0.000 F 
ATOM     16  C   UNL     1       3.386   4.860  19.195  0.00  0.00    +0.000 A 
ATOM     17  C   UNL     1       3.681   5.493  17.998  0.00  0.00    +0.000 A 
ATOM     18  F   UNL     1       4.427   4.858  17.084  0.00  0.00    +0.000 F 
ATOM     19  C   UNL     1       3.213   6.775  17.730  0.00  0.00    +0.000 A 
ENDBRANCH   9  12
ENDBRANCH   1   8
BRANCH   1  20
ATOM     20  C   UNL     1       0.829  11.748  20.120  0.00  0.00    +0.000 C 
BRANCH  20  23
ATOM     21  C   UNL     1      -0.359  14.617  20.678  0.00  0.00    +0.000 C 
ATOM     22  N   UNL     1       0.809  14.296  19.891  0.00  0.00    +0.000 N 
ATOM     23  C   UNL     1       1.423  13.070  19.728  0.00  0.00    +0.000 A 
ATOM     24  N   UNL     1       2.525  13.203  19.011  0.00  0.00    +0.000 NA
ATOM     25  C   UNL     1       2.536  14.504  18.571  0.00  0.00    +0.000 A 
ATOM     26  C   UNL     1       3.419  15.146  17.688  0.00  0.00    +0.000 A 
ATOM     27  C   UNL     1       3.166  16.475  17.328  0.00  0.00    +0.000 A 
ATOM     28  C   UNL     1       2.069  17.162  17.853  0.00  0.00    +0.000 A 
ATOM     29  C   UNL     1       1.197  16.548  18.758  0.00  0.00    +0.000 A 
ATOM     30  C   UNL     1       1.460  15.211  19.090  0.00  0.00    +0.000 A 
ENDBRANCH  20  23
ENDBRANCH   1  20
TORSDOF 5
ENDMDL
MODEL 2
REMARK VINA RESULT:      -8.0      0.525      1.037
REMARK  Name = 
REMARK  6 active torsions:
REMARK  status: ('A' for Active; 'I' for Inactive)
REMARK    1  A    between atoms: C_1  and  N_2
REMARK    2  A    between atoms: C_3  and  C_4
REMARK    3  A    between atoms: C_4  and  C_5
REMARK    4  A    between atoms: C_5  and  N_6
REMARK    5  A    between atoms: C_5  and  C_17
REMARK    6  A    between atoms: C_7  and  C_9
REMARK                            x       y       z     vdW  Elec       q    Type
REMARK                         _______ _______ _______ _____ _____    ______ ____
ROOT
ATOM      1  C   UNL     1       0.030  10.984  18.648  0.00  0.00    +0.000 C 
ENDROOT
BRANCH   1   2
ATOM      2  C   UNL     1      -1.434  10.865  18.206  0.00  0.00    +0.000 A 
ATOM      3  C   UNL     1      -2.412  11.682  18.798  0.00  0.00    +0.000 A 
ATOM      4  C   UNL     1      -3.756  11.592  18.415  0.00  0.00    +0.000 A 
ATOM      5  C   UNL     1      -4.144  10.683  17.434  0.00  0.00    +0.000 A 
ATOM      6  C   UNL     1      -3.191   9.872  16.829  0.00  0.00    +0.000 A 
ATOM      7  C   UNL     1      -1.847   9.970  17.204  0.00  0.00    +0.000 A 
ENDBRANCH   1   2
BRANCH   1   8
ATOM      8  N   UNL     1       0.633   9.651  18.775  0.00  0.00    +0.000 N 
ATOM      9  C   UNL     1       1.840   9.299  18.215  0.00  0.00    +0.000 C 
ATOM     10  O   UNL     1       2.470  10.039  17.466  0.00  0.00    +0.000 OA
ATOM     11  H   UNL     1       0.159   9.034  19.414  0.00  0.00    +0.000 HD
BRANCH   9  12
ATOM     12  C   UNL     1       2.389   7.939  18.520  0.00  0.00    +0.000 A 
ATOM     13  C   UNL     1       2.082   7.208  19.674  0.00  0.00    +0.000 A 
ATOM     14  C   UNL     1       2.639   5.942  19.861  0.00  0.00    +0.000 A 
ATOM     15  F   UNL     1       2.335   5.255  20.970  0.00  0.00    +0.000 F 
ATOM     16  C   UNL     1       3.493   5.377  18.927  0.00  0.00    +0.000 A 
ATOM     17  C   UNL     1       3.795   6.102  17.785  0.00  0.00    +0.000 A 
ATOM     18  F   UNL     1       4.615   5.572  16.867  0.00  0.00    +0.000 F 
ATOM     19  C   UNL     1       3.259   7.367  17.575  0.00  0.00    +0.000 A 
ENDBRANCH   9  12
ENDBRANCH   1   8
BRANCH   1  20
ATOM     20  C   UNL     1       0.246  11.907  19.871  0.00  0.00    +0.000 C 
BRANCH  20  23
ATOM     21  C   UNL     1      -0.896  14.826  20.229  0.00  0.00    +0.000 C 
ATOM     22  N   UNL     1       0.361  14.451  19.624  0.00  0.00    +0.000 N 
ATOM     23  C   UNL     1       0.943  13.200  19.561  0.00  0.00    +0.000 A 
ATOM     24  N   UNL     1       2.143  13.281  19.012  0.00  0.00    +0.000 NA
ATOM     25  C   UNL     1       2.270  14.575  18.570  0.00  0.00    +0.000 A 
ATOM     26  C   UNL     1       3.297  15.172  17.822  0.00  0.00    +0.000 A 
ATOM     27  C   UNL     1       3.153  16.505  17.420  0.00  0.00    +0.000 A 
ATOM     28  C   UNL     1       2.019  17.240  17.774  0.00  0.00    +0.000 A 
ATOM     29  C   UNL     1       1.000  16.671  18.545  0.00  0.00    +0.000 A 
ATOM     30  C   UNL     1       1.158  15.330  18.921  0.00  0.00    +0.000 A 
ENDBRANCH  20  23
ENDBRANCH   1  20
TORSDOF 5
ENDMDL
MODEL 3
REMARK VINA RESULT:      -8.0      0.553      1.614
REMARK  Name = 
REMARK  6 active torsions:
REMARK  status: ('A' for Active; 'I' for Inactive)
REMARK    1  A    between atoms: C_1  and  N_2
REMARK    2  A    between atoms: C_3  and  C_4
REMARK    3  A    between atoms: C_4  and  C_5
REMARK    4  A    between atoms: C_5  and  N_6
REMARK    5  A    between atoms: C_5  and  C_17
REMARK    6  A    between atoms: C_7  and  C_9
REMARK                            x       y       z     vdW  Elec       q    Type
REMARK                         _______ _______ _______ _____ _____    ______ ____
ROOT
ATOM      1  C   UNL     1       0.024  11.060  18.697  0.00  0.00    +0.000 C 
ENDROOT
BRANCH   1   2
ATOM      2  C   UNL     1      -1.460  10.939  18.328  0.00  0.00    +0.000 A 
ATOM      3  C   UNL     1      -1.876   9.951  17.418  0.00  0.00    +0.000 A 
ATOM      4  C   UNL     1      -3.224   9.821  17.062  0.00  0.00    +0.000 A 
ATOM      5  C   UNL     1      -4.178  10.677  17.608  0.00  0.00    +0.000 A 
ATOM      6  C   UNL     1      -3.789  11.654  18.515  0.00  0.00    +0.000 A 
ATOM      7  C   UNL     1      -2.445  11.777  18.880  0.00  0.00    +0.000 A 
ENDBRANCH   1   2
BRANCH   1   8
ATOM      8  N   UNL     1       0.638   9.729  18.781  0.00  0.00    +0.000 N 
ATOM      9  C   UNL     1       1.832   9.396  18.182  0.00  0.00    +0.000 C 
ATOM     10  O   UNL     1       2.437  10.155  17.433  0.00  0.00    +0.000 OA
ATOM     11  H   UNL     1       0.184   9.096  19.419  0.00  0.00    +0.000 HD
BRANCH   9  12
ATOM     12  C   UNL     1       2.396   8.034  18.445  0.00  0.00    +0.000 A 
ATOM     13  C   UNL     1       3.320   7.392  17.612  0.00  0.00    +0.000 A 
ATOM     14  C   UNL     1       3.795   6.123  17.952  0.00  0.00    +0.000 A 
ATOM     15  F   UNL     1       4.679   5.522  17.144  0.00  0.00    +0.000 F 
ATOM     16  C   UNL     1       3.378   5.474  19.103  0.00  0.00    +0.000 A 
ATOM     17  C   UNL     1       2.464   6.112  19.927  0.00  0.00    +0.000 A 
ATOM     18  F   UNL     1       2.052   5.504  21.047  0.00  0.00    +0.000 F 
ATOM     19  C   UNL     1       1.971   7.373  19.611  0.00  0.00    +0.000 A 
ENDBRANCH   9  12
ENDBRANCH   1   8
BRANCH   1  20
ATOM     20  C   UNL     1       0.298  11.973  19.915  0.00  0.00    +0.000 C 
BRANCH  20  23
ATOM     21  C   UNL     1      -0.860  14.889  20.244  0.00  0.00    +0.000 C 
ATOM     22  N   UNL     1       0.395  14.514  19.635  0.00  0.00    +0.000 N 
ATOM     23  C   UNL     1       0.984  13.267  19.584  0.00  0.00    +0.000 A 
ATOM     24  N   UNL     1       2.180  13.348  19.026  0.00  0.00    +0.000 NA
ATOM     25  C   UNL     1       2.296  14.637  18.566  0.00  0.00    +0.000 A 
ATOM     26  C   UNL     1       3.313  15.230  17.803  0.00  0.00    +0.000 A 
ATOM     27  C   UNL     1       3.158  16.558  17.385  0.00  0.00    +0.000 A 
ATOM     28  C   UNL     1       2.022  17.290  17.737  0.00  0.00    +0.000 A 
ATOM     29  C   UNL     1       1.012  16.725  18.523  0.00  0.00    +0.000 A 
ATOM     30  C   UNL     1       1.182  15.389  18.915  0.00  0.00    +0.000 A 
ENDBRANCH  20  23
ENDBRANCH   1  20
TORSDOF 5
ENDMDL
MODEL 4
REMARK VINA RESULT:      -8.0      0.160      1.765
REMARK  Name = 
REMARK  6 active torsions:
REMARK  status: ('A' for Active; 'I' for Inactive)
REMARK    1  A    between atoms: C_1  and  N_2
REMARK    2  A    between atoms: C_3  and  C_4
REMARK    3  A    between atoms: C_4  and  C_5
REMARK    4  A    between atoms: C_5  and  N_6
REMARK    5  A    between atoms: C_5  and  C_17
REMARK    6  A    between atoms: C_7  and  C_9
REMARK                            x       y       z     vdW  Elec       q    Type
REMARK                         _______ _______ _______ _____ _____    ______ ____
ROOT
ATOM      1  C   UNL     1       0.594  10.759  18.918  0.00  0.00    +0.000 C 
ENDROOT
BRANCH   1   2
ATOM      2  C   UNL     1      -0.879  10.734  18.492  0.00  0.00    +0.000 A 
ATOM      3  C   UNL     1      -1.793  11.625  19.081  0.00  0.00    +0.000 A 
ATOM      4  C   UNL     1      -3.144  11.620  18.713  0.00  0.00    +0.000 A 
ATOM      5  C   UNL     1      -3.604  10.725  17.750  0.00  0.00    +0.000 A 
ATOM      6  C   UNL     1      -2.715   9.842  17.149  0.00  0.00    +0.000 A 
ATOM      7  C   UNL     1      -1.364   9.854  17.508  0.00  0.00    +0.000 A 
ENDBRANCH   1   2
BRANCH   1   8
ATOM      8  N   UNL     1       1.103   9.390  19.072  0.00  0.00    +0.000 N 
ATOM      9  C   UNL     1       2.033   8.819  18.234  0.00  0.00    +0.000 C 
ATOM     10  O   UNL     1       2.442   9.368  17.216  0.00  0.00    +0.000 OA
ATOM     11  H   UNL     1       0.815   8.927  19.919  0.00  0.00    +0.000 HD
BRANCH   9  12
ATOM     12  C   UNL     1       2.546   7.454  18.577  0.00  0.00    +0.000 A 
ATOM     13  C   UNL     1       3.466   6.741  17.798  0.00  0.00    +0.000 A 
ATOM     14  C   UNL     1       3.890   5.476  18.211  0.00  0.00    +0.000 A 
ATOM     15  F   UNL     1       4.771   4.807  17.455  0.00  0.00    +0.000 F 
ATOM     16  C   UNL     1       3.427   4.900  19.383  0.00  0.00    +0.000 A 
ATOM     17  C   UNL     1       2.518   5.607  20.154  0.00  0.00    +0.000 A 
ATOM     18  F   UNL     1       2.062   5.070  21.293  0.00  0.00    +0.000 F 
ATOM     19  C   UNL     1       2.075   6.867  19.765  0.00  0.00    +0.000 A 
ENDBRANCH   9  12
ENDBRANCH   1   8
BRANCH   1  20
ATOM     20  C   UNL     1       0.888  11.694  20.114  0.00  0.00    +0.000 C 
BRANCH  20  23
ATOM     21  C   UNL     1      -0.314  14.542  20.741  0.00  0.00    +0.000 C 
ATOM     22  N   UNL     1       0.844  14.245  19.932  0.00  0.00    +0.000 N 
ATOM     23  C   UNL     1       1.466  13.028  19.737  0.00  0.00    +0.000 A 
ATOM     24  N   UNL     1       2.556  13.182  19.006  0.00  0.00    +0.000 NA
ATOM     25  C   UNL     1       2.550  14.491  18.590  0.00  0.00    +0.000 A 
ATOM     26  C   UNL     1       3.414  15.156  17.706  0.00  0.00    +0.000 A 
ATOM     27  C   UNL     1       3.145  16.490  17.374  0.00  0.00    +0.000 A 
ATOM     28  C   UNL     1       2.051  17.157  17.927  0.00  0.00    +0.000 A 
ATOM     29  C   UNL     1       1.197  16.520  18.833  0.00  0.00    +0.000 A 
ATOM     30  C   UNL     1       1.476  15.180  19.138  0.00  0.00    +0.000 A 
ENDBRANCH  20  23
ENDBRANCH   1  20
TORSDOF 5
ENDMDL
MODEL 5
REMARK VINA RESULT:      -7.9      4.366      9.205
REMARK  Name = 
REMARK  6 active torsions:
REMARK  status: ('A' for Active; 'I' for Inactive)
REMARK    1  A    between atoms: C_1  and  N_2
REMARK    2  A    between atoms: C_3  and  C_4
REMARK    3  A    between atoms: C_4  and  C_5
REMARK    4  A    between atoms: C_5  and  N_6
REMARK    5  A    between atoms: C_5  and  C_17
REMARK    6  A    between atoms: C_7  and  C_9
REMARK                            x       y       z     vdW  Elec       q    Type
REMARK                         _______ _______ _______ _____ _____    ______ ____
ROOT
ATOM      1  C   UNL     1       4.411   6.316  17.189  0.00  0.00    +0.000 C 
ENDROOT
BRANCH   1   2
ATOM      2  C   UNL     1       5.833   6.541  17.718  0.00  0.00    +0.000 A 
ATOM      3  C   UNL     1       6.580   7.644  17.270  0.00  0.00    +0.000 A 
ATOM      4  C   UNL     1       7.882   7.870  17.734  0.00  0.00    +0.000 A 
ATOM      5  C   UNL     1       8.459   6.997  18.652  0.00  0.00    +0.000 A 
ATOM      6  C   UNL     1       7.735   5.904  19.115  0.00  0.00    +0.000 A 
ATOM      7  C   UNL     1       6.431   5.685  18.660  0.00  0.00    +0.000 A 
ENDBRANCH   1   2
BRANCH   1   8
ATOM      8  N   UNL     1       3.429   6.928  18.095  0.00  0.00    +0.000 N 
ATOM      9  C   UNL     1       2.823   8.141  17.861  0.00  0.00    +0.000 C 
ATOM     10  O   UNL     1       3.130   8.872  16.925  0.00  0.00    +0.000 OA
ATOM     11  H   UNL     1       3.129   6.336  18.851  0.00  0.00    +0.000 HD
BRANCH   9  12
ATOM     12  C   UNL     1       1.757   8.591  18.811  0.00  0.00    +0.000 A 
ATOM     13  C   UNL     1       1.675   8.187  20.149  0.00  0.00    +0.000 A 
ATOM     14  C   UNL     1       0.645   8.672  20.958  0.00  0.00    +0.000 A 
ATOM     15  F   UNL     1       0.582   8.275  22.237  0.00  0.00    +0.000 F 
ATOM     16  C   UNL     1      -0.307   9.554  20.474  0.00  0.00    +0.000 A 
ATOM     17  C   UNL     1      -0.223   9.955  19.150  0.00  0.00    +0.000 A 
ATOM     18  F   UNL     1      -1.131  10.812  18.663  0.00  0.00    +0.000 F 
ATOM     19  C   UNL     1       0.788   9.484  18.320  0.00  0.00    +0.000 A 
ENDBRANCH   9  12
ENDBRANCH   1   8
BRANCH   1  20
ATOM     20  C   UNL     1       4.106   4.850  16.805  0.00  0.00    +0.000 C 
BRANCH  20  23
ATOM     21  C   UNL     1       1.026   4.501  17.395  0.00  0.00    +0.000 C 
ATOM     22  N   UNL     1       2.126   4.007  18.190  0.00  0.00    +0.000 N 
ATOM     23  C   UNL     1       3.476   4.036  17.899  0.00  0.00    +0.000 A 
ATOM     24  N   UNL     1       4.159   3.395  18.832  0.00  0.00    +0.000 NA
ATOM     25  C   UNL     1       3.254   3.087  19.819  0.00  0.00    +0.000 A 
ATOM     26  C   UNL     1       3.464   2.507  21.079  0.00  0.00    +0.000 A 
ATOM     27  C   UNL     1       2.375   2.369  21.949  0.00  0.00    +0.000 A 
ATOM     28  C   UNL     1       1.097   2.781  21.565  0.00  0.00    +0.000 A 
ATOM     29  C   UNL     1       0.864   3.334  20.301  0.00  0.00    +0.000 A 
ATOM     30  C   UNL     1       1.972   3.477  19.454  0.00  0.00    +0.000 A 
ENDBRANCH  20  23
ENDBRANCH   1  20
TORSDOF 5
ENDMDL
MODEL 6
REMARK VINA RESULT:      -7.8      4.079      6.721
REMARK  Name = 
REMARK  6 active torsions:
REMARK  status: ('A' for Active; 'I' for Inactive)
REMARK    1  A    between atoms: C_1  and  N_2
REMARK    2  A    between atoms: C_3  and  C_4
REMARK    3  A    between atoms: C_4  and  C_5
REMARK    4  A    between atoms: C_5  and  N_6
REMARK    5  A    between atoms: C_5  and  C_17
REMARK    6  A    between atoms: C_7  and  C_9
REMARK                            x       y       z     vdW  Elec       q    Type
REMARK                         _______ _______ _______ _____ _____    ______ ____
ROOT
ATOM      1  C   UNL     1       2.387   6.056  18.397  0.00  0.00    +0.000 C 
ENDROOT
BRANCH   1   2
ATOM      2  C   UNL     1       1.996   4.705  19.010  0.00  0.00    +0.000 A 
ATOM      3  C   UNL     1       2.227   4.464  20.376  0.00  0.00    +0.000 A 
ATOM      4  C   UNL     1       1.883   3.239  20.960  0.00  0.00    +0.000 A 
ATOM      5  C   UNL     1       1.304   2.234  20.189  0.00  0.00    +0.000 A 
ATOM      6  C   UNL     1       1.059   2.455  18.839  0.00  0.00    +0.000 A 
ATOM      7  C   UNL     1       1.392   3.683  18.258  0.00  0.00    +0.000 A 
ENDBRANCH   1   2
BRANCH   1   8
ATOM      8  N   UNL     1       3.299   5.855  17.263  0.00  0.00    +0.000 N 
ATOM      9  C   UNL     1       4.546   5.283  17.374  0.00  0.00    +0.000 C 
ATOM     10  O   UNL     1       5.052   4.987  18.452  0.00  0.00    +0.000 OA
ATOM     11  H   UNL     1       2.898   6.053  16.361  0.00  0.00    +0.000 HD
BRANCH   9  12
ATOM     12  C   UNL     1       5.323   5.037  16.118  0.00  0.00    +0.000 A 
ATOM     13  C   UNL     1       6.646   5.447  15.918  0.00  0.00    +0.000 A 
ATOM     14  C   UNL     1       7.287   5.159  14.711  0.00  0.00    +0.000 A 
ATOM     15  F   UNL     1       8.554   5.559  14.536  0.00  0.00    +0.000 F 
ATOM     16  C   UNL     1       6.647   4.469  13.694  0.00  0.00    +0.000 A 
ATOM     17  C   UNL     1       5.338   4.062  13.894  0.00  0.00    +0.000 A 
ATOM     18  F   UNL     1       4.703   3.388  12.925  0.00  0.00    +0.000 F 
ATOM     19  C   UNL     1       4.673   4.339  15.084  0.00  0.00    +0.000 A 
ENDBRANCH   9  12
ENDBRANCH   1   8
BRANCH   1  20
ATOM     20  C   UNL     1       2.865   7.102  19.430  0.00  0.00    +0.000 C 
BRANCH  20  23
ATOM     21  C   UNL     1       1.559   9.664  18.134  0.00  0.00    +0.000 C 
ATOM     22  N   UNL     1       1.312   9.135  19.455  0.00  0.00    +0.000 N 
ATOM     23  C   UNL     1       1.772   7.956  20.006  0.00  0.00    +0.000 A 
ATOM     24  N   UNL     1       1.247   7.776  21.205  0.00  0.00    +0.000 NA
ATOM     25  C   UNL     1       0.566   8.932  21.498  0.00  0.00    +0.000 A 
ATOM     26  C   UNL     1      -0.082   9.318  22.681  0.00  0.00    +0.000 A 
ATOM     27  C   UNL     1      -0.640  10.600  22.758  0.00  0.00    +0.000 A 
ATOM     28  C   UNL     1      -0.575  11.475  21.672  0.00  0.00    +0.000 A 
ATOM     29  C   UNL     1       0.039  11.096  20.474  0.00  0.00    +0.000 A 
ATOM     30  C   UNL     1       0.606   9.814  20.426  0.00  0.00    +0.000 A 
ENDBRANCH  20  23
ENDBRANCH   1  20
TORSDOF 5
ENDMDL
MODEL 7
REMARK VINA RESULT:      -7.8      6.227      9.570
REMARK  Name = 
REMARK  6 active torsions:
REMARK  status: ('A' for Active; 'I' for Inactive)
REMARK    1  A    between atoms: C_1  and  N_2
REMARK    2  A    between atoms: C_3  and  C_4
REMARK    3  A    between atoms: C_4  and  C_5
REMARK    4  A    between atoms: C_5  and  N_6
REMARK    5  A    between atoms: C_5  and  C_17
REMARK    6  A    between atoms: C_7  and  C_9
REMARK                            x       y       z     vdW  Elec       q    Type
REMARK                         _______ _______ _______ _____ _____    ______ ____
ROOT
ATOM      1  C   UNL     1       5.718   6.540  17.338  0.00  0.00    +0.000 C 
ENDROOT
BRANCH   1   2
ATOM      2  C   UNL     1       6.836   7.495  17.774  0.00  0.00    +0.000 A 
ATOM      3  C   UNL     1       7.835   7.046  18.656  0.00  0.00    +0.000 A 
ATOM      4  C   UNL     1       8.865   7.899  19.071  0.00  0.00    +0.000 A 
ATOM      5  C   UNL     1       8.914   9.213  18.614  0.00  0.00    +0.000 A 
ATOM      6  C   UNL     1       7.942   9.674  17.735  0.00  0.00    +0.000 A 
ATOM      7  C   UNL     1       6.919   8.820  17.311  0.00  0.00    +0.000 A 
ENDBRANCH   1   2
BRANCH   1   8
ATOM      8  N   UNL     1       5.933   6.103  15.952  0.00  0.00    +0.000 N 
ATOM      9  C   UNL     1       6.720   5.030  15.600  0.00  0.00    +0.000 C 
ATOM     10  O   UNL     1       7.401   4.408  16.409  0.00  0.00    +0.000 OA
ATOM     11  H   UNL     1       5.359   6.570  15.270  0.00  0.00    +0.000 HD
BRANCH   9  12
ATOM     12  C   UNL     1       6.759   4.628  14.158  0.00  0.00    +0.000 A 
ATOM     13  C   UNL     1       6.161   3.469  13.649  0.00  0.00    +0.000 A 
ATOM     14  C   UNL     1       6.245   3.188  12.284  0.00  0.00    +0.000 A 
ATOM     15  F   UNL     1       5.667   2.075  11.813  0.00  0.00    +0.000 F 
ATOM     16  C   UNL     1       6.907   4.032  11.407  0.00  0.00    +0.000 A 
ATOM     17  C   UNL     1       7.497   5.179  11.912  0.00  0.00    +0.000 A 
ATOM     18  F   UNL     1       8.138   6.011  11.079  0.00  0.00    +0.000 F 
ATOM     19  C   UNL     1       7.433   5.482  13.268  0.00  0.00    +0.000 A 
ENDBRANCH   9  12
ENDBRANCH   1   8
BRANCH   1  20
ATOM     20  C   UNL     1       4.293   7.062  17.634  0.00  0.00    +0.000 C 
BRANCH  20  23
ATOM     21  C   UNL     1       2.109   7.190  19.907  0.00  0.00    +0.000 C 
ATOM     22  N   UNL     1       2.442   6.052  19.083  0.00  0.00    +0.000 N 
ATOM     23  C   UNL     1       3.302   5.996  18.004  0.00  0.00    +0.000 A 
ATOM     24  N   UNL     1       3.263   4.797  17.449  0.00  0.00    +0.000 NA
ATOM     25  C   UNL     1       2.490   4.021  18.278  0.00  0.00    +0.000 A 
ATOM     26  C   UNL     1       2.213   2.647  18.221  0.00  0.00    +0.000 A 
ATOM     27  C   UNL     1       1.452   2.068  19.244  0.00  0.00    +0.000 A 
ATOM     28  C   UNL     1       0.958   2.845  20.294  0.00  0.00    +0.000 A 
ATOM     29  C   UNL     1       1.199   4.222  20.351  0.00  0.00    +0.000 A 
ATOM     30  C   UNL     1       1.977   4.776  19.325  0.00  0.00    +0.000 A 
ENDBRANCH  20  23
ENDBRANCH   1  20
TORSDOF 5
ENDMDL
MODEL 8
REMARK VINA RESULT:      -7.8      1.953      5.022
REMARK  Name = 
REMARK  6 active torsions:
REMARK  status: ('A' for Active; 'I' for Inactive)
REMARK    1  A    between atoms: C_1  and  N_2
REMARK    2  A    between atoms: C_3  and  C_4
REMARK    3  A    between atoms: C_4  and  C_5
REMARK    4  A    between atoms: C_5  and  N_6
REMARK    5  A    between atoms: C_5  and  C_17
REMARK    6  A    between atoms: C_7  and  C_9
REMARK                            x       y       z     vdW  Elec       q    Type
REMARK                         _______ _______ _______ _____ _____    ______ ____
ROOT
ATOM      1  C   UNL     1       0.779  10.846  20.596  0.00  0.00    +0.000 C 
ENDROOT
BRANCH   1   2
ATOM      2  C   UNL     1       1.422  12.060  19.913  0.00  0.00    +0.000 A 
ATOM      3  C   UNL     1       1.412  13.310  20.556  0.00  0.00    +0.000 A 
ATOM      4  C   UNL     1       1.989  14.434  19.953  0.00  0.00    +0.000 A 
ATOM      5  C   UNL     1       2.584  14.328  18.699  0.00  0.00    +0.000 A 
ATOM      6  C   UNL     1       2.613  13.100  18.050  0.00  0.00    +0.000 A 
ATOM      7  C   UNL     1       2.046  11.974  18.657  0.00  0.00    +0.000 A 
ENDBRANCH   1   2
BRANCH   1   8
ATOM      8  N   UNL     1       1.312   9.601  20.027  0.00  0.00    +0.000 N 
ATOM      9  C   UNL     1       1.486   8.442  20.749  0.00  0.00    +0.000 C 
ATOM     10  O   UNL     1       1.313   8.377  21.961  0.00  0.00    +0.000 OA
ATOM     11  H   UNL     1       1.428   9.611  19.027  0.00  0.00    +0.000 HD
BRANCH   9  12
ATOM     12  C   UNL     1       1.932   7.215  20.014  0.00  0.00    +0.000 A 
ATOM     13  C   UNL     1       2.629   7.235  18.800  0.00  0.00    +0.000 A 
ATOM     14  C   UNL     1       3.009   6.033  18.199  0.00  0.00    +0.000 A 
ATOM     15  F   UNL     1       3.676   6.070  17.038  0.00  0.00    +0.000 F 
ATOM     16  C   UNL     1       2.717   4.807  18.775  0.00  0.00    +0.000 A 
ATOM     17  C   UNL     1       2.028   4.789  19.977  0.00  0.00    +0.000 A 
ATOM     18  F   UNL     1       1.740   3.614  20.553  0.00  0.00    +0.000 F 
ATOM     19  C   UNL     1       1.633   5.970  20.596  0.00  0.00    +0.000 A 
ENDBRANCH   9  12
ENDBRANCH   1   8
BRANCH   1  20
ATOM     20  C   UNL     1      -0.764  10.910  20.672  0.00  0.00    +0.000 C 
BRANCH  20  23
ATOM     21  C   UNL     1      -3.283  12.702  20.043  0.00  0.00    +0.000 C 
ATOM     22  N   UNL     1      -2.618  11.789  19.143  0.00  0.00    +0.000 N 
ATOM     23  C   UNL     1      -1.448  11.085  19.346  0.00  0.00    +0.000 A 
ATOM     24  N   UNL     1      -1.111  10.431  18.248  0.00  0.00    +0.000 NA
ATOM     25  C   UNL     1      -2.162  10.587  17.377  0.00  0.00    +0.000 A 
ATOM     26  C   UNL     1      -2.374  10.013  16.115  0.00  0.00    +0.000 A 
ATOM     27  C   UNL     1      -3.580  10.268  15.451  0.00  0.00    +0.000 A 
ATOM     28  C   UNL     1      -4.549  11.096  16.022  0.00  0.00    +0.000 A 
ATOM     29  C   UNL     1      -4.341  11.701  17.266  0.00  0.00    +0.000 A 
ATOM     30  C   UNL     1      -3.134  11.418  17.919  0.00  0.00    +0.000 A 
ENDBRANCH  20  23
ENDBRANCH   1  20
TORSDOF 5
ENDMDL
MODEL 9
REMARK VINA RESULT:      -7.7      2.001      4.922
REMARK  Name = 
REMARK  6 active torsions:
REMARK  status: ('A' for Active; 'I' for Inactive)
REMARK    1  A    between atoms: C_1  and  N_2
REMARK    2  A    between atoms: C_3  and  C_4
REMARK    3  A    between atoms: C_4  and  C_5
REMARK    4  A    between atoms: C_5  and  N_6
REMARK    5  A    between atoms: C_5  and  C_17
REMARK    6  A    between atoms: C_7  and  C_9
REMARK                            x       y       z     vdW  Elec       q    Type
REMARK                         _______ _______ _______ _____ _____    ______ ____
ROOT
ATOM      1  C   UNL     1       0.892  10.336  20.187  0.00  0.00    +0.000 C 
ENDROOT
BRANCH   1   2
ATOM      2  C   UNL     1       1.336  11.728  19.721  0.00  0.00    +0.000 A 
ATOM      3  C   UNL     1       2.028  11.872  18.505  0.00  0.00    +0.000 A 
ATOM      4  C   UNL     1       2.447  13.131  18.059  0.00  0.00    +0.000 A 
ATOM      5  C   UNL     1       2.184  14.267  18.820  0.00  0.00    +0.000 A 
ATOM      6  C   UNL     1       1.494  14.149  20.020  0.00  0.00    +0.000 A 
ATOM      7  C   UNL     1       1.064  12.892  20.461  0.00  0.00    +0.000 A 
ENDBRANCH   1   2
BRANCH   1   8
ATOM      8  N   UNL     1       1.636   9.296  19.463  0.00  0.00    +0.000 N 
ATOM      9  C   UNL     1       1.827   8.019  19.939  0.00  0.00    +0.000 C 
ATOM     10  O   UNL     1       1.484   7.667  21.063  0.00  0.00    +0.000 OA
ATOM     11  H   UNL     1       1.897   9.543  18.523  0.00  0.00    +0.000 HD
BRANCH   9  12
ATOM     12  C   UNL     1       2.507   7.029  19.046  0.00  0.00    +0.000 A 
ATOM     13  C   UNL     1       3.336   7.377  17.972  0.00  0.00    +0.000 A 
ATOM     14  C   UNL     1       3.933   6.376  17.204  0.00  0.00    +0.000 A 
ATOM     15  F   UNL     1       4.723   6.727  16.180  0.00  0.00    +0.000 F 
ATOM     16  C   UNL     1       3.732   5.033  17.475  0.00  0.00    +0.000 A 
ATOM     17  C   UNL     1       2.913   4.689  18.539  0.00  0.00    +0.000 A 
ATOM     18  F   UNL     1       2.710   3.395  18.822  0.00  0.00    +0.000 F 
ATOM     19  C   UNL     1       2.301   5.664  19.319  0.00  0.00    +0.000 A 
ENDBRANCH   9  12
ENDBRANCH   1   8
BRANCH   1  20
ATOM     20  C   UNL     1      -0.641  10.137  20.203  0.00  0.00    +0.000 C 
BRANCH  20  23
ATOM     21  C   UNL     1      -2.893  12.306  19.787  0.00  0.00    +0.000 C 
ATOM     22  N   UNL     1      -2.393  11.371  18.806  0.00  0.00    +0.000 N 
ATOM     23  C   UNL     1      -1.332  10.496  18.919  0.00  0.00    +0.000 A 
ATOM     24  N   UNL     1      -1.125   9.877  17.770  0.00  0.00    +0.000 NA
ATOM     25  C   UNL     1      -2.168  10.238  16.952  0.00  0.00    +0.000 A 
ATOM     26  C   UNL     1      -2.498   9.787  15.665  0.00  0.00    +0.000 A 
ATOM     27  C   UNL     1      -3.674  10.255  15.066  0.00  0.00    +0.000 A 
ATOM     28  C   UNL     1      -4.496  11.172  15.725  0.00  0.00    +0.000 A 
ATOM     29  C   UNL     1      -4.166  11.656  16.995  0.00  0.00    +0.000 A 
ATOM     30  C   UNL     1      -2.993  11.160  17.582  0.00  0.00    +0.000 A 
ENDBRANCH  20  23
ENDBRANCH   1  20
TORSDOF 5
ENDMDL
