MODEL 1
REMARK VINA RESULT:      -8.6      0.000      0.000
REMARK  Name = 
REMARK  6 active torsions:
REMARK  status: ('A' for Active; 'I' for Inactive)
REMARK    1  A    between atoms: C_1  and  C_2
REMARK    2  A    between atoms: C_5  and  C_6
REMARK    3  A    between atoms: C_6  and  O_8
REMARK    4  A    between atoms: C_10  and  N_11
REMARK    5  A    between atoms: C_12  and  C_14
REMARK    6  A    between atoms: C_14  and  C_15
REMARK                            x       y       z     vdW  Elec       q    Type
REMARK                         _______ _______ _______ _____ _____    ______ ____
ROOT
ATOM      1  N   UNL     1       3.158   6.082  19.772  0.00  0.00    +0.000 N 
ATOM      2  C   UNL     1       2.704   4.941  19.125  0.00  0.00    +0.000 C 
ATOM      3  O   UNL     1       1.572   4.908  18.587  0.00  0.00    +0.000 OA
ATOM      4  H   UNL     1       4.143   6.137  20.002  0.00  0.00    +0.000 HD
ENDROOT
BRANCH   1  11
ATOM      5  C   UNL     1       2.952   7.918  17.409  0.00  0.00    +0.000 C 
ATOM      6  C   UNL     1       2.221   8.136  18.703  0.00  0.00    +0.000 A 
ATOM      7  C   UNL     1       1.357   9.256  18.766  0.00  0.00    +0.000 A 
ATOM      8  C   UNL     1       0.657   9.578  19.922  0.00  0.00    +0.000 A 
ATOM      9  C   UNL     1       0.846   8.811  21.067  0.00  0.00    +0.000 A 
ATOM     10  C   UNL     1       1.700   7.701  21.012  0.00  0.00    +0.000 A 
ATOM     11  C   UNL     1       2.375   7.306  19.835  0.00  0.00    +0.000 A 
BRANCH   9  12
ATOM     12  C   UNL     1       0.088   9.172  22.306  0.00  0.00    +0.000 C 
ATOM     13  O   UNL     1       0.434  10.086  23.044  0.00  0.00    +0.000 OA
BRANCH  12  14
ATOM     14  O   UNL     1      -0.951   8.368  22.567  0.00  0.00    +0.000 OA
ATOM     15  H   UNL     1      -1.361   8.469  23.439  0.00  0.00    +0.000 HD
ENDBRANCH  12  14
ENDBRANCH   9  12
ENDBRANCH   1  11
BRANCH   2  16
ATOM     16  C   UNL     1       3.552   3.648  18.881  0.00  0.00    +0.000 C 
ATOM     17  C   UNL     1       4.144   2.490  19.786  0.00  0.00    +0.000 C 
ATOM     18  C   UNL     1       3.479   1.478  18.787  0.00  0.00    +0.000 C 
ATOM     19  C   UNL     1       2.411   2.532  18.632  0.00  0.00    +0.000 C 
BRANCH  16  20
ATOM     20  C   UNL     1       4.640   4.100  17.763  0.00  0.00    +0.000 A 
ATOM     21  C   UNL     1       4.449   3.969  16.376  0.00  0.00    +0.000 A 
ATOM     22  C   UNL     1       5.427   4.390  15.468  0.00  0.00    +0.000 A 
ATOM     23  C   UNL     1       6.608   4.957  15.928  0.00  0.00    +0.000 A 
ATOM     24  F   UNL     1       7.529   5.373  15.047  0.00  0.00    +0.000 F 
ATOM     25  C   UNL     1       6.848   5.103  17.282  0.00  0.00    +0.000 A 
ATOM     26  C   UNL     1       5.868   4.671  18.172  0.00  0.00    +0.000 A 
ATOM     27  F   UNL     1       6.103   4.811  19.490  0.00  0.00    +0.000 F 
ENDBRANCH  16  20
ENDBRANCH   2  16
TORSDOF 5
ENDMDL
MODEL 2
REMARK VINA RESULT:      -8.5      1.544      1.997
REMARK  Name = 
REMARK  6 active torsions:
REMARK  status: ('A' for Active; 'I' for Inactive)
REMARK    1  A    between atoms: C_1  and  C_2
REMARK    2  A    between atoms: C_5  and  C_6
REMARK    3  A    between atoms: C_6  and  O_8
REMARK    4  A    between atoms: C_10  and  N_11
REMARK    5  A    between atoms: C_12  and  C_14
REMARK    6  A    between atoms: C_14  and  C_15
REMARK                            x       y       z     vdW  Elec       q    Type
REMARK                         _______ _______ _______ _____ _____    ______ ____
ROOT
ATOM      1  N   UNL     1       2.451   6.883  20.287  0.00  0.00    +0.000 N 
ATOM      2  C   UNL     1       1.879   5.619  20.346  0.00  0.00    +0.000 C 
ATOM      3  O   UNL     1       0.647   5.473  20.526  0.00  0.00    +0.000 OA
ATOM      4  H   UNL     1       3.397   6.961  19.934  0.00  0.00    +0.000 HD
ENDROOT
BRANCH   1  11
ATOM      5  C   UNL     1       1.984   8.645  17.905  0.00  0.00    +0.000 C 
ATOM      6  C   UNL     1       1.385   8.895  19.259  0.00  0.00    +0.000 A 
ATOM      7  C   UNL     1       0.517  10.008  19.377  0.00  0.00    +0.000 A 
ATOM      8  C   UNL     1      -0.067  10.358  20.588  0.00  0.00    +0.000 A 
ATOM      9  C   UNL     1       0.247   9.627  21.730  0.00  0.00    +0.000 A 
ATOM     10  C   UNL     1       1.105   8.525  21.621  0.00  0.00    +0.000 A 
ATOM     11  C   UNL     1       1.662   8.100  20.394  0.00  0.00    +0.000 A 
BRANCH   9  12
ATOM     12  C   UNL     1      -0.388  10.018  23.028  0.00  0.00    +0.000 C 
ATOM     13  O   UNL     1      -1.238  10.897  23.104  0.00  0.00    +0.000 OA
BRANCH  12  14
ATOM     14  O   UNL     1       0.104   9.375  24.095  0.00  0.00    +0.000 OA
ATOM     15  H   UNL     1      -0.499   8.761  24.539  0.00  0.00    +0.000 HD
ENDBRANCH  12  14
ENDBRANCH   9  12
ENDBRANCH   1  11
BRANCH   2  16
ATOM     16  C   UNL     1       2.638   4.277  20.081  0.00  0.00    +0.000 C 
ATOM     17  C   UNL     1       3.045   3.012  20.944  0.00  0.00    +0.000 C 
ATOM     18  C   UNL     1       2.397   2.133  19.817  0.00  0.00    +0.000 C 
ATOM     19  C   UNL     1       1.438   3.285  19.649  0.00  0.00    +0.000 C 
BRANCH  16  20
ATOM     20  C   UNL     1       3.860   4.705  19.101  0.00  0.00    +0.000 A 
ATOM     21  C   UNL     1       5.205   4.785  19.502  0.00  0.00    +0.000 A 
ATOM     22  C   UNL     1       6.210   5.152  18.600  0.00  0.00    +0.000 A 
ATOM     23  C   UNL     1       5.891   5.434  17.279  0.00  0.00    +0.000 A 
ATOM     24  F   UNL     1       6.865   5.767  16.419  0.00  0.00    +0.000 F 
ATOM     25  C   UNL     1       4.583   5.376  16.833  0.00  0.00    +0.000 A 
ATOM     26  C   UNL     1       3.594   5.019  17.747  0.00  0.00    +0.000 A 
ATOM     27  F   UNL     1       2.321   4.964  17.313  0.00  0.00    +0.000 F 
ENDBRANCH  16  20
ENDBRANCH   2  16
TORSDOF 5
ENDMDL
MODEL 3
REMARK VINA RESULT:      -8.5      0.917      1.323
REMARK  Name = 
REMARK  6 active torsions:
REMARK  status: ('A' for Active; 'I' for Inactive)
REMARK    1  A    between atoms: C_1  and  C_2
REMARK    2  A    between atoms: C_5  and  C_6
REMARK    3  A    between atoms: C_6  and  O_8
REMARK    4  A    between atoms: C_10  and  N_11
REMARK    5  A    between atoms: C_12  and  C_14
REMARK    6  A    between atoms: C_14  and  C_15
REMARK                            x       y       z     vdW  Elec       q    Type
REMARK                         _______ _______ _______ _____ _____    ______ ____
ROOT
ATOM      1  N   UNL     1       3.183   6.119  19.840  0.00  0.00    +0.000 N 
ATOM      2  C   UNL     1       2.713   4.930  19.300  0.00  0.00    +0.000 C 
ATOM      3  O   UNL     1       1.550   4.841  18.840  0.00  0.00    +0.000 OA
ATOM      4  H   UNL     1       4.178   6.207  20.003  0.00  0.00    +0.000 HD
ENDROOT
BRANCH   1  11
ATOM      5  C   UNL     1       2.958   7.898  17.435  0.00  0.00    +0.000 C 
ATOM      6  C   UNL     1       2.217   8.133  18.721  0.00  0.00    +0.000 A 
ATOM      7  C   UNL     1       1.335   9.240  18.755  0.00  0.00    +0.000 A 
ATOM      8  C   UNL     1       0.624   9.576  19.900  0.00  0.00    +0.000 A 
ATOM      9  C   UNL     1       0.820   8.839  21.063  0.00  0.00    +0.000 A 
ATOM     10  C   UNL     1       1.693   7.742  21.037  0.00  0.00    +0.000 A 
ATOM     11  C   UNL     1       2.379   7.331  19.872  0.00  0.00    +0.000 A 
BRANCH   9  12
ATOM     12  C   UNL     1       0.050   9.215  22.290  0.00  0.00    +0.000 C 
ATOM     13  O   UNL     1       0.334  10.196  22.967  0.00  0.00    +0.000 OA
BRANCH  12  14
ATOM     14  O   UNL     1      -0.921   8.352  22.614  0.00  0.00    +0.000 OA
ATOM     15  H   UNL     1      -1.155   7.699  21.938  0.00  0.00    +0.000 HD
ENDBRANCH  12  14
ENDBRANCH   9  12
ENDBRANCH   1  11
BRANCH   2  16
ATOM     16  C   UNL     1       3.571   3.638  19.089  0.00  0.00    +0.000 C 
ATOM     17  C   UNL     1       4.121   2.475  20.013  0.00  0.00    +0.000 C 
ATOM     18  C   UNL     1       3.502   1.469  18.979  0.00  0.00    +0.000 C 
ATOM     19  C   UNL     1       2.443   2.524  18.781  0.00  0.00    +0.000 C 
BRANCH  16  20
ATOM     20  C   UNL     1       4.710   4.095  18.025  0.00  0.00    +0.000 A 
ATOM     21  C   UNL     1       6.015   4.479  18.379  0.00  0.00    +0.000 A 
ATOM     22  C   UNL     1       6.950   4.851  17.407  0.00  0.00    +0.000 A 
ATOM     23  C   UNL     1       6.601   4.838  16.063  0.00  0.00    +0.000 A 
ATOM     24  F   UNL     1       7.511   5.180  15.140  0.00  0.00    +0.000 F 
ATOM     25  C   UNL     1       5.329   4.475  15.661  0.00  0.00    +0.000 A 
ATOM     26  C   UNL     1       4.408   4.116  16.643  0.00  0.00    +0.000 A 
ATOM     27  F   UNL     1       3.169   3.764  16.251  0.00  0.00    +0.000 F 
ENDBRANCH  16  20
ENDBRANCH   2  16
TORSDOF 5
ENDMDL
MODEL 4
REMARK VINA RESULT:      -7.4      1.493      1.663
REMARK  Name = 
REMARK  6 active torsions:
REMARK  status: ('A' for Active; 'I' for Inactive)
REMARK    1  A    between atoms: C_1  and  C_2
REMARK    2  A    between atoms: C_5  and  C_6
REMARK    3  A    between atoms: C_6  and  O_8
REMARK    4  A    between atoms: C_10  and  N_11
REMARK    5  A    between atoms: C_12  and  C_14
REMARK    6  A    between atoms: C_14  and  C_15
REMARK                            x       y       z     vdW  Elec       q    Type
REMARK                         _______ _______ _______ _____ _____    ______ ____
ROOT
ATOM      1  N   UNL     1       2.452   7.369  19.234  0.00  0.00    +0.000 N 
ATOM      2  C   UNL     1       2.218   6.041  19.560  0.00  0.00    +0.000 C 
ATOM      3  O   UNL     1       1.356   5.725  20.414  0.00  0.00    +0.000 OA
ATOM      4  H   UNL     1       2.994   7.566  18.401  0.00  0.00    +0.000 HD
ENDROOT
BRANCH   1  11
ATOM      5  C   UNL     1       1.592   9.734  17.601  0.00  0.00    +0.000 C 
ATOM      6  C   UNL     1       1.235   9.543  19.047  0.00  0.00    +0.000 A 
ATOM      7  C   UNL     1       0.405  10.529  19.634  0.00  0.00    +0.000 A 
ATOM      8  C   UNL     1       0.039  10.476  20.973  0.00  0.00    +0.000 A 
ATOM      9  C   UNL     1       0.540   9.456  21.776  0.00  0.00    +0.000 A 
ATOM     10  C   UNL     1       1.362   8.477  21.202  0.00  0.00    +0.000 A 
ATOM     11  C   UNL     1       1.699   8.462  19.829  0.00  0.00    +0.000 A 
BRANCH   9  12
ATOM     12  C   UNL     1       0.139   9.415  23.217  0.00  0.00    +0.000 C 
ATOM     13  O   UNL     1       0.960   9.358  24.125  0.00  0.00    +0.000 OA
BRANCH  12  14
ATOM     14  O   UNL     1      -1.184   9.375  23.417  0.00  0.00    +0.000 OA
ATOM     15  H   UNL     1      -1.713  10.003  22.904  0.00  0.00    +0.000 HD
ENDBRANCH  12  14
ENDBRANCH   9  12
ENDBRANCH   1  11
BRANCH   2  16
ATOM     16  C   UNL     1       2.874   4.812  18.848  0.00  0.00    +0.000 C 
ATOM     17  C   UNL     1       3.044   3.269  19.167  0.00  0.00    +0.000 C 
ATOM     18  C   UNL     1       2.469   2.989  17.734  0.00  0.00    +0.000 C 
ATOM     19  C   UNL     1       1.653   4.239  17.958  0.00  0.00    +0.000 C 
BRANCH  16  20
ATOM     20  C   UNL     1       4.249   5.410  18.223  0.00  0.00    +0.000 A 
ATOM     21  C   UNL     1       4.320   6.146  17.027  0.00  0.00    +0.000 A 
ATOM     22  C   UNL     1       5.540   6.641  16.553  0.00  0.00    +0.000 A 
ATOM     23  C   UNL     1       6.708   6.420  17.270  0.00  0.00    +0.000 A 
ATOM     24  F   UNL     1       7.868   6.915  16.814  0.00  0.00    +0.000 F 
ATOM     25  C   UNL     1       6.695   5.698  18.449  0.00  0.00    +0.000 A 
ATOM     26  C   UNL     1       5.474   5.204  18.902  0.00  0.00    +0.000 A 
ATOM     27  F   UNL     1       5.462   4.499  20.049  0.00  0.00    +0.000 F 
ENDBRANCH  16  20
ENDBRANCH   2  16
TORSDOF 5
ENDMDL
MODEL 5
REMARK VINA RESULT:      -7.4      1.005      1.054
REMARK  Name = 
REMARK  6 active torsions:
REMARK  status: ('A' for Active; 'I' for Inactive)
REMARK    1  A    between atoms: C_1  and  C_2
REMARK    2  A    between atoms: C_5  and  C_6
REMARK    3  A    between atoms: C_6  and  O_8
REMARK    4  A    between atoms: C_10  and  N_11
REMARK    5  A    between atoms: C_12  and  C_14
REMARK    6  A    between atoms: C_14  and  C_15
REMARK                            x       y       z     vdW  Elec       q    Type
REMARK                         _______ _______ _______ _____ _____    ______ ____
ROOT
ATOM      1  N   UNL     1       2.281   6.480  19.071  0.00  0.00    +0.000 N 
ATOM      2  C   UNL     1       2.458   5.359  19.871  0.00  0.00    +0.000 C 
ATOM      3  O   UNL     1       2.245   5.403  21.105  0.00  0.00    +0.000 OA
ATOM      4  H   UNL     1       2.258   6.350  18.067  0.00  0.00    +0.000 HD
ENDROOT
BRANCH   1  11
ATOM      5  C   UNL     1       2.366   8.984  17.421  0.00  0.00    +0.000 C 
ATOM      6  C   UNL     1       1.785   8.914  18.804  0.00  0.00    +0.000 A 
ATOM      7  C   UNL     1       1.210  10.104  19.315  0.00  0.00    +0.000 A 
ATOM      8  C   UNL     1       0.675  10.168  20.595  0.00  0.00    +0.000 A 
ATOM      9  C   UNL     1       0.749   9.051  21.420  0.00  0.00    +0.000 A 
ATOM     10  C   UNL     1       1.316   7.870  20.922  0.00  0.00    +0.000 A 
ATOM     11  C   UNL     1       1.809   7.750  19.603  0.00  0.00    +0.000 A 
BRANCH   9  12
ATOM     12  C   UNL     1       0.170   9.137  22.798  0.00  0.00    +0.000 C 
ATOM     13  O   UNL     1       0.780   9.636  23.735  0.00  0.00    +0.000 OA
BRANCH  12  14
ATOM     14  O   UNL     1      -1.032   8.561  22.925  0.00  0.00    +0.000 OA
ATOM     15  H   UNL     1      -1.060   7.738  23.435  0.00  0.00    +0.000 HD
ENDBRANCH  12  14
ENDBRANCH   9  12
ENDBRANCH   1  11
BRANCH   2  16
ATOM     16  C   UNL     1       2.808   3.928  19.345  0.00  0.00    +0.000 C 
ATOM     17  C   UNL     1       2.936   2.482  19.981  0.00  0.00    +0.000 C 
ATOM     18  C   UNL     1       1.984   1.981  18.838  0.00  0.00    +0.000 C 
ATOM     19  C   UNL     1       1.355   3.348  18.938  0.00  0.00    +0.000 C 
BRANCH  16  20
ATOM     20  C   UNL     1       4.012   4.183  18.285  0.00  0.00    +0.000 A 
ATOM     21  C   UNL     1       3.857   4.147  16.888  0.00  0.00    +0.000 A 
ATOM     22  C   UNL     1       4.938   4.388  16.033  0.00  0.00    +0.000 A 
ATOM     23  C   UNL     1       6.191   4.679  16.558  0.00  0.00    +0.000 A 
ATOM     24  F   UNL     1       7.215   4.925  15.728  0.00  0.00    +0.000 F 
ATOM     25  C   UNL     1       6.399   4.721  17.924  0.00  0.00    +0.000 A 
ATOM     26  C   UNL     1       5.314   4.470  18.761  0.00  0.00    +0.000 A 
ATOM     27  F   UNL     1       5.517   4.509  20.091  0.00  0.00    +0.000 F 
ENDBRANCH  16  20
ENDBRANCH   2  16
TORSDOF 5
ENDMDL
MODEL 6
REMARK VINA RESULT:      -7.4      3.783      7.702
REMARK  Name = 
REMARK  6 active torsions:
REMARK  status: ('A' for Active; 'I' for Inactive)
REMARK    1  A    between atoms: C_1  and  C_2
REMARK    2  A    between atoms: C_5  and  C_6
REMARK    3  A    between atoms: C_6  and  O_8
REMARK    4  A    between atoms: C_10  and  N_11
REMARK    5  A    between atoms: C_12  and  C_14
REMARK    6  A    between atoms: C_14  and  C_15
REMARK                            x       y       z     vdW  Elec       q    Type
REMARK                         _______ _______ _______ _____ _____    ______ ____
ROOT
ATOM      1  N   UNL     1       2.157   7.150  20.244  0.00  0.00    +0.000 N 
ATOM      2  C   UNL     1       1.480   8.320  19.926  0.00  0.00    +0.000 C 
ATOM      3  O   UNL     1       1.439   8.744  18.747  0.00  0.00    +0.000 OA
ATOM      4  H   UNL     1       1.989   6.736  21.153  0.00  0.00    +0.000 HD
ENDROOT
BRANCH   1  11
ATOM      5  C   UNL     1       1.402   4.277  19.824  0.00  0.00    +0.000 C 
ATOM      6  C   UNL     1       2.421   5.004  18.993  0.00  0.00    +0.000 A 
ATOM      7  C   UNL     1       3.009   4.279  17.928  0.00  0.00    +0.000 A 
ATOM      8  C   UNL     1       3.988   4.835  17.115  0.00  0.00    +0.000 A 
ATOM      9  C   UNL     1       4.443   6.123  17.382  0.00  0.00    +0.000 A 
ATOM     10  C   UNL     1       3.866   6.846  18.435  0.00  0.00    +0.000 A 
ATOM     11  C   UNL     1       2.821   6.335  19.239  0.00  0.00    +0.000 A 
BRANCH   9  12
ATOM     12  C   UNL     1       5.501   6.707  16.500  0.00  0.00    +0.000 C 
ATOM     13  O   UNL     1       6.517   7.224  16.948  0.00  0.00    +0.000 OA
BRANCH  12  14
ATOM     14  O   UNL     1       5.205   6.677  15.194  0.00  0.00    +0.000 OA
ATOM     15  H   UNL     1       4.912   5.822  14.843  0.00  0.00    +0.000 HD
ENDBRANCH  12  14
ENDBRANCH   9  12
ENDBRANCH   1  11
BRANCH   2  16
ATOM     16  C   UNL     1       0.614   9.156  20.924  0.00  0.00    +0.000 C 
ATOM     17  C   UNL     1      -0.591   8.858  21.910  0.00  0.00    +0.000 C 
ATOM     18  C   UNL     1       0.248   9.575  23.026  0.00  0.00    +0.000 C 
ATOM     19  C   UNL     1       1.448   9.017  22.301  0.00  0.00    +0.000 C 
BRANCH  16  20
ATOM     20  C   UNL     1       0.369  10.561  20.148  0.00  0.00    +0.000 A 
ATOM     21  C   UNL     1       1.198  11.690  20.276  0.00  0.00    +0.000 A 
ATOM     22  C   UNL     1       0.933  12.867  19.568  0.00  0.00    +0.000 A 
ATOM     23  C   UNL     1      -0.158  12.935  18.712  0.00  0.00    +0.000 A 
ATOM     24  F   UNL     1      -0.391  14.063  18.025  0.00  0.00    +0.000 F 
ATOM     25  C   UNL     1      -1.008  11.856  18.553  0.00  0.00    +0.000 A 
ATOM     26  C   UNL     1      -0.735  10.695  19.274  0.00  0.00    +0.000 A 
ATOM     27  F   UNL     1      -1.564   9.646  19.121  0.00  0.00    +0.000 F 
ENDBRANCH  16  20
ENDBRANCH   2  16
TORSDOF 5
ENDMDL
MODEL 7
REMARK VINA RESULT:      -7.3      1.480      1.882
REMARK  Name = 
REMARK  6 active torsions:
REMARK  status: ('A' for Active; 'I' for Inactive)
REMARK    1  A    between atoms: C_1  and  C_2
REMARK    2  A    between atoms: C_5  and  C_6
REMARK    3  A    between atoms: C_6  and  O_8
REMARK    4  A    between atoms: C_10  and  N_11
REMARK    5  A    between atoms: C_12  and  C_14
REMARK    6  A    between atoms: C_14  and  C_15
REMARK                            x       y       z     vdW  Elec       q    Type
REMARK                         _______ _______ _______ _____ _____    ______ ____
ROOT
ATOM      1  N   UNL     1       2.420   6.765  20.325  0.00  0.00    +0.000 N 
ATOM      2  C   UNL     1       1.697   5.585  20.437  0.00  0.00    +0.000 C 
ATOM      3  O   UNL     1       0.447   5.596  20.525  0.00  0.00    +0.000 OA
ATOM      4  H   UNL     1       3.391   6.704  20.046  0.00  0.00    +0.000 HD
ENDROOT
BRANCH   1  11
ATOM      5  C   UNL     1       2.308   8.331  17.769  0.00  0.00    +0.000 C 
ATOM      6  C   UNL     1       1.664   8.777  19.050  0.00  0.00    +0.000 A 
ATOM      7  C   UNL     1       0.931   9.988  19.008  0.00  0.00    +0.000 A 
ATOM      8  C   UNL     1       0.323  10.517  20.140  0.00  0.00    +0.000 A 
ATOM      9  C   UNL     1       0.479   9.869  21.361  0.00  0.00    +0.000 A 
ATOM     10  C   UNL     1       1.204   8.671  21.411  0.00  0.00    +0.000 A 
ATOM     11  C   UNL     1       1.778   8.069  20.267  0.00  0.00    +0.000 A 
BRANCH   9  12
ATOM     12  C   UNL     1      -0.179  10.453  22.572  0.00  0.00    +0.000 C 
ATOM     13  O   UNL     1      -0.683   9.756  23.445  0.00  0.00    +0.000 OA
BRANCH  12  14
ATOM     14  O   UNL     1      -0.227  11.791  22.579  0.00  0.00    +0.000 OA
ATOM     15  H   UNL     1      -0.881  12.192  23.171  0.00  0.00    +0.000 HD
ENDBRANCH  12  14
ENDBRANCH   9  12
ENDBRANCH   1  11
BRANCH   2  16
ATOM     16  C   UNL     1       2.307   4.147  20.344  0.00  0.00    +0.000 C 
ATOM     17  C   UNL     1       2.998   3.138  21.352  0.00  0.00    +0.000 C 
ATOM     18  C   UNL     1       1.984   2.055  20.839  0.00  0.00    +0.000 C 
ATOM     19  C   UNL     1       1.031   3.213  20.674  0.00  0.00    +0.000 C 
BRANCH  16  20
ATOM     20  C   UNL     1       3.091   4.145  18.922  0.00  0.00    +0.000 A 
ATOM     21  C   UNL     1       2.539   3.681  17.715  0.00  0.00    +0.000 A 
ATOM     22  C   UNL     1       3.269   3.719  16.523  0.00  0.00    +0.000 A 
ATOM     23  C   UNL     1       4.560   4.230  16.511  0.00  0.00    +0.000 A 
ATOM     24  F   UNL     1       5.243   4.278  15.359  0.00  0.00    +0.000 F 
ATOM     25  C   UNL     1       5.152   4.695  17.671  0.00  0.00    +0.000 A 
ATOM     26  C   UNL     1       4.415   4.641  18.852  0.00  0.00    +0.000 A 
ATOM     27  F   UNL     1       4.992   5.092  19.981  0.00  0.00    +0.000 F 
ENDBRANCH  16  20
ENDBRANCH   2  16
TORSDOF 5
ENDMDL
MODEL 8
REMARK VINA RESULT:      -7.2      2.266      3.915
REMARK  Name = 
REMARK  6 active torsions:
REMARK  status: ('A' for Active; 'I' for Inactive)
REMARK    1  A    between atoms: C_1  and  C_2
REMARK    2  A    between atoms: C_5  and  C_6
REMARK    3  A    between atoms: C_6  and  O_8
REMARK    4  A    between atoms: C_10  and  N_11
REMARK    5  A    between atoms: C_12  and  C_14
REMARK    6  A    between atoms: C_14  and  C_15
REMARK                            x       y       z     vdW  Elec       q    Type
REMARK                         _______ _______ _______ _____ _____    ______ ____
ROOT
ATOM      1  N   UNL     1       2.771   6.729  17.889  0.00  0.00    +0.000 N 
ATOM      2  C   UNL     1       4.113   6.816  17.546  0.00  0.00    +0.000 C 
ATOM      3  O   UNL     1       4.816   7.785  17.917  0.00  0.00    +0.000 OA
ATOM      4  H   UNL     1       2.302   5.842  17.753  0.00  0.00    +0.000 HD
ENDROOT
BRANCH   1  11
ATOM      5  C   UNL     1       1.888   6.084  20.682  0.00  0.00    +0.000 C 
ATOM      6  C   UNL     1       1.759   7.444  20.058  0.00  0.00    +0.000 A 
ATOM      7  C   UNL     1       1.228   8.472  20.874  0.00  0.00    +0.000 A 
ATOM      8  C   UNL     1       1.029   9.760  20.394  0.00  0.00    +0.000 A 
ATOM      9  C   UNL     1       1.310  10.040  19.060  0.00  0.00    +0.000 A 
ATOM     10  C   UNL     1       1.835   9.027  18.246  0.00  0.00    +0.000 A 
ATOM     11  C   UNL     1       2.113   7.725  18.720  0.00  0.00    +0.000 A 
BRANCH   9  12
ATOM     12  C   UNL     1       1.087  11.432  18.556  0.00  0.00    +0.000 C 
ATOM     13  O   UNL     1       0.056  12.053  18.781  0.00  0.00    +0.000 OA
BRANCH  12  14
ATOM     14  O   UNL     1       2.077  11.902  17.787  0.00  0.00    +0.000 OA
ATOM     15  H   UNL     1       2.314  11.362  17.018  0.00  0.00    +0.000 HD
ENDBRANCH  12  14
ENDBRANCH   9  12
ENDBRANCH   1  11
BRANCH   2  16
ATOM     16  C   UNL     1       4.921   5.707  16.793  0.00  0.00    +0.000 C 
ATOM     17  C   UNL     1       5.402   5.463  15.303  0.00  0.00    +0.000 C 
ATOM     18  C   UNL     1       6.838   5.223  15.889  0.00  0.00    +0.000 C 
ATOM     19  C   UNL     1       6.441   6.237  16.933  0.00  0.00    +0.000 C 
BRANCH  16  20
ATOM     20  C   UNL     1       4.381   4.320  17.443  0.00  0.00    +0.000 A 
ATOM     21  C   UNL     1       3.494   3.439  16.800  0.00  0.00    +0.000 A 
ATOM     22  C   UNL     1       3.077   2.253  17.416  0.00  0.00    +0.000 A 
ATOM     23  C   UNL     1       3.546   1.922  18.680  0.00  0.00    +0.000 A 
ATOM     24  F   UNL     1       3.153   0.775  19.252  0.00  0.00    +0.000 F 
ATOM     25  C   UNL     1       4.415   2.757  19.359  0.00  0.00    +0.000 A 
ATOM     26  C   UNL     1       4.812   3.937  18.735  0.00  0.00    +0.000 A 
ATOM     27  F   UNL     1       5.657   4.750  19.397  0.00  0.00    +0.000 F 
ENDBRANCH  16  20
ENDBRANCH   2  16
TORSDOF 5
ENDMDL
MODEL 9
REMARK VINA RESULT:      -7.2      2.920      4.598
REMARK  Name = 
REMARK  6 active torsions:
REMARK  status: ('A' for Active; 'I' for Inactive)
REMARK    1  A    between atoms: C_1  and  C_2
REMARK    2  A    between atoms: C_5  and  C_6
REMARK    3  A    between atoms: C_6  and  O_8
REMARK    4  A    between atoms: C_10  and  N_11
REMARK    5  A    between atoms: C_12  and  C_14
REMARK    6  A    between atoms: C_14  and  C_15
REMARK                            x       y       z     vdW  Elec       q    Type
REMARK                         _______ _______ _______ _____ _____    ______ ____
ROOT
ATOM      1  N   UNL     1       4.761   5.375  18.639  0.00  0.00    +0.000 N 
ATOM      2  C   UNL     1       4.923   4.822  17.376  0.00  0.00    +0.000 C 
ATOM      3  O   UNL     1       4.028   4.113  16.858  0.00  0.00    +0.000 OA
ATOM      4  H   UNL     1       5.405   6.102  18.926  0.00  0.00    +0.000 HD
ENDROOT
BRANCH   1  11
ATOM      5  C   UNL     1       2.514   7.355  18.478  0.00  0.00    +0.000 C 
ATOM      6  C   UNL     1       2.459   6.093  19.290  0.00  0.00    +0.000 A 
ATOM      7  C   UNL     1       1.247   5.826  19.972  0.00  0.00    +0.000 A 
ATOM      8  C   UNL     1       1.092   4.708  20.782  0.00  0.00    +0.000 A 
ATOM      9  C   UNL     1       2.171   3.850  20.971  0.00  0.00    +0.000 A 
ATOM     10  C   UNL     1       3.374   4.108  20.300  0.00  0.00    +0.000 A 
ATOM     11  C   UNL     1       3.545   5.199  19.416  0.00  0.00    +0.000 A 
BRANCH   9  12
ATOM     12  C   UNL     1       1.990   2.652  21.849  0.00  0.00    +0.000 C 
ATOM     13  O   UNL     1       0.909   2.362  22.348  0.00  0.00    +0.000 OA
BRANCH  12  14
ATOM     14  O   UNL     1       3.119   1.974  22.091  0.00  0.00    +0.000 OA
ATOM     15  H   UNL     1       3.661   2.297  22.826  0.00  0.00    +0.000 HD
ENDBRANCH  12  14
ENDBRANCH   9  12
ENDBRANCH   1  11
BRANCH   2  16
ATOM     16  C   UNL     1       6.132   5.100  16.422  0.00  0.00    +0.000 C 
ATOM     17  C   UNL     1       7.117   4.218  15.548  0.00  0.00    +0.000 C 
ATOM     18  C   UNL     1       6.766   5.161  14.344  0.00  0.00    +0.000 C 
ATOM     19  C   UNL     1       5.406   5.264  14.988  0.00  0.00    +0.000 C 
BRANCH  16  20
ATOM     20  C   UNL     1       6.952   6.288  17.166  0.00  0.00    +0.000 A 
ATOM     21  C   UNL     1       6.893   7.643  16.794  0.00  0.00    +0.000 A 
ATOM     22  C   UNL     1       7.619   8.617  17.488  0.00  0.00    +0.000 A 
ATOM     23  C   UNL     1       8.409   8.257  18.571  0.00  0.00    +0.000 A 
ATOM     24  F   UNL     1       9.086   9.202  19.239  0.00  0.00    +0.000 F 
ATOM     25  C   UNL     1       8.508   6.938  18.975  0.00  0.00    +0.000 A 
ATOM     26  C   UNL     1       7.785   5.980  18.267  0.00  0.00    +0.000 A 
ATOM     27  F   UNL     1       7.882   4.696  18.660  0.00  0.00    +0.000 F 
ENDBRANCH  16  20
ENDBRANCH   2  16
TORSDOF 5
ENDMDL
