MODEL 1
REMARK VINA RESULT:      -8.4      0.000      0.000
REMARK  Name = 
REMARK  6 active torsions:
REMARK  status: ('A' for Active; 'I' for Inactive)
REMARK    1  A    between atoms: C_1  and  C_2
REMARK    2  A    between atoms: C_2  and  N_3
REMARK    3  A    between atoms: C_2  and  C_15
REMARK    4  A    between atoms: C_4  and  C_6
REMARK    5  A    between atoms: C_18  and  N_19
REMARK    6  A    between atoms: C_21  and  C_22
REMARK                            x       y       z     vdW  Elec       q    Type
REMARK                         _______ _______ _______ _____ _____    ______ ____
ROOT
ATOM      1  C   UNL     1       2.312   6.253  19.152  0.00  0.00    +0.000 A 
ATOM      2  C   UNL     1       1.876   6.509  20.462  0.00  0.00    +0.000 A 
ATOM      3  C   UNL     1       1.452   7.787  20.844  0.00  0.00    +0.000 A 
ATOM      4  C   UNL     1       1.454   8.831  19.912  0.00  0.00    +0.000 A 
ATOM      5  C   UNL     1       1.911   8.591  18.609  0.00  0.00    +0.000 A 
ATOM      6  C   UNL     1       2.343   7.316  18.237  0.00  0.00    +0.000 A 
ENDROOT
BRANCH   4   7
ATOM      7  N   UNL     1       0.984  10.124  20.260  0.00  0.00    +0.000 N 
ATOM      8  C   UNL     1       0.614  11.157  19.434  0.00  0.00    +0.000 A 
ATOM      9  C   UNL     1       0.271  12.189  20.281  0.00  0.00    +0.000 A 
ATOM     10  N   UNL     1       0.434  11.773  21.576  0.00  0.00    +0.000 NA
ATOM     11  N   UNL     1       0.857  10.515  21.554  0.00  0.00    +0.000 NA
BRANCH   9  12
ATOM     12  C   UNL     1      -0.199  13.510  19.910  0.00  0.00    +0.000 C 
ATOM     13  N   UNL     1      -1.325  13.521  19.137  0.00  0.00    +0.000 N 
ATOM     14  O   UNL     1       0.356  14.551  20.246  0.00  0.00    +0.000 OA
ATOM     15  H   UNL     1      -1.776  12.659  18.860  0.00  0.00    +0.000 HD
ATOM     16  H   UNL     1      -1.691  14.409  18.824  0.00  0.00    +0.000 HD
ENDBRANCH   9  12
ENDBRANCH   4   7
BRANCH   1  18
ATOM     17  C   UNL     1       1.484   3.944  18.584  0.00  0.00    +0.000 C 
ATOM     18  C   UNL     1       2.714   4.844  18.752  0.00  0.00    +0.000 C 
BRANCH  18  19
ATOM     19  N   UNL     1       3.523   4.876  17.542  0.00  0.00    +0.000 N 
ATOM     20  C   UNL     1       4.891   4.694  17.575  0.00  0.00    +0.000 C 
ATOM     21  O   UNL     1       5.517   4.499  18.610  0.00  0.00    +0.000 OA
ATOM     22  H   UNL     1       3.042   4.893  16.658  0.00  0.00    +0.000 HD
BRANCH  20  23
ATOM     23  C   UNL     1       5.604   4.724  16.263  0.00  0.00    +0.000 A 
ATOM     24  C   UNL     1       6.863   5.342  16.111  0.00  0.00    +0.000 A 
ATOM     25  C   UNL     1       7.526   5.325  14.877  0.00  0.00    +0.000 A 
ATOM     26  C   UNL     1       6.926   4.672  13.816  0.00  0.00    +0.000 A 
ATOM     27  C   UNL     1       5.677   4.059  13.956  0.00  0.00    +0.000 A 
ATOM     28  C   UNL     1       5.005   4.076  15.169  0.00  0.00    +0.000 A 
ATOM     29  C   UNL     1       5.227   3.468  12.656  0.00  0.00    +0.000 C 
ATOM     30  C   UNL     1       6.559   3.382  11.894  0.00  0.00    +0.000 C 
ATOM     31  C   UNL     1       7.436   4.529  12.416  0.00  0.00    +0.000 C 
ENDBRANCH  20  23
ENDBRANCH  18  19
ENDBRANCH   1  18
TORSDOF 5
ENDMDL
MODEL 2
REMARK VINA RESULT:      -8.4      1.119      1.551
REMARK  Name = 
REMARK  6 active torsions:
REMARK  status: ('A' for Active; 'I' for Inactive)
REMARK    1  A    between atoms: C_1  and  C_2
REMARK    2  A    between atoms: C_2  and  N_3
REMARK    3  A    between atoms: C_2  and  C_15
REMARK    4  A    between atoms: C_4  and  C_6
REMARK    5  A    between atoms: C_18  and  N_19
REMARK    6  A    between atoms: C_21  and  C_22
REMARK                            x       y       z     vdW  Elec       q    Type
REMARK                         _______ _______ _______ _____ _____    ______ ____
ROOT
ATOM      1  C   UNL     1       2.484   5.114  19.286  0.00  0.00    +0.000 A 
ATOM      2  C   UNL     1       2.673   6.306  18.569  0.00  0.00    +0.000 A 
ATOM      3  C   UNL     1       2.235   7.533  19.081  0.00  0.00    +0.000 A 
ATOM      4  C   UNL     1       1.603   7.584  20.329  0.00  0.00    +0.000 A 
ATOM      5  C   UNL     1       1.388   6.396  21.041  0.00  0.00    +0.000 A 
ATOM      6  C   UNL     1       1.818   5.174  20.519  0.00  0.00    +0.000 A 
ENDROOT
BRANCH   4   7
ATOM      7  N   UNL     1       1.193   8.820  20.893  0.00  0.00    +0.000 N 
ATOM      8  C   UNL     1       0.717   9.940  20.259  0.00  0.00    +0.000 A 
ATOM      9  C   UNL     1       0.501  10.858  21.265  0.00  0.00    +0.000 A 
ATOM     10  N   UNL     1       0.842  10.289  22.464  0.00  0.00    +0.000 NA
ATOM     11  N   UNL     1       1.250   9.049  22.230  0.00  0.00    +0.000 NA
BRANCH   9  12
ATOM     12  C   UNL     1      -0.010  12.208  21.126  0.00  0.00    +0.000 C 
ATOM     13  N   UNL     1      -0.519  12.748  22.273  0.00  0.00    +0.000 N 
ATOM     14  O   UNL     1      -0.001  12.836  20.072  0.00  0.00    +0.000 OA
ATOM     15  H   UNL     1      -0.527  12.223  23.138  0.00  0.00    +0.000 HD
ATOM     16  H   UNL     1      -0.913  13.678  22.238  0.00  0.00    +0.000 HD
ENDBRANCH   9  12
ENDBRANCH   4   7
BRANCH   1  18
ATOM     17  C   UNL     1       1.885   2.802  18.491  0.00  0.00    +0.000 C 
ATOM     18  C   UNL     1       3.019   3.806  18.731  0.00  0.00    +0.000 C 
BRANCH  18  19
ATOM     19  N   UNL     1       3.785   4.049  17.517  0.00  0.00    +0.000 N 
ATOM     20  C   UNL     1       5.158   4.186  17.536  0.00  0.00    +0.000 C 
ATOM     21  O   UNL     1       5.824   4.119  18.562  0.00  0.00    +0.000 OA
ATOM     22  H   UNL     1       3.301   3.974  16.636  0.00  0.00    +0.000 HD
BRANCH  20  23
ATOM     23  C   UNL     1       5.829   4.408  16.221  0.00  0.00    +0.000 A 
ATOM     24  C   UNL     1       7.002   5.183  16.102  0.00  0.00    +0.000 A 
ATOM     25  C   UNL     1       7.630   5.346  14.860  0.00  0.00    +0.000 A 
ATOM     26  C   UNL     1       7.086   4.713  13.757  0.00  0.00    +0.000 A 
ATOM     27  C   UNL     1       5.922   3.945  13.865  0.00  0.00    +0.000 A 
ATOM     28  C   UNL     1       5.283   3.784  15.085  0.00  0.00    +0.000 A 
ATOM     29  C   UNL     1       5.513   3.412  12.528  0.00  0.00    +0.000 C 
ATOM     30  C   UNL     1       6.825   3.549  11.740  0.00  0.00    +0.000 C 
ATOM     31  C   UNL     1       7.573   4.746  12.343  0.00  0.00    +0.000 C 
ENDBRANCH  20  23
ENDBRANCH  18  19
ENDBRANCH   1  18
TORSDOF 5
ENDMDL
MODEL 3
REMARK VINA RESULT:      -8.3      1.165      1.192
REMARK  Name = 
REMARK  6 active torsions:
REMARK  status: ('A' for Active; 'I' for Inactive)
REMARK    1  A    between atoms: C_1  and  C_2
REMARK    2  A    between atoms: C_2  and  N_3
REMARK    3  A    between atoms: C_2  and  C_15
REMARK    4  A    between atoms: C_4  and  C_6
REMARK    5  A    between atoms: C_18  and  N_19
REMARK    6  A    between atoms: C_21  and  C_22
REMARK                            x       y       z     vdW  Elec       q    Type
REMARK                         _______ _______ _______ _____ _____    ______ ____
ROOT
ATOM      1  C   UNL     1       2.600   6.709  19.448  0.00  0.00    +0.000 A 
ATOM      2  C   UNL     1       1.976   7.052  20.657  0.00  0.00    +0.000 A 
ATOM      3  C   UNL     1       1.272   8.255  20.791  0.00  0.00    +0.000 A 
ATOM      4  C   UNL     1       1.178   9.134  19.706  0.00  0.00    +0.000 A 
ATOM      5  C   UNL     1       1.819   8.812  18.502  0.00  0.00    +0.000 A 
ATOM      6  C   UNL     1       2.530   7.615  18.379  0.00  0.00    +0.000 A 
ENDROOT
BRANCH   4   7
ATOM      7  N   UNL     1       0.431  10.336  19.798  0.00  0.00    +0.000 N 
ATOM      8  C   UNL     1      -0.921  10.524  19.643  0.00  0.00    +0.000 A 
ATOM      9  C   UNL     1      -1.115  11.879  19.803  0.00  0.00    +0.000 A 
ATOM     10  N   UNL     1       0.095  12.475  20.048  0.00  0.00    +0.000 NA
ATOM     11  N   UNL     1       1.025  11.530  20.054  0.00  0.00    +0.000 NA
BRANCH   9  12
ATOM     12  C   UNL     1      -2.373  12.599  19.741  0.00  0.00    +0.000 C 
ATOM     13  N   UNL     1      -3.112  12.364  18.617  0.00  0.00    +0.000 N 
ATOM     14  O   UNL     1      -2.762  13.369  20.614  0.00  0.00    +0.000 OA
ATOM     15  H   UNL     1      -2.783  11.732  17.899  0.00  0.00    +0.000 HD
ATOM     16  H   UNL     1      -3.988  12.854  18.502  0.00  0.00    +0.000 HD
ENDBRANCH   9  12
ENDBRANCH   4   7
BRANCH   1  18
ATOM     17  C   UNL     1       2.337   4.207  19.522  0.00  0.00    +0.000 C 
ATOM     18  C   UNL     1       3.310   5.373  19.316  0.00  0.00    +0.000 C 
BRANCH  18  19
ATOM     19  N   UNL     1       3.985   5.287  18.029  0.00  0.00    +0.000 N 
ATOM     20  C   UNL     1       5.257   4.766  17.906  0.00  0.00    +0.000 C 
ATOM     21  O   UNL     1       5.906   4.350  18.858  0.00  0.00    +0.000 OA
ATOM     22  H   UNL     1       3.443   5.486  17.203  0.00  0.00    +0.000 HD
BRANCH  20  23
ATOM     23  C   UNL     1       5.829   4.710  16.528  0.00  0.00    +0.000 A 
ATOM     24  C   UNL     1       7.141   5.144  16.245  0.00  0.00    +0.000 A 
ATOM     25  C   UNL     1       7.665   5.046  14.949  0.00  0.00    +0.000 A 
ATOM     26  C   UNL     1       6.873   4.496  13.957  0.00  0.00    +0.000 A 
ATOM     27  C   UNL     1       5.570   4.065  14.228  0.00  0.00    +0.000 A 
ATOM     28  C   UNL     1       5.035   4.165  15.503  0.00  0.00    +0.000 A 
ATOM     29  C   UNL     1       4.910   3.558  12.984  0.00  0.00    +0.000 C 
ATOM     30  C   UNL     1       6.131   3.293  12.089  0.00  0.00    +0.000 C 
ATOM     31  C   UNL     1       7.211   4.298  12.513  0.00  0.00    +0.000 C 
ENDBRANCH  20  23
ENDBRANCH  18  19
ENDBRANCH   1  18
TORSDOF 5
ENDMDL
MODEL 4
REMARK VINA RESULT:      -8.2      1.129      1.506
REMARK  Name = 
REMARK  6 active torsions:
REMARK  status: ('A' for Active; 'I' for Inactive)
REMARK    1  A    between atoms: C_1  and  C_2
REMARK    2  A    between atoms: C_2  and  N_3
REMARK    3  A    between atoms: C_2  and  C_15
REMARK    4  A    between atoms: C_4  and  C_6
REMARK    5  A    between atoms: C_18  and  N_19
REMARK    6  A    between atoms: C_21  and  C_22
REMARK                            x       y       z     vdW  Elec       q    Type
REMARK                         _______ _______ _______ _____ _____    ______ ____
ROOT
ATOM      1  C   UNL     1       2.390   6.063  19.410  0.00  0.00    +0.000 A 
ATOM      2  C   UNL     1       2.491   7.108  18.479  0.00  0.00    +0.000 A 
ATOM      3  C   UNL     1       1.979   8.379  18.763  0.00  0.00    +0.000 A 
ATOM      4  C   UNL     1       1.361   8.625  19.994  0.00  0.00    +0.000 A 
ATOM      5  C   UNL     1       1.233   7.581  20.921  0.00  0.00    +0.000 A 
ATOM      6  C   UNL     1       1.736   6.311  20.626  0.00  0.00    +0.000 A 
ENDROOT
BRANCH   4   7
ATOM      7  N   UNL     1       0.877   9.916  20.328  0.00  0.00    +0.000 N 
ATOM      8  C   UNL     1       0.146  10.306  21.423  0.00  0.00    +0.000 A 
ATOM      9  C   UNL     1      -0.085  11.653  21.239  0.00  0.00    +0.000 A 
ATOM     10  N   UNL     1       0.498  12.047  20.063  0.00  0.00    +0.000 NA
ATOM     11  N   UNL     1       1.089  10.989  19.522  0.00  0.00    +0.000 NA
BRANCH   9  12
ATOM     12  C   UNL     1      -0.810  12.547  22.121  0.00  0.00    +0.000 C 
ATOM     13  N   UNL     1      -2.066  12.876  21.696  0.00  0.00    +0.000 N 
ATOM     14  O   UNL     1      -0.352  12.992  23.169  0.00  0.00    +0.000 OA
ATOM     15  H   UNL     1      -2.436  12.509  20.829  0.00  0.00    +0.000 HD
ATOM     16  H   UNL     1      -2.615  13.515  22.253  0.00  0.00    +0.000 HD
ENDBRANCH   9  12
ENDBRANCH   4   7
BRANCH   1  18
ATOM     17  C   UNL     1       1.932   3.613  19.055  0.00  0.00    +0.000 C 
ATOM     18  C   UNL     1       3.003   4.709  19.096  0.00  0.00    +0.000 C 
BRANCH  18  19
ATOM     19  N   UNL     1       3.752   4.772  17.850  0.00  0.00    +0.000 N 
ATOM     20  C   UNL     1       5.108   4.518  17.800  0.00  0.00    +0.000 C 
ATOM     21  O   UNL     1       5.772   4.229  18.788  0.00  0.00    +0.000 OA
ATOM     22  H   UNL     1       3.229   4.868  16.994  0.00  0.00    +0.000 HD
BRANCH  20  23
ATOM     23  C   UNL     1       5.756   4.591  16.457  0.00  0.00    +0.000 A 
ATOM     24  C   UNL     1       7.035   5.157  16.275  0.00  0.00    +0.000 A 
ATOM     25  C   UNL     1       7.635   5.181  15.009  0.00  0.00    +0.000 A 
ATOM     26  C   UNL     1       6.953   4.619  13.946  0.00  0.00    +0.000 A 
ATOM     27  C   UNL     1       5.683   4.057  14.116  0.00  0.00    +0.000 A 
ATOM     28  C   UNL     1       5.073   4.036  15.361  0.00  0.00    +0.000 A 
ATOM     29  C   UNL     1       5.142   3.564  12.811  0.00  0.00    +0.000 C 
ATOM     30  C   UNL     1       6.428   3.461  11.977  0.00  0.00    +0.000 C 
ATOM     31  C   UNL     1       7.385   4.534  12.516  0.00  0.00    +0.000 C 
ENDBRANCH  20  23
ENDBRANCH  18  19
ENDBRANCH   1  18
TORSDOF 5
ENDMDL
MODEL 5
REMARK VINA RESULT:      -8.2      3.937     10.374
REMARK  Name = 
REMARK  6 active torsions:
REMARK  status: ('A' for Active; 'I' for Inactive)
REMARK    1  A    between atoms: C_1  and  C_2
REMARK    2  A    between atoms: C_2  and  N_3
REMARK    3  A    between atoms: C_2  and  C_15
REMARK    4  A    between atoms: C_4  and  C_6
REMARK    5  A    between atoms: C_18  and  N_19
REMARK    6  A    between atoms: C_21  and  C_22
REMARK                            x       y       z     vdW  Elec       q    Type
REMARK                         _______ _______ _______ _____ _____    ______ ____
ROOT
ATOM      1  C   UNL     1       1.519   9.251  19.176  0.00  0.00    +0.000 A 
ATOM      2  C   UNL     1       1.222   8.692  20.429  0.00  0.00    +0.000 A 
ATOM      3  C   UNL     1       1.565   7.369  20.729  0.00  0.00    +0.000 A 
ATOM      4  C   UNL     1       2.221   6.583  19.774  0.00  0.00    +0.000 A 
ATOM      5  C   UNL     1       2.499   7.124  18.511  0.00  0.00    +0.000 A 
ATOM      6  C   UNL     1       2.143   8.442  18.215  0.00  0.00    +0.000 A 
ENDROOT
BRANCH   4   7
ATOM      7  N   UNL     1       2.623   5.255  20.068  0.00  0.00    +0.000 N 
ATOM      8  C   UNL     1       3.533   4.465  19.410  0.00  0.00    +0.000 A 
ATOM      9  C   UNL     1       3.522   3.264  20.086  0.00  0.00    +0.000 A 
ATOM     10  N   UNL     1       2.626   3.346  21.120  0.00  0.00    +0.000 NA
ATOM     11  N   UNL     1       2.093   4.561  21.108  0.00  0.00    +0.000 NA
BRANCH   9  12
ATOM     12  C   UNL     1       4.315   2.085  19.795  0.00  0.00    +0.000 C 
ATOM     13  N   UNL     1       4.002   1.459  18.623  0.00  0.00    +0.000 N 
ATOM     14  O   UNL     1       5.200   1.660  20.532  0.00  0.00    +0.000 OA
ATOM     15  H   UNL     1       3.268   1.813  18.023  0.00  0.00    +0.000 HD
ATOM     16  H   UNL     1       4.502   0.617  18.374  0.00  0.00    +0.000 HD
ENDBRANCH   9  12
ENDBRANCH   4   7
BRANCH   1  18
ATOM     17  C   UNL     1       2.110  11.293  17.827  0.00  0.00    +0.000 C 
ATOM     18  C   UNL     1       1.183  10.706  18.899  0.00  0.00    +0.000 C 
BRANCH  18  19
ATOM     19  N   UNL     1      -0.217  10.838  18.527  0.00  0.00    +0.000 N 
ATOM     20  C   UNL     1      -1.060  11.730  19.159  0.00  0.00    +0.000 C 
ATOM     21  O   UNL     1      -0.697  12.462  20.072  0.00  0.00    +0.000 OA
ATOM     22  H   UNL     1      -0.527  10.361  17.695  0.00  0.00    +0.000 HD
BRANCH  20  23
ATOM     23  C   UNL     1      -2.469  11.787  18.668  0.00  0.00    +0.000 A 
ATOM     24  C   UNL     1      -2.817  11.415  17.352  0.00  0.00    +0.000 A 
ATOM     25  C   UNL     1      -4.151  11.446  16.929  0.00  0.00    +0.000 A 
ATOM     26  C   UNL     1      -5.123  11.829  17.835  0.00  0.00    +0.000 A 
ATOM     27  C   UNL     1      -4.787  12.202  19.141  0.00  0.00    +0.000 A 
ATOM     28  C   UNL     1      -3.469  12.187  19.571  0.00  0.00    +0.000 A 
ATOM     29  C   UNL     1      -6.006  12.619  19.904  0.00  0.00    +0.000 C 
ATOM     30  C   UNL     1      -7.118  11.982  19.056  0.00  0.00    +0.000 C 
ATOM     31  C   UNL     1      -6.598  11.943  17.612  0.00  0.00    +0.000 C 
ENDBRANCH  20  23
ENDBRANCH  18  19
ENDBRANCH   1  18
TORSDOF 5
ENDMDL
MODEL 6
REMARK VINA RESULT:      -8.2      2.483      9.575
REMARK  Name = 
REMARK  6 active torsions:
REMARK  status: ('A' for Active; 'I' for Inactive)
REMARK    1  A    between atoms: C_1  and  C_2
REMARK    2  A    between atoms: C_2  and  N_3
REMARK    3  A    between atoms: C_2  and  C_15
REMARK    4  A    between atoms: C_4  and  C_6
REMARK    5  A    between atoms: C_18  and  N_19
REMARK    6  A    between atoms: C_21  and  C_22
REMARK                            x       y       z     vdW  Elec       q    Type
REMARK                         _______ _______ _______ _____ _____    ______ ____
ROOT
ATOM      1  C   UNL     1       1.543   8.556  19.645  0.00  0.00    +0.000 A 
ATOM      2  C   UNL     1       1.927   7.324  20.195  0.00  0.00    +0.000 A 
ATOM      3  C   UNL     1       2.714   6.423  19.469  0.00  0.00    +0.000 A 
ATOM      4  C   UNL     1       3.135   6.748  18.174  0.00  0.00    +0.000 A 
ATOM      5  C   UNL     1       2.736   7.966  17.607  0.00  0.00    +0.000 A 
ATOM      6  C   UNL     1       1.941   8.856  18.333  0.00  0.00    +0.000 A 
ENDROOT
BRANCH   4   7
ATOM      7  N   UNL     1       3.973   5.875  17.434  0.00  0.00    +0.000 N 
ATOM      8  C   UNL     1       4.970   6.188  16.543  0.00  0.00    +0.000 A 
ATOM      9  C   UNL     1       5.440   4.974  16.089  0.00  0.00    +0.000 A 
ATOM     10  N   UNL     1       4.736   3.969  16.701  0.00  0.00    +0.000 NA
ATOM     11  N   UNL     1       3.856   4.525  17.523  0.00  0.00    +0.000 NA
BRANCH   9  12
ATOM     12  C   UNL     1       6.506   4.747  15.133  0.00  0.00    +0.000 C 
ATOM     13  N   UNL     1       6.326   3.663  14.322  0.00  0.00    +0.000 N 
ATOM     14  O   UNL     1       7.504   5.455  15.043  0.00  0.00    +0.000 OA
ATOM     15  H   UNL     1       5.503   3.081  14.404  0.00  0.00    +0.000 HD
ATOM     16  H   UNL     1       7.045   3.436  13.649  0.00  0.00    +0.000 HD
ENDBRANCH   9  12
ENDBRANCH   4   7
BRANCH   1  18
ATOM     17  C   UNL     1       0.949   9.298  21.976  0.00  0.00    +0.000 C 
ATOM     18  C   UNL     1       0.735   9.537  20.477  0.00  0.00    +0.000 C 
BRANCH  18  19
ATOM     19  N   UNL     1       1.061  10.904  20.100  0.00  0.00    +0.000 N 
ATOM     20  C   UNL     1       0.204  11.677  19.344  0.00  0.00    +0.000 C 
ATOM     21  O   UNL     1      -0.877  11.273  18.934  0.00  0.00    +0.000 OA
ATOM     22  H   UNL     1       1.870  11.327  20.527  0.00  0.00    +0.000 HD
BRANCH  20  23
ATOM     23  C   UNL     1       0.643  13.073  19.045  0.00  0.00    +0.000 A 
ATOM     24  C   UNL     1      -0.205  14.182  19.246  0.00  0.00    +0.000 A 
ATOM     25  C   UNL     1       0.245  15.484  18.991  0.00  0.00    +0.000 A 
ATOM     26  C   UNL     1       1.547  15.659  18.557  0.00  0.00    +0.000 A 
ATOM     27  C   UNL     1       2.394  14.565  18.354  0.00  0.00    +0.000 A 
ATOM     28  C   UNL     1       1.959  13.270  18.591  0.00  0.00    +0.000 A 
ATOM     29  C   UNL     1       3.726  15.014  17.839  0.00  0.00    +0.000 C 
ATOM     30  C   UNL     1       3.711  16.499  18.236  0.00  0.00    +0.000 C 
ATOM     31  C   UNL     1       2.241  16.940  18.218  0.00  0.00    +0.000 C 
ENDBRANCH  20  23
ENDBRANCH  18  19
ENDBRANCH   1  18
TORSDOF 5
ENDMDL
MODEL 7
REMARK VINA RESULT:      -8.2      0.662      1.127
REMARK  Name = 
REMARK  6 active torsions:
REMARK  status: ('A' for Active; 'I' for Inactive)
REMARK    1  A    between atoms: C_1  and  C_2
REMARK    2  A    between atoms: C_2  and  N_3
REMARK    3  A    between atoms: C_2  and  C_15
REMARK    4  A    between atoms: C_4  and  C_6
REMARK    5  A    between atoms: C_18  and  N_19
REMARK    6  A    between atoms: C_21  and  C_22
REMARK                            x       y       z     vdW  Elec       q    Type
REMARK                         _______ _______ _______ _____ _____    ______ ____
ROOT
ATOM      1  C   UNL     1       2.257   6.165  19.253  0.00  0.00    +0.000 A 
ATOM      2  C   UNL     1       2.276   7.178  18.282  0.00  0.00    +0.000 A 
ATOM      3  C   UNL     1       1.884   8.484  18.593  0.00  0.00    +0.000 A 
ATOM      4  C   UNL     1       1.471   8.799  19.892  0.00  0.00    +0.000 A 
ATOM      5  C   UNL     1       1.424   7.789  20.864  0.00  0.00    +0.000 A 
ATOM      6  C   UNL     1       1.805   6.484  20.543  0.00  0.00    +0.000 A 
ENDROOT
BRANCH   4   7
ATOM      7  N   UNL     1       1.115  10.126  20.248  0.00  0.00    +0.000 N 
ATOM      8  C   UNL     1       0.928  11.215  19.433  0.00  0.00    +0.000 A 
ATOM      9  C   UNL     1       0.629  12.255  20.287  0.00  0.00    +0.000 A 
ATOM     10  N   UNL     1       0.638  11.788  21.575  0.00  0.00    +0.000 NA
ATOM     11  N   UNL     1       0.923  10.493  21.541  0.00  0.00    +0.000 NA
BRANCH   9  12
ATOM     12  C   UNL     1       0.336  13.629  19.927  0.00  0.00    +0.000 C 
ATOM     13  N   UNL     1       1.369  14.503  20.115  0.00  0.00    +0.000 N 
ATOM     14  O   UNL     1      -0.749  14.004  19.492  0.00  0.00    +0.000 OA
ATOM     15  H   UNL     1       2.259  14.187  20.478  0.00  0.00    +0.000 HD
ATOM     16  H   UNL     1       1.222  15.480  19.906  0.00  0.00    +0.000 HD
ENDBRANCH   9  12
ENDBRANCH   4   7
BRANCH   1  18
ATOM     17  C   UNL     1       1.564   3.793  18.770  0.00  0.00    +0.000 C 
ATOM     18  C   UNL     1       2.739   4.769  18.900  0.00  0.00    +0.000 C 
BRANCH  18  19
ATOM     19  N   UNL     1       3.542   4.805  17.687  0.00  0.00    +0.000 N 
ATOM     20  C   UNL     1       4.916   4.673  17.717  0.00  0.00    +0.000 C 
ATOM     21  O   UNL     1       5.552   4.522  18.753  0.00  0.00    +0.000 OA
ATOM     22  H   UNL     1       3.057   4.787  16.804  0.00  0.00    +0.000 HD
BRANCH  20  23
ATOM     23  C   UNL     1       5.623   4.703  16.402  0.00  0.00    +0.000 A 
ATOM     24  C   UNL     1       6.904   5.274  16.255  0.00  0.00    +0.000 A 
ATOM     25  C   UNL     1       7.558   5.257  15.017  0.00  0.00    +0.000 A 
ATOM     26  C   UNL     1       6.928   4.649  13.946  0.00  0.00    +0.000 A 
ATOM     27  C   UNL     1       5.657   4.082  14.082  0.00  0.00    +0.000 A 
ATOM     28  C   UNL     1       4.992   4.101  15.298  0.00  0.00    +0.000 A 
ATOM     29  C   UNL     1       5.178   3.536  12.773  0.00  0.00    +0.000 C 
ATOM     30  C   UNL     1       6.501   3.414  12.001  0.00  0.00    +0.000 C 
ATOM     31  C   UNL     1       7.424   4.515  12.540  0.00  0.00    +0.000 C 
ENDBRANCH  20  23
ENDBRANCH  18  19
ENDBRANCH   1  18
TORSDOF 5
ENDMDL
MODEL 8
REMARK VINA RESULT:      -8.2      1.297      1.430
REMARK  Name = 
REMARK  6 active torsions:
REMARK  status: ('A' for Active; 'I' for Inactive)
REMARK    1  A    between atoms: C_1  and  C_2
REMARK    2  A    between atoms: C_2  and  N_3
REMARK    3  A    between atoms: C_2  and  C_15
REMARK    4  A    between atoms: C_4  and  C_6
REMARK    5  A    between atoms: C_18  and  N_19
REMARK    6  A    between atoms: C_21  and  C_22
REMARK                            x       y       z     vdW  Elec       q    Type
REMARK                         _______ _______ _______ _____ _____    ______ ____
ROOT
ATOM      1  C   UNL     1       2.401   5.925  19.466  0.00  0.00    +0.000 A 
ATOM      2  C   UNL     1       1.778   6.112  20.709  0.00  0.00    +0.000 A 
ATOM      3  C   UNL     1       1.261   7.359  21.077  0.00  0.00    +0.000 A 
ATOM      4  C   UNL     1       1.356   8.443  20.196  0.00  0.00    +0.000 A 
ATOM      5  C   UNL     1       1.999   8.272  18.962  0.00  0.00    +0.000 A 
ATOM      6  C   UNL     1       2.523   7.027  18.606  0.00  0.00    +0.000 A 
ENDROOT
BRANCH   4   7
ATOM      7  N   UNL     1       0.798   9.705  20.523  0.00  0.00    +0.000 N 
ATOM      8  C   UNL     1       0.101  10.074  21.647  0.00  0.00    +0.000 A 
ATOM      9  C   UNL     1      -0.238  11.394  21.442  0.00  0.00    +0.000 A 
ATOM     10  N   UNL     1       0.250  11.794  20.225  0.00  0.00    +0.000 NA
ATOM     11  N   UNL     1       0.886  10.766  19.680  0.00  0.00    +0.000 NA
BRANCH   9  12
ATOM     12  C   UNL     1      -0.978  12.260  22.340  0.00  0.00    +0.000 C 
ATOM     13  N   UNL     1      -0.432  13.498  22.521  0.00  0.00    +0.000 N 
ATOM     14  O   UNL     1      -2.014  11.927  22.909  0.00  0.00    +0.000 OA
ATOM     15  H   UNL     1       0.424  13.765  22.052  0.00  0.00    +0.000 HD
ATOM     16  H   UNL     1      -0.886  14.141  23.154  0.00  0.00    +0.000 HD
ENDBRANCH   9  12
ENDBRANCH   4   7
BRANCH   1  18
ATOM     17  C   UNL     1       1.746   3.549  18.951  0.00  0.00    +0.000 C 
ATOM     18  C   UNL     1       2.904   4.546  19.072  0.00  0.00    +0.000 C 
BRANCH  18  19
ATOM     19  N   UNL     1       3.675   4.625  17.840  0.00  0.00    +0.000 N 
ATOM     20  C   UNL     1       5.046   4.468  17.826  0.00  0.00    +0.000 C 
ATOM     21  O   UNL     1       5.707   4.259  18.836  0.00  0.00    +0.000 OA
ATOM     22  H   UNL     1       3.166   4.655  16.971  0.00  0.00    +0.000 HD
BRANCH  20  23
ATOM     23  C   UNL     1       5.717   4.546  16.494  0.00  0.00    +0.000 A 
ATOM     24  C   UNL     1       7.016   5.074  16.342  0.00  0.00    +0.000 A 
ATOM     25  C   UNL     1       7.636   5.103  15.086  0.00  0.00    +0.000 A 
ATOM     26  C   UNL     1       6.953   4.582  14.002  0.00  0.00    +0.000 A 
ATOM     27  C   UNL     1       5.664   4.058  14.143  0.00  0.00    +0.000 A 
ATOM     28  C   UNL     1       5.034   4.033  15.378  0.00  0.00    +0.000 A 
ATOM     29  C   UNL     1       5.128   3.606  12.820  0.00  0.00    +0.000 C 
ATOM     30  C   UNL     1       6.424   3.478  12.004  0.00  0.00    +0.000 C 
ATOM     31  C   UNL     1       7.405   4.510  12.577  0.00  0.00    +0.000 C 
ENDBRANCH  20  23
ENDBRANCH  18  19
ENDBRANCH   1  18
TORSDOF 5
ENDMDL
MODEL 9
REMARK VINA RESULT:      -8.2      1.104      1.540
REMARK  Name = 
REMARK  6 active torsions:
REMARK  status: ('A' for Active; 'I' for Inactive)
REMARK    1  A    between atoms: C_1  and  C_2
REMARK    2  A    between atoms: C_2  and  N_3
REMARK    3  A    between atoms: C_2  and  C_15
REMARK    4  A    between atoms: C_4  and  C_6
REMARK    5  A    between atoms: C_18  and  N_19
REMARK    6  A    between atoms: C_21  and  C_22
REMARK                            x       y       z     vdW  Elec       q    Type
REMARK                         _______ _______ _______ _____ _____    ______ ____
ROOT
ATOM      1  C   UNL     1       2.349   7.178  19.040  0.00  0.00    +0.000 A 
ATOM      2  C   UNL     1       2.281   7.938  17.862  0.00  0.00    +0.000 A 
ATOM      3  C   UNL     1       1.688   9.206  17.855  0.00  0.00    +0.000 A 
ATOM      4  C   UNL     1       1.159   9.736  19.036  0.00  0.00    +0.000 A 
ATOM      5  C   UNL     1       1.200   8.975  20.212  0.00  0.00    +0.000 A 
ATOM      6  C   UNL     1       1.782   7.705  20.210  0.00  0.00    +0.000 A 
ENDROOT
BRANCH   4   7
ATOM      7  N   UNL     1       0.596  11.039  19.068  0.00  0.00    +0.000 N 
ATOM      8  C   UNL     1       1.216  12.249  18.879  0.00  0.00    +0.000 A 
ATOM      9  C   UNL     1       0.224  13.191  19.048  0.00  0.00    +0.000 A 
ATOM     10  N   UNL     1      -0.954  12.549  19.328  0.00  0.00    +0.000 NA
ATOM     11  N   UNL     1      -0.721  11.243  19.327  0.00  0.00    +0.000 NA
BRANCH   9  12
ATOM     12  C   UNL     1       0.354  14.632  18.945  0.00  0.00    +0.000 C 
ATOM     13  N   UNL     1      -0.828  15.316  18.962  0.00  0.00    +0.000 N 
ATOM     14  O   UNL     1       1.430  15.214  18.845  0.00  0.00    +0.000 OA
ATOM     15  H   UNL     1      -1.711  14.830  19.041  0.00  0.00    +0.000 HD
ATOM     16  H   UNL     1      -0.807  16.322  18.870  0.00  0.00    +0.000 HD
ENDBRANCH   9  12
ENDBRANCH   4   7
BRANCH   1  18
ATOM     17  C   UNL     1       2.049   4.688  19.265  0.00  0.00    +0.000 C 
ATOM     18  C   UNL     1       3.047   5.828  19.030  0.00  0.00    +0.000 C 
BRANCH  18  19
ATOM     19  N   UNL     1       3.781   5.651  17.786  0.00  0.00    +0.000 N 
ATOM     20  C   UNL     1       5.051   5.113  17.759  0.00  0.00    +0.000 C 
ATOM     21  O   UNL     1       5.649   4.755  18.767  0.00  0.00    +0.000 OA
ATOM     22  H   UNL     1       3.282   5.799  16.923  0.00  0.00    +0.000 HD
BRANCH  20  23
ATOM     23  C   UNL     1       5.688   4.959  16.417  0.00  0.00    +0.000 A 
ATOM     24  C   UNL     1       7.019   5.357  16.171  0.00  0.00    +0.000 A 
ATOM     25  C   UNL     1       7.602   5.169  14.912  0.00  0.00    +0.000 A 
ATOM     26  C   UNL     1       6.850   4.567  13.920  0.00  0.00    +0.000 A 
ATOM     27  C   UNL     1       5.529   4.171  14.153  0.00  0.00    +0.000 A 
ATOM     28  C   UNL     1       4.935   4.360  15.392  0.00  0.00    +0.000 A 
ATOM     29  C   UNL     1       4.921   3.593  12.913  0.00  0.00    +0.000 C 
ATOM     30  C   UNL     1       6.178   3.254  12.098  0.00  0.00    +0.000 C 
ATOM     31  C   UNL     1       7.253   4.270  12.510  0.00  0.00    +0.000 C 
ENDBRANCH  20  23
ENDBRANCH  18  19
ENDBRANCH   1  18
TORSDOF 5
ENDMDL
