MODEL 1
REMARK VINA RESULT:      -8.9      0.000      0.000
REMARK  Name = 
REMARK  6 active torsions:
REMARK  status: ('A' for Active; 'I' for Inactive)
REMARK    1  A    between atoms: C_1  and  C_2
REMARK    2  A    between atoms: C_6  and  N_7
REMARK    3  A    between atoms: N_7  and  C_8
REMARK    4  A    between atoms: C_13  and  N_14
REMARK    5  A    between atoms: C_15  and  C_17
REMARK    6  A    between atoms: C_20  and  C_21
REMARK                            x       y       z     vdW  Elec       q    Type
REMARK                         _______ _______ _______ _____ _____    ______ ____
ROOT
ATOM      1  N   UNL     1       3.993   6.281  17.817  0.00  0.00    +0.000 N 
ATOM      2  C   UNL     1       3.360   7.454  17.464  0.00  0.00    +0.000 C 
ATOM      3  O   UNL     1       3.593   8.027  16.400  0.00  0.00    +0.000 OA
ATOM      4  H   UNL     1       3.511   5.644  18.441  0.00  0.00    +0.000 HD
ENDROOT
BRANCH   1  10
ATOM      5  C   UNL     1       4.772   4.196  16.627  0.00  0.00    +0.000 C 
ATOM      6  C   UNL     1       5.909   3.727  15.701  0.00  0.00    +0.000 C 
ATOM      7  O   UNL     1       7.202   4.032  16.236  0.00  0.00    +0.000 OA
ATOM      8  C   UNL     1       7.409   5.433  16.410  0.00  0.00    +0.000 C 
ATOM      9  C   UNL     1       6.402   6.010  17.392  0.00  0.00    +0.000 C 
ATOM     10  C   UNL     1       4.985   5.707  16.912  0.00  0.00    +0.000 C 
BRANCH   5  11
ATOM     11  N   UNL     1       4.749   3.426  17.891  0.00  0.00    +0.000 N 
ATOM     12  H   UNL     1       5.392   2.635  17.932  0.00  0.00    +0.000 HD
BRANCH  11  18
ATOM     13  C   UNL     1       2.125   3.254  21.888  0.00  0.00    +0.000 C 
ATOM     14  C   UNL     1       2.286   2.954  20.428  0.00  0.00    +0.000 A 
ATOM     15  N   UNL     1       1.193   2.498  19.794  0.00  0.00    +0.000 NA
ATOM     16  C   UNL     1       1.300   2.370  18.468  0.00  0.00    +0.000 A 
ATOM     17  C   UNL     1       2.443   2.675  17.770  0.00  0.00    +0.000 A 
ATOM     18  C   UNL     1       3.545   3.079  18.496  0.00  0.00    +0.000 A 
ATOM     19  N   UNL     1       3.469   3.236  19.832  0.00  0.00    +0.000 NA
ENDBRANCH  11  18
ENDBRANCH   5  11
ENDBRANCH   1  10
BRANCH   2  20
ATOM     20  C   UNL     1       2.353   8.005  18.394  0.00  0.00    +0.000 A 
ATOM     21  C   UNL     1       2.199   7.546  19.704  0.00  0.00    +0.000 A 
ATOM     22  C   UNL     1       1.320   8.205  20.577  0.00  0.00    +0.000 A 
ATOM     23  C   UNL     1       0.593   9.342  20.175  0.00  0.00    +0.000 A 
ATOM     24  C   UNL     1       0.748   9.761  18.840  0.00  0.00    +0.000 A 
ATOM     25  C   UNL     1       1.607   9.105  17.961  0.00  0.00    +0.000 A 
BRANCH  23  26
ATOM     26  C   UNL     1      -0.251  10.123  21.114  0.00  0.00    +0.000 A 
ATOM     27  C   UNL     1      -0.400   9.746  22.461  0.00  0.00    +0.000 A 
ATOM     28  C   UNL     1      -1.120  10.537  23.365  0.00  0.00    +0.000 A 
ATOM     29  C   UNL     1      -1.701  11.729  22.944  0.00  0.00    +0.000 A 
ATOM     30  C   UNL     1      -1.587  12.116  21.615  0.00  0.00    +0.000 A 
ATOM     31  C   UNL     1      -0.884  11.314  20.710  0.00  0.00    +0.000 A 
ENDBRANCH  23  26
ENDBRANCH   2  20
TORSDOF 5
ENDMDL
MODEL 2
REMARK VINA RESULT:      -8.8      2.397      4.580
REMARK  Name = 
REMARK  6 active torsions:
REMARK  status: ('A' for Active; 'I' for Inactive)
REMARK    1  A    between atoms: C_1  and  C_2
REMARK    2  A    between atoms: C_6  and  N_7
REMARK    3  A    between atoms: N_7  and  C_8
REMARK    4  A    between atoms: C_13  and  N_14
REMARK    5  A    between atoms: C_15  and  C_17
REMARK    6  A    between atoms: C_20  and  C_21
REMARK                            x       y       z     vdW  Elec       q    Type
REMARK                         _______ _______ _______ _____ _____    ______ ____
ROOT
ATOM      1  N   UNL     1       2.374   5.706  18.800  0.00  0.00    +0.000 N 
ATOM      2  C   UNL     1       1.942   6.473  19.862  0.00  0.00    +0.000 C 
ATOM      3  O   UNL     1       1.710   5.986  20.967  0.00  0.00    +0.000 OA
ATOM      4  H   UNL     1       2.933   6.151  18.082  0.00  0.00    +0.000 HD
ENDROOT
BRANCH   1  10
ATOM      5  C   UNL     1       3.878   3.717  18.411  0.00  0.00    +0.000 C 
ATOM      6  C   UNL     1       3.895   2.195  18.639  0.00  0.00    +0.000 C 
ATOM      7  O   UNL     1       2.733   1.554  18.102  0.00  0.00    +0.000 OA
ATOM      8  C   UNL     1       1.523   2.013  18.704  0.00  0.00    +0.000 C 
ATOM      9  C   UNL     1       1.331   3.502  18.463  0.00  0.00    +0.000 C 
ATOM     10  C   UNL     1       2.544   4.268  18.985  0.00  0.00    +0.000 C 
BRANCH   5  11
ATOM     11  N   UNL     1       4.004   4.052  16.975  0.00  0.00    +0.000 N 
ATOM     12  H   UNL     1       3.667   3.337  16.329  0.00  0.00    +0.000 HD
BRANCH  11  18
ATOM     13  C   UNL     1       7.561   7.197  17.569  0.00  0.00    +0.000 C 
ATOM     14  C   UNL     1       6.868   6.165  16.730  0.00  0.00    +0.000 A 
ATOM     15  N   UNL     1       7.513   5.776  15.618  0.00  0.00    +0.000 NA
ATOM     16  C   UNL     1       6.963   4.756  14.953  0.00  0.00    +0.000 A 
ATOM     17  C   UNL     1       5.810   4.127  15.354  0.00  0.00    +0.000 A 
ATOM     18  C   UNL     1       5.170   4.622  16.472  0.00  0.00    +0.000 A 
ATOM     19  N   UNL     1       5.704   5.637  17.178  0.00  0.00    +0.000 NA
ENDBRANCH  11  18
ENDBRANCH   5  11
ENDBRANCH   1  10
BRANCH   2  20
ATOM     20  C   UNL     1       1.789   7.927  19.648  0.00  0.00    +0.000 A 
ATOM     21  C   UNL     1       2.067   8.549  18.429  0.00  0.00    +0.000 A 
ATOM     22  C   UNL     1       1.769   9.908  18.254  0.00  0.00    +0.000 A 
ATOM     23  C   UNL     1       1.172  10.673  19.275  0.00  0.00    +0.000 A 
ATOM     24  C   UNL     1       0.932  10.024  20.501  0.00  0.00    +0.000 A 
ATOM     25  C   UNL     1       1.238   8.678  20.691  0.00  0.00    +0.000 A 
BRANCH  23  26
ATOM     26  C   UNL     1       0.742  12.079  19.072  0.00  0.00    +0.000 A 
ATOM     27  C   UNL     1      -0.564  12.504  19.380  0.00  0.00    +0.000 A 
ATOM     28  C   UNL     1      -0.937  13.849  19.276  0.00  0.00    +0.000 A 
ATOM     29  C   UNL     1      -0.011  14.803  18.869  0.00  0.00    +0.000 A 
ATOM     30  C   UNL     1       1.280  14.410  18.538  0.00  0.00    +0.000 A 
ATOM     31  C   UNL     1       1.645  13.062  18.625  0.00  0.00    +0.000 A 
ENDBRANCH  23  26
ENDBRANCH   2  20
TORSDOF 5
ENDMDL
MODEL 3
REMARK VINA RESULT:      -8.7      2.592      4.730
REMARK  Name = 
REMARK  6 active torsions:
REMARK  status: ('A' for Active; 'I' for Inactive)
REMARK    1  A    between atoms: C_1  and  C_2
REMARK    2  A    between atoms: C_6  and  N_7
REMARK    3  A    between atoms: N_7  and  C_8
REMARK    4  A    between atoms: C_13  and  N_14
REMARK    5  A    between atoms: C_15  and  C_17
REMARK    6  A    between atoms: C_20  and  C_21
REMARK                            x       y       z     vdW  Elec       q    Type
REMARK                         _______ _______ _______ _____ _____    ______ ____
ROOT
ATOM      1  N   UNL     1       2.186   5.785  18.790  0.00  0.00    +0.000 N 
ATOM      2  C   UNL     1       1.874   6.591  19.865  0.00  0.00    +0.000 C 
ATOM      3  O   UNL     1       1.834   6.158  21.015  0.00  0.00    +0.000 OA
ATOM      4  H   UNL     1       2.607   6.214  17.974  0.00  0.00    +0.000 HD
ENDROOT
BRANCH   1  10
ATOM      5  C   UNL     1       3.848   3.909  18.498  0.00  0.00    +0.000 C 
ATOM      6  C   UNL     1       3.974   2.399  18.768  0.00  0.00    +0.000 C 
ATOM      7  O   UNL     1       2.881   1.658  18.215  0.00  0.00    +0.000 OA
ATOM      8  C   UNL     1       1.622   2.037  18.769  0.00  0.00    +0.000 C 
ATOM      9  C   UNL     1       1.325   3.500  18.483  0.00  0.00    +0.000 C 
ATOM     10  C   UNL     1       2.459   4.370  19.018  0.00  0.00    +0.000 C 
BRANCH   5  11
ATOM     11  N   UNL     1       3.992   4.217  17.058  0.00  0.00    +0.000 N 
ATOM     12  H   UNL     1       3.652   3.495  16.421  0.00  0.00    +0.000 HD
BRANCH  11  18
ATOM     13  C   UNL     1       7.602   7.302  17.646  0.00  0.00    +0.000 C 
ATOM     14  C   UNL     1       6.894   6.277  16.811  0.00  0.00    +0.000 A 
ATOM     15  N   UNL     1       7.537   5.869  15.705  0.00  0.00    +0.000 NA
ATOM     16  C   UNL     1       6.972   4.855  15.044  0.00  0.00    +0.000 A 
ATOM     17  C   UNL     1       5.806   4.249  15.444  0.00  0.00    +0.000 A 
ATOM     18  C   UNL     1       5.170   4.762  16.556  0.00  0.00    +0.000 A 
ATOM     19  N   UNL     1       5.719   5.772  17.257  0.00  0.00    +0.000 NA
ENDBRANCH  11  18
ENDBRANCH   5  11
ENDBRANCH   1  10
BRANCH   2  20
ATOM     20  C   UNL     1       1.612   8.022  19.605  0.00  0.00    +0.000 A 
ATOM     21  C   UNL     1       1.114   8.892  20.578  0.00  0.00    +0.000 A 
ATOM     22  C   UNL     1       1.019  10.264  20.305  0.00  0.00    +0.000 A 
ATOM     23  C   UNL     1       1.431  10.804  19.071  0.00  0.00    +0.000 A 
ATOM     24  C   UNL     1       1.899   9.898  18.101  0.00  0.00    +0.000 A 
ATOM     25  C   UNL     1       1.984   8.530  18.357  0.00  0.00    +0.000 A 
BRANCH  23  26
ATOM     26  C   UNL     1       1.448  12.264  18.805  0.00  0.00    +0.000 A 
ATOM     27  C   UNL     1       0.316  13.069  19.025  0.00  0.00    +0.000 A 
ATOM     28  C   UNL     1       0.365  14.459  18.862  0.00  0.00    +0.000 A 
ATOM     29  C   UNL     1       1.551  15.078  18.483  0.00  0.00    +0.000 A 
ATOM     30  C   UNL     1       2.681  14.306  18.239  0.00  0.00    +0.000 A 
ATOM     31  C   UNL     1       2.623  12.916  18.384  0.00  0.00    +0.000 A 
ENDBRANCH  23  26
ENDBRANCH   2  20
TORSDOF 5
ENDMDL
MODEL 4
REMARK VINA RESULT:      -8.5      3.703      7.089
REMARK  Name = 
REMARK  6 active torsions:
REMARK  status: ('A' for Active; 'I' for Inactive)
REMARK    1  A    between atoms: C_1  and  C_2
REMARK    2  A    between atoms: C_6  and  N_7
REMARK    3  A    between atoms: N_7  and  C_8
REMARK    4  A    between atoms: C_13  and  N_14
REMARK    5  A    between atoms: C_15  and  C_17
REMARK    6  A    between atoms: C_20  and  C_21
REMARK                            x       y       z     vdW  Elec       q    Type
REMARK                         _______ _______ _______ _____ _____    ______ ____
ROOT
ATOM      1  N   UNL     1       4.951   5.269  18.435  0.00  0.00    +0.000 N 
ATOM      2  C   UNL     1       6.029   5.418  17.589  0.00  0.00    +0.000 C 
ATOM      3  O   UNL     1       6.269   4.614  16.690  0.00  0.00    +0.000 OA
ATOM      4  H   UNL     1       4.550   6.101  18.853  0.00  0.00    +0.000 HD
ENDROOT
BRANCH   1  10
ATOM      5  C   UNL     1       2.571   4.432  18.494  0.00  0.00    +0.000 C 
ATOM      6  C   UNL     1       1.784   3.118  18.336  0.00  0.00    +0.000 C 
ATOM      7  O   UNL     1       2.280   2.084  19.192  0.00  0.00    +0.000 OA
ATOM      8  C   UNL     1       3.639   1.746  18.917  0.00  0.00    +0.000 C 
ATOM      9  C   UNL     1       4.548   2.944  19.135  0.00  0.00    +0.000 C 
ATOM     10  C   UNL     1       4.075   4.113  18.275  0.00  0.00    +0.000 C 
BRANCH   5  11
ATOM     11  N   UNL     1       2.356   5.036  19.827  0.00  0.00    +0.000 N 
ATOM     12  H   UNL     1       1.793   4.481  20.472  0.00  0.00    +0.000 HD
BRANCH  11  18
ATOM     13  C   UNL     1       2.050   9.353  17.788  0.00  0.00    +0.000 C 
ATOM     14  C   UNL     1       1.913   8.477  18.996  0.00  0.00    +0.000 A 
ATOM     15  N   UNL     1       1.344   9.041  20.075  0.00  0.00    +0.000 NA
ATOM     16  C   UNL     1       1.092   8.219  21.097  0.00  0.00    +0.000 A 
ATOM     17  C   UNL     1       1.387   6.878  21.078  0.00  0.00    +0.000 A 
ATOM     18  C   UNL     1       2.025   6.381  19.959  0.00  0.00    +0.000 A 
ATOM     19  N   UNL     1       2.279   7.176  18.903  0.00  0.00    +0.000 NA
ENDBRANCH  11  18
ENDBRANCH   5  11
ENDBRANCH   1  10
BRANCH   2  20
ATOM     20  C   UNL     1       6.892   6.604  17.768  0.00  0.00    +0.000 A 
ATOM     21  C   UNL     1       6.681   7.807  17.090  0.00  0.00    +0.000 A 
ATOM     22  C   UNL     1       7.452   8.934  17.409  0.00  0.00    +0.000 A 
ATOM     23  C   UNL     1       8.434   8.897  18.419  0.00  0.00    +0.000 A 
ATOM     24  C   UNL     1       8.643   7.662  19.062  0.00  0.00    +0.000 A 
ATOM     25  C   UNL     1       7.892   6.532  18.742  0.00  0.00    +0.000 A 
BRANCH  23  26
ATOM     26  C   UNL     1       9.179  10.105  18.853  0.00  0.00    +0.000 A 
ATOM     27  C   UNL     1       9.253  10.482  20.206  0.00  0.00    +0.000 A 
ATOM     28  C   UNL     1      10.033  11.568  20.620  0.00  0.00    +0.000 A 
ATOM     29  C   UNL     1      10.766  12.299  19.691  0.00  0.00    +0.000 A 
ATOM     30  C   UNL     1      10.696  11.962  18.345  0.00  0.00    +0.000 A 
ATOM     31  C   UNL     1       9.901  10.889  17.932  0.00  0.00    +0.000 A 
ENDBRANCH  23  26
ENDBRANCH   2  20
TORSDOF 5
ENDMDL
MODEL 5
REMARK VINA RESULT:      -8.5      4.612      9.690
REMARK  Name = 
REMARK  6 active torsions:
REMARK  status: ('A' for Active; 'I' for Inactive)
REMARK    1  A    between atoms: C_1  and  C_2
REMARK    2  A    between atoms: C_6  and  N_7
REMARK    3  A    between atoms: N_7  and  C_8
REMARK    4  A    between atoms: C_13  and  N_14
REMARK    5  A    between atoms: C_15  and  C_17
REMARK    6  A    between atoms: C_20  and  C_21
REMARK                            x       y       z     vdW  Elec       q    Type
REMARK                         _______ _______ _______ _____ _____    ______ ____
ROOT
ATOM      1  N   UNL     1      -0.842  11.266  21.398  0.00  0.00    +0.000 N 
ATOM      2  C   UNL     1       0.070  10.325  21.828  0.00  0.00    +0.000 C 
ATOM      3  O   UNL     1       0.369  10.201  23.015  0.00  0.00    +0.000 OA
ATOM      4  H   UNL     1      -1.360  11.078  20.547  0.00  0.00    +0.000 HD
ENDROOT
BRANCH   1  10
ATOM      5  C   UNL     1      -2.938  12.507  22.054  0.00  0.00    +0.000 C 
ATOM      6  C   UNL     1      -3.438  13.479  23.139  0.00  0.00    +0.000 C 
ATOM      7  O   UNL     1      -2.591  14.626  23.268  0.00  0.00    +0.000 OA
ATOM      8  C   UNL     1      -1.258  14.288  23.648  0.00  0.00    +0.000 C 
ATOM      9  C   UNL     1      -0.607  13.401  22.599  0.00  0.00    +0.000 C 
ATOM     10  C   UNL     1      -1.461  12.156  22.375  0.00  0.00    +0.000 C 
BRANCH   5  11
ATOM     11  N   UNL     1      -3.050  13.100  20.703  0.00  0.00    +0.000 N 
ATOM     12  H   UNL     1      -3.482  14.024  20.665  0.00  0.00    +0.000 HD
BRANCH  11  18
ATOM     13  C   UNL     1      -1.948  10.021  17.210  0.00  0.00    +0.000 C 
ATOM     14  C   UNL     1      -2.955  10.886  17.906  0.00  0.00    +0.000 A 
ATOM     15  N   UNL     1      -4.231  10.745  17.510  0.00  0.00    +0.000 NA
ATOM     16  C   UNL     1      -5.140  11.408  18.230  0.00  0.00    +0.000 A 
ATOM     17  C   UNL     1      -4.821  12.194  19.310  0.00  0.00    +0.000 A 
ATOM     18  C   UNL     1      -3.485  12.340  19.620  0.00  0.00    +0.000 A 
ATOM     19  N   UNL     1      -2.542  11.673  18.928  0.00  0.00    +0.000 NA
ENDBRANCH  11  18
ENDBRANCH   5  11
ENDBRANCH   1  10
BRANCH   2  20
ATOM     20  C   UNL     1       0.673   9.432  20.817  0.00  0.00    +0.000 A 
ATOM     21  C   UNL     1       0.925   9.833  19.503  0.00  0.00    +0.000 A 
ATOM     22  C   UNL     1       1.624   8.982  18.635  0.00  0.00    +0.000 A 
ATOM     23  C   UNL     1       2.103   7.725  19.056  0.00  0.00    +0.000 A 
ATOM     24  C   UNL     1       1.805   7.338  20.376  0.00  0.00    +0.000 A 
ATOM     25  C   UNL     1       1.099   8.170  21.243  0.00  0.00    +0.000 A 
BRANCH  23  26
ATOM     26  C   UNL     1       2.944   6.861  18.191  0.00  0.00    +0.000 A 
ATOM     27  C   UNL     1       4.013   7.383  17.441  0.00  0.00    +0.000 A 
ATOM     28  C   UNL     1       4.861   6.551  16.701  0.00  0.00    +0.000 A 
ATOM     29  C   UNL     1       4.665   5.173  16.701  0.00  0.00    +0.000 A 
ATOM     30  C   UNL     1       3.605   4.631  17.416  0.00  0.00    +0.000 A 
ATOM     31  C   UNL     1       2.748   5.467  18.139  0.00  0.00    +0.000 A 
ENDBRANCH  23  26
ENDBRANCH   2  20
TORSDOF 5
ENDMDL
MODEL 6
REMARK VINA RESULT:      -8.4      3.805      7.051
REMARK  Name = 
REMARK  6 active torsions:
REMARK  status: ('A' for Active; 'I' for Inactive)
REMARK    1  A    between atoms: C_1  and  C_2
REMARK    2  A    between atoms: C_6  and  N_7
REMARK    3  A    between atoms: N_7  and  C_8
REMARK    4  A    between atoms: C_13  and  N_14
REMARK    5  A    between atoms: C_15  and  C_17
REMARK    6  A    between atoms: C_20  and  C_21
REMARK                            x       y       z     vdW  Elec       q    Type
REMARK                         _______ _______ _______ _____ _____    ______ ____
ROOT
ATOM      1  N   UNL     1       5.136   5.271  18.516  0.00  0.00    +0.000 N 
ATOM      2  C   UNL     1       6.132   5.500  17.590  0.00  0.00    +0.000 C 
ATOM      3  O   UNL     1       6.299   4.766  16.616  0.00  0.00    +0.000 OA
ATOM      4  H   UNL     1       4.765   6.063  19.028  0.00  0.00    +0.000 HD
ENDROOT
BRANCH   1  10
ATOM      5  C   UNL     1       2.751   4.466  18.350  0.00  0.00    +0.000 C 
ATOM      6  C   UNL     1       1.962   3.151  18.212  0.00  0.00    +0.000 C 
ATOM      7  O   UNL     1       2.327   2.193  19.212  0.00  0.00    +0.000 OA
ATOM      8  C   UNL     1       3.702   1.818  19.139  0.00  0.00    +0.000 C 
ATOM      9  C   UNL     1       4.602   3.023  19.363  0.00  0.00    +0.000 C 
ATOM     10  C   UNL     1       4.263   4.114  18.350  0.00  0.00    +0.000 C 
BRANCH   5  11
ATOM     11  N   UNL     1       2.385   5.189  19.588  0.00  0.00    +0.000 N 
ATOM     12  H   UNL     1       1.749   4.693  20.212  0.00  0.00    +0.000 HD
BRANCH  11  18
ATOM     13  C   UNL     1       0.851   9.041  21.975  0.00  0.00    +0.000 C 
ATOM     14  C   UNL     1       1.267   8.394  20.689  0.00  0.00    +0.000 A 
ATOM     15  N   UNL     1       1.413   9.212  19.634  0.00  0.00    +0.000 NA
ATOM     16  C   UNL     1       1.922   8.655  18.532  0.00  0.00    +0.000 A 
ATOM     17  C   UNL     1       2.282   7.332  18.451  0.00  0.00    +0.000 A 
ATOM     18  C   UNL     1       2.046   6.539  19.555  0.00  0.00    +0.000 A 
ATOM     19  N   UNL     1       1.551   7.069  20.689  0.00  0.00    +0.000 NA
ENDBRANCH  11  18
ENDBRANCH   5  11
ENDBRANCH   1  10
BRANCH   2  20
ATOM     20  C   UNL     1       6.994   6.685  17.778  0.00  0.00    +0.000 A 
ATOM     21  C   UNL     1       6.810   7.877  17.074  0.00  0.00    +0.000 A 
ATOM     22  C   UNL     1       7.576   9.006  17.400  0.00  0.00    +0.000 A 
ATOM     23  C   UNL     1       8.525   8.982  18.441  0.00  0.00    +0.000 A 
ATOM     24  C   UNL     1       8.707   7.757  19.110  0.00  0.00    +0.000 A 
ATOM     25  C   UNL     1       7.962   6.625  18.785  0.00  0.00    +0.000 A 
BRANCH  23  26
ATOM     26  C   UNL     1       9.260  10.194  18.879  0.00  0.00    +0.000 A 
ATOM     27  C   UNL     1       9.375  10.539  20.238  0.00  0.00    +0.000 A 
ATOM     28  C   UNL     1      10.148  11.630  20.653  0.00  0.00    +0.000 A 
ATOM     29  C   UNL     1      10.833  12.398  19.717  0.00  0.00    +0.000 A 
ATOM     30  C   UNL     1      10.722  12.094  18.366  0.00  0.00    +0.000 A 
ATOM     31  C   UNL     1       9.933  11.015  17.954  0.00  0.00    +0.000 A 
ENDBRANCH  23  26
ENDBRANCH   2  20
TORSDOF 5
ENDMDL
MODEL 7
REMARK VINA RESULT:      -8.4      0.955      1.153
REMARK  Name = 
REMARK  6 active torsions:
REMARK  status: ('A' for Active; 'I' for Inactive)
REMARK    1  A    between atoms: C_1  and  C_2
REMARK    2  A    between atoms: C_6  and  N_7
REMARK    3  A    between atoms: N_7  and  C_8
REMARK    4  A    between atoms: C_13  and  N_14
REMARK    5  A    between atoms: C_15  and  C_17
REMARK    6  A    between atoms: C_20  and  C_21
REMARK                            x       y       z     vdW  Elec       q    Type
REMARK                         _______ _______ _______ _____ _____    ______ ____
ROOT
ATOM      1  N   UNL     1       4.005   6.397  17.998  0.00  0.00    +0.000 N 
ATOM      2  C   UNL     1       3.273   7.480  17.557  0.00  0.00    +0.000 C 
ATOM      3  O   UNL     1       3.406   7.940  16.424  0.00  0.00    +0.000 OA
ATOM      4  H   UNL     1       3.604   5.808  18.719  0.00  0.00    +0.000 HD
ENDROOT
BRANCH   1  10
ATOM      5  C   UNL     1       5.105   4.248  17.265  0.00  0.00    +0.000 C 
ATOM      6  C   UNL     1       6.194   3.757  16.294  0.00  0.00    +0.000 C 
ATOM      7  O   UNL     1       7.432   4.452  16.475  0.00  0.00    +0.000 OA
ATOM      8  C   UNL     1       7.317   5.854  16.236  0.00  0.00    +0.000 C 
ATOM      9  C   UNL     1       6.334   6.488  17.207  0.00  0.00    +0.000 C 
ATOM     10  C   UNL     1       4.982   5.787  17.102  0.00  0.00    +0.000 C 
BRANCH   5  11
ATOM     11  N   UNL     1       5.429   3.897  18.666  0.00  0.00    +0.000 N 
ATOM     12  H   UNL     1       6.287   3.360  18.794  0.00  0.00    +0.000 HD
BRANCH  11  18
ATOM     13  C   UNL     1       0.945   4.251  20.297  0.00  0.00    +0.000 C 
ATOM     14  C   UNL     1       2.298   3.610  20.353  0.00  0.00    +0.000 A 
ATOM     15  N   UNL     1       2.409   2.529  21.143  0.00  0.00    +0.000 NA
ATOM     16  C   UNL     1       3.573   1.877  21.078  0.00  0.00    +0.000 A 
ATOM     17  C   UNL     1       4.612   2.265  20.268  0.00  0.00    +0.000 A 
ATOM     18  C   UNL     1       4.448   3.420  19.530  0.00  0.00    +0.000 A 
ATOM     19  N   UNL     1       3.282   4.094  19.557  0.00  0.00    +0.000 NA
ENDBRANCH  11  18
ENDBRANCH   5  11
ENDBRANCH   1  10
BRANCH   2  20
ATOM     20  C   UNL     1       2.284   8.071  18.482  0.00  0.00    +0.000 A 
ATOM     21  C   UNL     1       2.147   7.660  19.810  0.00  0.00    +0.000 A 
ATOM     22  C   UNL     1       1.286   8.355  20.672  0.00  0.00    +0.000 A 
ATOM     23  C   UNL     1       0.559   9.482  20.240  0.00  0.00    +0.000 A 
ATOM     24  C   UNL     1       0.696   9.852  18.889  0.00  0.00    +0.000 A 
ATOM     25  C   UNL     1       1.538   9.158  18.021  0.00  0.00    +0.000 A 
BRANCH  23  26
ATOM     26  C   UNL     1      -0.266  10.301  21.163  0.00  0.00    +0.000 A 
ATOM     27  C   UNL     1      -0.575   9.864  22.464  0.00  0.00    +0.000 A 
ATOM     28  C   UNL     1      -1.273  10.680  23.362  0.00  0.00    +0.000 A 
ATOM     29  C   UNL     1      -1.671  11.958  22.983  0.00  0.00    +0.000 A 
ATOM     30  C   UNL     1      -1.397  12.409  21.698  0.00  0.00    +0.000 A 
ATOM     31  C   UNL     1      -0.717  11.584  20.797  0.00  0.00    +0.000 A 
ENDBRANCH  23  26
ENDBRANCH   2  20
TORSDOF 5
ENDMDL
MODEL 8
REMARK VINA RESULT:      -8.4      0.671      1.481
REMARK  Name = 
REMARK  6 active torsions:
REMARK  status: ('A' for Active; 'I' for Inactive)
REMARK    1  A    between atoms: C_1  and  C_2
REMARK    2  A    between atoms: C_6  and  N_7
REMARK    3  A    between atoms: N_7  and  C_8
REMARK    4  A    between atoms: C_13  and  N_14
REMARK    5  A    between atoms: C_15  and  C_17
REMARK    6  A    between atoms: C_20  and  C_21
REMARK                            x       y       z     vdW  Elec       q    Type
REMARK                         _______ _______ _______ _____ _____    ______ ____
ROOT
ATOM      1  N   UNL     1       4.038   6.325  17.844  0.00  0.00    +0.000 N 
ATOM      2  C   UNL     1       3.342   7.447  17.446  0.00  0.00    +0.000 C 
ATOM      3  O   UNL     1       3.490   7.946  16.331  0.00  0.00    +0.000 OA
ATOM      4  H   UNL     1       3.619   5.722  18.542  0.00  0.00    +0.000 HD
ENDROOT
BRANCH   1  10
ATOM      5  C   UNL     1       4.976   4.166  16.935  0.00  0.00    +0.000 C 
ATOM      6  C   UNL     1       6.059   3.675  15.957  0.00  0.00    +0.000 C 
ATOM      7  O   UNL     1       7.344   4.234  16.248  0.00  0.00    +0.000 OA
ATOM      8  C   UNL     1       7.362   5.657  16.147  0.00  0.00    +0.000 C 
ATOM      9  C   UNL     1       6.397   6.280  17.144  0.00  0.00    +0.000 C 
ATOM     10  C   UNL     1       4.995   5.718  16.924  0.00  0.00    +0.000 C 
BRANCH   5  11
ATOM     11  N   UNL     1       5.209   3.653  18.303  0.00  0.00    +0.000 N 
ATOM     12  H   UNL     1       5.976   2.986  18.395  0.00  0.00    +0.000 HD
BRANCH  11  18
ATOM     13  C   UNL     1       0.526   2.750  18.683  0.00  0.00    +0.000 C 
ATOM     14  C   UNL     1       1.882   2.854  19.314  0.00  0.00    +0.000 A 
ATOM     15  N   UNL     1       1.981   2.416  20.579  0.00  0.00    +0.000 NA
ATOM     16  C   UNL     1       3.217   2.376  21.086  0.00  0.00    +0.000 A 
ATOM     17  C   UNL     1       4.334   2.756  20.383  0.00  0.00    +0.000 A 
ATOM     18  C   UNL     1       4.147   3.253  19.110  0.00  0.00    +0.000 A 
ATOM     19  N   UNL     1       2.919   3.292  18.560  0.00  0.00    +0.000 NA
ENDBRANCH  11  18
ENDBRANCH   5  11
ENDBRANCH   1  10
BRANCH   2  20
ATOM     20  C   UNL     1       2.373   8.033  18.394  0.00  0.00    +0.000 A 
ATOM     21  C   UNL     1       2.219   7.572  19.704  0.00  0.00    +0.000 A 
ATOM     22  C   UNL     1       1.381   8.262  20.593  0.00  0.00    +0.000 A 
ATOM     23  C   UNL     1       0.694   9.430  20.208  0.00  0.00    +0.000 A 
ATOM     24  C   UNL     1       0.847   9.851  18.874  0.00  0.00    +0.000 A 
ATOM     25  C   UNL     1       1.666   9.165  17.978  0.00  0.00    +0.000 A 
BRANCH  23  26
ATOM     26  C   UNL     1      -0.103  10.239  21.164  0.00  0.00    +0.000 A 
ATOM     27  C   UNL     1      -0.723  11.441  20.777  0.00  0.00    +0.000 A 
ATOM     28  C   UNL     1      -1.551  12.151  21.655  0.00  0.00    +0.000 A 
ATOM     29  C   UNL     1      -1.785  11.670  22.940  0.00  0.00    +0.000 A 
ATOM     30  C   UNL     1      -1.169  10.496  23.356  0.00  0.00    +0.000 A 
ATOM     31  C   UNL     1      -0.328   9.800  22.483  0.00  0.00    +0.000 A 
ENDBRANCH  23  26
ENDBRANCH   2  20
TORSDOF 5
ENDMDL
MODEL 9
REMARK VINA RESULT:      -8.3      2.705      4.938
REMARK  Name = 
REMARK  6 active torsions:
REMARK  status: ('A' for Active; 'I' for Inactive)
REMARK    1  A    between atoms: C_1  and  C_2
REMARK    2  A    between atoms: C_6  and  N_7
REMARK    3  A    between atoms: N_7  and  C_8
REMARK    4  A    between atoms: C_13  and  N_14
REMARK    5  A    between atoms: C_15  and  C_17
REMARK    6  A    between atoms: C_20  and  C_21
REMARK                            x       y       z     vdW  Elec       q    Type
REMARK                         _______ _______ _______ _____ _____    ______ ____
ROOT
ATOM      1  N   UNL     1       2.331   5.927  19.077  0.00  0.00    +0.000 N 
ATOM      2  C   UNL     1       1.734   6.717  20.037  0.00  0.00    +0.000 C 
ATOM      3  O   UNL     1       1.413   6.275  21.139  0.00  0.00    +0.000 OA
ATOM      4  H   UNL     1       2.935   6.373  18.397  0.00  0.00    +0.000 HD
ENDROOT
BRANCH   1  10
ATOM      5  C   UNL     1       3.894   3.973  18.755  0.00  0.00    +0.000 C 
ATOM      6  C   UNL     1       3.991   2.476  19.105  0.00  0.00    +0.000 C 
ATOM      7  O   UNL     1       2.827   1.749  18.697  0.00  0.00    +0.000 OA
ATOM      8  C   UNL     1       1.638   2.210  19.337  0.00  0.00    +0.000 C 
ATOM      9  C   UNL     1       1.367   3.664  18.988  0.00  0.00    +0.000 C 
ATOM     10  C   UNL     1       2.575   4.518  19.367  0.00  0.00    +0.000 C 
BRANCH   5  11
ATOM     11  N   UNL     1       3.917   4.190  17.291  0.00  0.00    +0.000 N 
ATOM     12  H   UNL     1       3.435   3.482  16.737  0.00  0.00    +0.000 HD
BRANCH  11  18
ATOM     13  C   UNL     1       6.575   4.050  13.316  0.00  0.00    +0.000 C 
ATOM     14  C   UNL     1       6.397   4.475  14.742  0.00  0.00    +0.000 A 
ATOM     15  N   UNL     1       7.326   5.312  15.231  0.00  0.00    +0.000 NA
ATOM     16  C   UNL     1       7.086   5.801  16.451  0.00  0.00    +0.000 A 
ATOM     17  C   UNL     1       5.968   5.484  17.184  0.00  0.00    +0.000 A 
ATOM     18  C   UNL     1       5.088   4.571  16.642  0.00  0.00    +0.000 A 
ATOM     19  N   UNL     1       5.289   4.071  15.408  0.00  0.00    +0.000 NA
ENDBRANCH  11  18
ENDBRANCH   5  11
ENDBRANCH   1  10
BRANCH   2  20
ATOM     20  C   UNL     1       1.509   8.142  19.720  0.00  0.00    +0.000 A 
ATOM     21  C   UNL     1       0.943   9.042  20.627  0.00  0.00    +0.000 A 
ATOM     22  C   UNL     1       0.885  10.407  20.312  0.00  0.00    +0.000 A 
ATOM     23  C   UNL     1       1.401  10.911  19.102  0.00  0.00    +0.000 A 
ATOM     24  C   UNL     1       1.936   9.975  18.197  0.00  0.00    +0.000 A 
ATOM     25  C   UNL     1       1.986   8.614  18.494  0.00  0.00    +0.000 A 
BRANCH  23  26
ATOM     26  C   UNL     1       1.455  12.363  18.800  0.00  0.00    +0.000 A 
ATOM     27  C   UNL     1       0.362  13.212  19.053  0.00  0.00    +0.000 A 
ATOM     28  C   UNL     1       0.451  14.595  18.854  0.00  0.00    +0.000 A 
ATOM     29  C   UNL     1       1.639  15.164  18.406  0.00  0.00    +0.000 A 
ATOM     30  C   UNL     1       2.728  14.348  18.129  0.00  0.00    +0.000 A 
ATOM     31  C   UNL     1       2.631  12.964  18.310  0.00  0.00    +0.000 A 
ENDBRANCH  23  26
ENDBRANCH   2  20
TORSDOF 5
ENDMDL
