MODEL 1
REMARK VINA RESULT:      -8.7      0.000      0.000
REMARK  Name = 
REMARK  8 active torsions:
REMARK  status: ('A' for Active; 'I' for Inactive)
REMARK    1  A    between atoms: C_1  and  N_2
REMARK    2  A    between atoms: C_6  and  C_7
REMARK    3  A    between atoms: C_7  and  C_8
REMARK    4  A    between atoms: C_8  and  C_9
REMARK    5  A    between atoms: C_13  and  N_14
REMARK    6  A    between atoms: C_17  and  C_18
REMARK    7  A    between atoms: C_18  and  C_19
REMARK    8  A    between atoms: C_19  and  C_20
REMARK                            x       y       z     vdW  Elec       q    Type
REMARK                         _______ _______ _______ _____ _____    ______ ____
ROOT
ATOM      1  C   UNL     1       4.563   4.835  17.187  0.00  0.00    +0.000 A 
ATOM      2  C   UNL     1       3.734   3.711  17.037  0.00  0.00    +0.000 A 
ATOM      3  C   UNL     1       2.428   3.699  17.524  0.00  0.00    +0.000 A 
ATOM      4  C   UNL     1       1.906   4.821  18.170  0.00  0.00    +0.000 A 
ATOM      5  C   UNL     1       2.672   5.979  18.317  0.00  0.00    +0.000 A 
ATOM      6  C   UNL     1       3.981   5.960  17.809  0.00  0.00    +0.000 A 
ENDROOT
BRANCH   5   7
ATOM      7  N   UNL     1       2.191   7.138  18.976  0.00  0.00    +0.000 N 
ATOM      8  C   UNL     1       1.832   7.129  20.374  0.00  0.00    +0.000 C 
ATOM      9  C   UNL     1       1.314   8.503  20.575  0.00  0.00    +0.000 C 
ATOM     10  C   UNL     1       1.381   9.248  19.469  0.00  0.00    +0.000 C 
ATOM     11  C   UNL     1       1.985   8.395  18.413  0.00  0.00    +0.000 C 
ATOM     12  O   UNL     1       2.207   8.806  17.288  0.00  0.00    +0.000 OA
BRANCH  10  13
ATOM     13  C   UNL     1       0.965  10.657  19.260  0.00  0.00    +0.000 C 
BRANCH  13  14
ATOM     14  C   UNL     1      -0.382  10.784  18.548  0.00  0.00    +0.000 C 
BRANCH  14  15
ATOM     15  C   UNL     1      -1.060  12.104  18.853  0.00  0.00    +0.000 C 
ATOM     16  F   UNL     1      -0.420  12.811  19.808  0.00  0.00    +0.000 F 
ATOM     17  F   UNL     1      -1.134  12.879  17.751  0.00  0.00    +0.000 F 
ATOM     18  F   UNL     1      -2.327  11.896  19.288  0.00  0.00    +0.000 F 
ENDBRANCH  14  15
ENDBRANCH  13  14
ENDBRANCH  10  13
ENDBRANCH   5   7
BRANCH   1  19
ATOM     19  C   UNL     1       6.103   4.854  16.728  0.00  0.00    +0.000 C 
ATOM     20  C   UNL     1       6.803   6.243  16.618  0.00  0.00    +0.000 C 
ATOM     21  O   UNL     1       7.770   5.906  17.634  0.00  0.00    +0.000 OA
ATOM     22  C   UNL     1       7.145   4.631  17.862  0.00  0.00    +0.000 C 
BRANCH  19  23
ATOM     23  C   UNL     1       6.338   3.914  15.529  0.00  0.00    +0.000 C 
BRANCH  23  29
ATOM     24  C   UNL     1       5.811   3.329  12.463  0.00  0.00    +0.000 C 
ATOM     25  N   UNL     1       6.744   4.267  13.024  0.00  0.00    +0.000 N 
ATOM     26  C   UNL     1       7.610   5.032  12.303  0.00  0.00    +0.000 A 
ATOM     27  N   UNL     1       8.303   5.794  13.116  0.00  0.00    +0.000 NA
ATOM     28  N   UNL     1       7.903   5.505  14.397  0.00  0.00    +0.000 NA
ATOM     29  C   UNL     1       6.972   4.573  14.346  0.00  0.00    +0.000 A 
ENDBRANCH  23  29
ENDBRANCH  19  23
ENDBRANCH   1  19
TORSDOF 7
ENDMDL
MODEL 2
REMARK VINA RESULT:      -8.7      1.009      1.353
REMARK  Name = 
REMARK  8 active torsions:
REMARK  status: ('A' for Active; 'I' for Inactive)
REMARK    1  A    between atoms: C_1  and  N_2
REMARK    2  A    between atoms: C_6  and  C_7
REMARK    3  A    between atoms: C_7  and  C_8
REMARK    4  A    between atoms: C_8  and  C_9
REMARK    5  A    between atoms: C_13  and  N_14
REMARK    6  A    between atoms: C_17  and  C_18
REMARK    7  A    between atoms: C_18  and  C_19
REMARK    8  A    between atoms: C_19  and  C_20
REMARK                            x       y       z     vdW  Elec       q    Type
REMARK                         _______ _______ _______ _____ _____    ______ ____
ROOT
ATOM      1  C   UNL     1       4.521   4.877  17.209  0.00  0.00    +0.000 A 
ATOM      2  C   UNL     1       3.680   3.767  17.018  0.00  0.00    +0.000 A 
ATOM      3  C   UNL     1       2.369   3.756  17.490  0.00  0.00    +0.000 A 
ATOM      4  C   UNL     1       1.852   4.865  18.163  0.00  0.00    +0.000 A 
ATOM      5  C   UNL     1       2.630   6.010  18.350  0.00  0.00    +0.000 A 
ATOM      6  C   UNL     1       3.944   5.990  17.856  0.00  0.00    +0.000 A 
ENDROOT
BRANCH   5   7
ATOM      7  N   UNL     1       2.155   7.154  19.038  0.00  0.00    +0.000 N 
ATOM      8  C   UNL     1       1.848   7.128  20.447  0.00  0.00    +0.000 C 
ATOM      9  C   UNL     1       1.315   8.492  20.680  0.00  0.00    +0.000 C 
ATOM     10  C   UNL     1       1.328   9.246  19.579  0.00  0.00    +0.000 C 
ATOM     11  C   UNL     1       1.907   8.413  18.494  0.00  0.00    +0.000 C 
ATOM     12  O   UNL     1       2.079   8.836  17.364  0.00  0.00    +0.000 OA
BRANCH  10  13
ATOM     13  C   UNL     1       0.880  10.650  19.397  0.00  0.00    +0.000 C 
BRANCH  13  14
ATOM     14  C   UNL     1      -0.480  10.932  20.033  0.00  0.00    +0.000 C 
BRANCH  14  15
ATOM     15  C   UNL     1      -0.351  11.730  21.314  0.00  0.00    +0.000 C 
ATOM     16  F   UNL     1      -1.353  12.619  21.478  0.00  0.00    +0.000 F 
ATOM     17  F   UNL     1      -0.343  10.921  22.394  0.00  0.00    +0.000 F 
ATOM     18  F   UNL     1       0.811  12.428  21.322  0.00  0.00    +0.000 F 
ENDBRANCH  14  15
ENDBRANCH  13  14
ENDBRANCH  10  13
ENDBRANCH   5   7
BRANCH   1  19
ATOM     19  C   UNL     1       6.066   4.891  16.767  0.00  0.00    +0.000 C 
ATOM     20  C   UNL     1       6.764   6.280  16.642  0.00  0.00    +0.000 C 
ATOM     21  O   UNL     1       7.720   5.961  17.674  0.00  0.00    +0.000 OA
ATOM     22  C   UNL     1       7.095   4.689  17.917  0.00  0.00    +0.000 C 
BRANCH  19  23
ATOM     23  C   UNL     1       6.316   3.931  15.587  0.00  0.00    +0.000 C 
BRANCH  23  29
ATOM     24  C   UNL     1       5.712   3.361  12.532  0.00  0.00    +0.000 C 
ATOM     25  N   UNL     1       6.677   4.277  13.074  0.00  0.00    +0.000 N 
ATOM     26  C   UNL     1       7.545   5.024  12.335  0.00  0.00    +0.000 A 
ATOM     27  N   UNL     1       8.271   5.769  13.134  0.00  0.00    +0.000 NA
ATOM     28  N   UNL     1       7.892   5.488  14.423  0.00  0.00    +0.000 NA
ATOM     29  C   UNL     1       6.940   4.577  14.391  0.00  0.00    +0.000 A 
ENDBRANCH  23  29
ENDBRANCH  19  23
ENDBRANCH   1  19
TORSDOF 7
ENDMDL
MODEL 3
REMARK VINA RESULT:      -8.6      4.355      5.805
REMARK  Name = 
REMARK  8 active torsions:
REMARK  status: ('A' for Active; 'I' for Inactive)
REMARK    1  A    between atoms: C_1  and  N_2
REMARK    2  A    between atoms: C_6  and  C_7
REMARK    3  A    between atoms: C_7  and  C_8
REMARK    4  A    between atoms: C_8  and  C_9
REMARK    5  A    between atoms: C_13  and  N_14
REMARK    6  A    between atoms: C_17  and  C_18
REMARK    7  A    between atoms: C_18  and  C_19
REMARK    8  A    between atoms: C_19  and  C_20
REMARK                            x       y       z     vdW  Elec       q    Type
REMARK                         _______ _______ _______ _____ _____    ______ ____
ROOT
ATOM      1  C   UNL     1       2.446   7.479  18.975  0.00  0.00    +0.000 A 
ATOM      2  C   UNL     1       2.484   8.238  17.794  0.00  0.00    +0.000 A 
ATOM      3  C   UNL     1       1.847   9.474  17.702  0.00  0.00    +0.000 A 
ATOM      4  C   UNL     1       1.156   9.995  18.797  0.00  0.00    +0.000 A 
ATOM      5  C   UNL     1       1.114   9.301  20.008  0.00  0.00    +0.000 A 
ATOM      6  C   UNL     1       1.772   8.062  20.069  0.00  0.00    +0.000 A 
ENDROOT
BRANCH   5   7
ATOM      7  N   UNL     1       0.414   9.782  21.143  0.00  0.00    +0.000 N 
ATOM      8  C   UNL     1       0.073   8.924  22.252  0.00  0.00    +0.000 C 
ATOM      9  C   UNL     1      -0.709   9.833  23.125  0.00  0.00    +0.000 C 
ATOM     10  C   UNL     1      -0.800  11.070  22.632  0.00  0.00    +0.000 C 
ATOM     11  C   UNL     1      -0.043  11.081  21.354  0.00  0.00    +0.000 C 
ATOM     12  O   UNL     1       0.084  12.086  20.677  0.00  0.00    +0.000 OA
BRANCH  10  13
ATOM     13  C   UNL     1      -1.492  12.257  23.196  0.00  0.00    +0.000 C 
BRANCH  13  14
ATOM     14  C   UNL     1      -2.974  12.316  22.828  0.00  0.00    +0.000 C 
BRANCH  14  15
ATOM     15  C   UNL     1      -3.815  12.871  23.959  0.00  0.00    +0.000 C 
ATOM     16  F   UNL     1      -3.150  13.774  24.710  0.00  0.00    +0.000 F 
ATOM     17  F   UNL     1      -4.927  13.472  23.488  0.00  0.00    +0.000 F 
ATOM     18  F   UNL     1      -4.213  11.874  24.786  0.00  0.00    +0.000 F 
ENDBRANCH  14  15
ENDBRANCH  13  14
ENDBRANCH  10  13
ENDBRANCH   5   7
BRANCH   1  19
ATOM     19  C   UNL     1       3.084   6.008  19.092  0.00  0.00    +0.000 C 
ATOM     20  C   UNL     1       3.345   5.231  17.766  0.00  0.00    +0.000 C 
ATOM     21  O   UNL     1       4.766   5.176  18.006  0.00  0.00    +0.000 OA
ATOM     22  C   UNL     1       4.635   5.956  19.207  0.00  0.00    +0.000 C 
BRANCH  19  23
ATOM     23  C   UNL     1       2.390   5.187  20.198  0.00  0.00    +0.000 C 
BRANCH  23  29
ATOM     24  C   UNL     1       3.982   2.451  20.194  0.00  0.00    +0.000 C 
ATOM     25  N   UNL     1       2.640   2.680  19.734  0.00  0.00    +0.000 N 
ATOM     26  C   UNL     1       1.842   1.739  19.157  0.00  0.00    +0.000 A 
ATOM     27  N   UNL     1       0.674   2.268  18.875  0.00  0.00    +0.000 NA
ATOM     28  N   UNL     1       0.716   3.588  19.249  0.00  0.00    +0.000 NA
ATOM     29  C   UNL     1       1.906   3.844  19.755  0.00  0.00    +0.000 A 
ENDBRANCH  23  29
ENDBRANCH  19  23
ENDBRANCH   1  19
TORSDOF 7
ENDMDL
MODEL 4
REMARK VINA RESULT:      -8.6      1.586      2.139
REMARK  Name = 
REMARK  8 active torsions:
REMARK  status: ('A' for Active; 'I' for Inactive)
REMARK    1  A    between atoms: C_1  and  N_2
REMARK    2  A    between atoms: C_6  and  C_7
REMARK    3  A    between atoms: C_7  and  C_8
REMARK    4  A    between atoms: C_8  and  C_9
REMARK    5  A    between atoms: C_13  and  N_14
REMARK    6  A    between atoms: C_17  and  C_18
REMARK    7  A    between atoms: C_18  and  C_19
REMARK    8  A    between atoms: C_19  and  C_20
REMARK                            x       y       z     vdW  Elec       q    Type
REMARK                         _______ _______ _______ _____ _____    ______ ____
ROOT
ATOM      1  C   UNL     1       5.455   5.533  18.635  0.00  0.00    +0.000 A 
ATOM      2  C   UNL     1       4.975   4.349  19.220  0.00  0.00    +0.000 A 
ATOM      3  C   UNL     1       3.669   4.250  19.698  0.00  0.00    +0.000 A 
ATOM      4  C   UNL     1       2.797   5.335  19.595  0.00  0.00    +0.000 A 
ATOM      5  C   UNL     1       3.208   6.524  18.991  0.00  0.00    +0.000 A 
ATOM      6  C   UNL     1       4.527   6.588  18.514  0.00  0.00    +0.000 A 
ENDROOT
BRANCH   5   7
ATOM      7  N   UNL     1       2.363   7.656  18.875  0.00  0.00    +0.000 N 
ATOM      8  C   UNL     1       2.236   8.394  17.641  0.00  0.00    +0.000 C 
ATOM      9  C   UNL     1       1.341   9.509  18.031  0.00  0.00    +0.000 C 
ATOM     10  C   UNL     1       0.954   9.439  19.307  0.00  0.00    +0.000 C 
ATOM     11  C   UNL     1       1.575   8.217  19.878  0.00  0.00    +0.000 C 
ATOM     12  O   UNL     1       1.383   7.861  21.027  0.00  0.00    +0.000 OA
BRANCH  10  13
ATOM     13  C   UNL     1       0.071  10.356  20.072  0.00  0.00    +0.000 C 
BRANCH  13  14
ATOM     14  C   UNL     1      -0.460  11.516  19.230  0.00  0.00    +0.000 C 
BRANCH  14  15
ATOM     15  C   UNL     1      -1.771  11.170  18.554  0.00  0.00    +0.000 C 
ATOM     16  F   UNL     1      -2.049   9.850  18.600  0.00  0.00    +0.000 F 
ATOM     17  F   UNL     1      -2.802  11.824  19.127  0.00  0.00    +0.000 F 
ATOM     18  F   UNL     1      -1.739  11.528  17.248  0.00  0.00    +0.000 F 
ENDBRANCH  14  15
ENDBRANCH  13  14
ENDBRANCH  10  13
ENDBRANCH   5   7
BRANCH   1  19
ATOM     19  C   UNL     1       6.980   5.720  18.162  0.00  0.00    +0.000 C 
ATOM     20  C   UNL     1       7.403   7.127  17.640  0.00  0.00    +0.000 C 
ATOM     21  O   UNL     1       8.375   7.293  18.692  0.00  0.00    +0.000 OA
ATOM     22  C   UNL     1       8.000   6.041  19.292  0.00  0.00    +0.000 C 
BRANCH  19  23
ATOM     23  C   UNL     1       7.438   4.538  17.283  0.00  0.00    +0.000 C 
BRANCH  23  29
ATOM     24  C   UNL     1       4.838   3.358  15.916  0.00  0.00    +0.000 C 
ATOM     25  N   UNL     1       5.904   4.085  15.282  0.00  0.00    +0.000 N 
ATOM     26  C   UNL     1       5.988   4.338  13.946  0.00  0.00    +0.000 A 
ATOM     27  N   UNL     1       7.069   5.041  13.701  0.00  0.00    +0.000 NA
ATOM     28  N   UNL     1       7.720   5.231  14.895  0.00  0.00    +0.000 NA
ATOM     29  C   UNL     1       7.027   4.643  15.850  0.00  0.00    +0.000 A 
ENDBRANCH  23  29
ENDBRANCH  19  23
ENDBRANCH   1  19
TORSDOF 7
ENDMDL
MODEL 5
REMARK VINA RESULT:      -8.5      3.941      5.595
REMARK  Name = 
REMARK  8 active torsions:
REMARK  status: ('A' for Active; 'I' for Inactive)
REMARK    1  A    between atoms: C_1  and  N_2
REMARK    2  A    between atoms: C_6  and  C_7
REMARK    3  A    between atoms: C_7  and  C_8
REMARK    4  A    between atoms: C_8  and  C_9
REMARK    5  A    between atoms: C_13  and  N_14
REMARK    6  A    between atoms: C_17  and  C_18
REMARK    7  A    between atoms: C_18  and  C_19
REMARK    8  A    between atoms: C_19  and  C_20
REMARK                            x       y       z     vdW  Elec       q    Type
REMARK                         _______ _______ _______ _____ _____    ______ ____
ROOT
ATOM      1  C   UNL     1       2.534   7.303  18.609  0.00  0.00    +0.000 A 
ATOM      2  C   UNL     1       2.552   8.170  17.503  0.00  0.00    +0.000 A 
ATOM      3  C   UNL     1       1.967   9.434  17.558  0.00  0.00    +0.000 A 
ATOM      4  C   UNL     1       1.351   9.875  18.731  0.00  0.00    +0.000 A 
ATOM      5  C   UNL     1       1.334   9.071  19.872  0.00  0.00    +0.000 A 
ATOM      6  C   UNL     1       1.938   7.807  19.785  0.00  0.00    +0.000 A 
ENDROOT
BRANCH   5   7
ATOM      7  N   UNL     1       0.709   9.470  21.080  0.00  0.00    +0.000 N 
ATOM      8  C   UNL     1       1.083   8.909  22.356  0.00  0.00    +0.000 C 
ATOM      9  C   UNL     1       0.117   9.551  23.279  0.00  0.00    +0.000 C 
ATOM     10  C   UNL     1      -0.702  10.403  22.658  0.00  0.00    +0.000 C 
ATOM     11  C   UNL     1      -0.316  10.402  21.223  0.00  0.00    +0.000 C 
ATOM     12  O   UNL     1      -0.865  11.109  20.397  0.00  0.00    +0.000 OA
BRANCH  10  13
ATOM     13  C   UNL     1      -1.797  11.232  23.221  0.00  0.00    +0.000 C 
BRANCH  13  14
ATOM     14  C   UNL     1      -1.499  12.730  23.172  0.00  0.00    +0.000 C 
BRANCH  14  15
ATOM     15  C   UNL     1      -2.602  13.505  22.480  0.00  0.00    +0.000 C 
ATOM     16  F   UNL     1      -3.348  12.732  21.662  0.00  0.00    +0.000 F 
ATOM     17  F   UNL     1      -3.436  14.071  23.378  0.00  0.00    +0.000 F 
ATOM     18  F   UNL     1      -2.080  14.502  21.726  0.00  0.00    +0.000 F 
ENDBRANCH  14  15
ENDBRANCH  13  14
ENDBRANCH  10  13
ENDBRANCH   5   7
BRANCH   1  19
ATOM     19  C   UNL     1       3.111   5.804  18.556  0.00  0.00    +0.000 C 
ATOM     20  C   UNL     1       4.053   5.438  17.369  0.00  0.00    +0.000 C 
ATOM     21  O   UNL     1       5.157   5.154  18.252  0.00  0.00    +0.000 OA
ATOM     22  C   UNL     1       4.391   5.546  19.403  0.00  0.00    +0.000 C 
BRANCH  19  23
ATOM     23  C   UNL     1       2.003   4.772  18.847  0.00  0.00    +0.000 C 
BRANCH  23  29
ATOM     24  C   UNL     1       3.432   1.955  19.056  0.00  0.00    +0.000 C 
ATOM     25  N   UNL     1       2.831   2.710  20.121  0.00  0.00    +0.000 N 
ATOM     26  C   UNL     1       2.732   2.291  21.414  0.00  0.00    +0.000 A 
ATOM     27  N   UNL     1       2.151   3.223  22.133  0.00  0.00    +0.000 NA
ATOM     28  N   UNL     1       1.840   4.262  21.291  0.00  0.00    +0.000 NA
ATOM     29  C   UNL     1       2.236   3.949  20.073  0.00  0.00    +0.000 A 
ENDBRANCH  23  29
ENDBRANCH  19  23
ENDBRANCH   1  19
TORSDOF 7
ENDMDL
MODEL 6
REMARK VINA RESULT:      -8.5      0.986      1.477
REMARK  Name = 
REMARK  8 active torsions:
REMARK  status: ('A' for Active; 'I' for Inactive)
REMARK    1  A    between atoms: C_1  and  N_2
REMARK    2  A    between atoms: C_6  and  C_7
REMARK    3  A    between atoms: C_7  and  C_8
REMARK    4  A    between atoms: C_8  and  C_9
REMARK    5  A    between atoms: C_13  and  N_14
REMARK    6  A    between atoms: C_17  and  C_18
REMARK    7  A    between atoms: C_18  and  C_19
REMARK    8  A    between atoms: C_19  and  C_20
REMARK                            x       y       z     vdW  Elec       q    Type
REMARK                         _______ _______ _______ _____ _____    ______ ____
ROOT
ATOM      1  C   UNL     1       4.545   4.881  17.189  0.00  0.00    +0.000 A 
ATOM      2  C   UNL     1       3.709   3.765  17.021  0.00  0.00    +0.000 A 
ATOM      3  C   UNL     1       2.397   3.760  17.494  0.00  0.00    +0.000 A 
ATOM      4  C   UNL     1       1.877   4.881  18.144  0.00  0.00    +0.000 A 
ATOM      5  C   UNL     1       2.651   6.031  18.307  0.00  0.00    +0.000 A 
ATOM      6  C   UNL     1       3.965   6.005  17.813  0.00  0.00    +0.000 A 
ENDROOT
BRANCH   5   7
ATOM      7  N   UNL     1       2.173   7.189  18.971  0.00  0.00    +0.000 N 
ATOM      8  C   UNL     1       1.840   7.183  20.375  0.00  0.00    +0.000 C 
ATOM      9  C   UNL     1       1.314   8.554  20.580  0.00  0.00    +0.000 C 
ATOM     10  C   UNL     1       1.352   9.293  19.469  0.00  0.00    +0.000 C 
ATOM     11  C   UNL     1       1.945   8.442  18.406  0.00  0.00    +0.000 C 
ATOM     12  O   UNL     1       2.141   8.849  17.274  0.00  0.00    +0.000 OA
BRANCH  10  13
ATOM     13  C   UNL     1       0.920  10.698  19.261  0.00  0.00    +0.000 C 
BRANCH  13  14
ATOM     14  C   UNL     1       1.095  11.569  20.505  0.00  0.00    +0.000 C 
BRANCH  14  15
ATOM     15  C   UNL     1       1.431  13.002  20.149  0.00  0.00    +0.000 C 
ATOM     16  F   UNL     1       0.752  13.445  19.070  0.00  0.00    +0.000 F 
ATOM     17  F   UNL     1       1.157  13.835  21.175  0.00  0.00    +0.000 F 
ATOM     18  F   UNL     1       2.752  13.124  19.871  0.00  0.00    +0.000 F 
ENDBRANCH  14  15
ENDBRANCH  13  14
ENDBRANCH  10  13
ENDBRANCH   5   7
BRANCH   1  19
ATOM     19  C   UNL     1       6.090   4.891  16.746  0.00  0.00    +0.000 C 
ATOM     20  C   UNL     1       6.795   6.277  16.628  0.00  0.00    +0.000 C 
ATOM     21  O   UNL     1       7.749   5.948  17.658  0.00  0.00    +0.000 OA
ATOM     22  C   UNL     1       7.119   4.678  17.894  0.00  0.00    +0.000 C 
BRANCH  19  23
ATOM     23  C   UNL     1       6.335   3.937  15.560  0.00  0.00    +0.000 C 
BRANCH  23  29
ATOM     24  C   UNL     1       5.757   3.357  12.502  0.00  0.00    +0.000 C 
ATOM     25  N   UNL     1       6.710   4.283  13.049  0.00  0.00    +0.000 N 
ATOM     26  C   UNL     1       7.575   5.037  12.315  0.00  0.00    +0.000 A 
ATOM     27  N   UNL     1       8.289   5.790  13.117  0.00  0.00    +0.000 NA
ATOM     28  N   UNL     1       7.904   5.507  14.404  0.00  0.00    +0.000 NA
ATOM     29  C   UNL     1       6.961   4.587  14.368  0.00  0.00    +0.000 A 
ENDBRANCH  23  29
ENDBRANCH  19  23
ENDBRANCH   1  19
TORSDOF 7
ENDMDL
MODEL 7
REMARK VINA RESULT:      -8.4      1.560      2.072
REMARK  Name = 
REMARK  8 active torsions:
REMARK  status: ('A' for Active; 'I' for Inactive)
REMARK    1  A    between atoms: C_1  and  N_2
REMARK    2  A    between atoms: C_6  and  C_7
REMARK    3  A    between atoms: C_7  and  C_8
REMARK    4  A    between atoms: C_8  and  C_9
REMARK    5  A    between atoms: C_13  and  N_14
REMARK    6  A    between atoms: C_17  and  C_18
REMARK    7  A    between atoms: C_18  and  C_19
REMARK    8  A    between atoms: C_19  and  C_20
REMARK                            x       y       z     vdW  Elec       q    Type
REMARK                         _______ _______ _______ _____ _____    ______ ____
ROOT
ATOM      1  C   UNL     1       4.583   4.693  17.010  0.00  0.00    +0.000 A 
ATOM      2  C   UNL     1       3.798   3.541  16.844  0.00  0.00    +0.000 A 
ATOM      3  C   UNL     1       2.497   3.467  17.340  0.00  0.00    +0.000 A 
ATOM      4  C   UNL     1       1.937   4.554  18.014  0.00  0.00    +0.000 A 
ATOM      5  C   UNL     1       2.659   5.738  18.178  0.00  0.00    +0.000 A 
ATOM      6  C   UNL     1       3.963   5.781  17.660  0.00  0.00    +0.000 A 
ENDROOT
BRANCH   5   7
ATOM      7  N   UNL     1       2.138   6.863  18.866  0.00  0.00    +0.000 N 
ATOM      8  C   UNL     1       2.043   8.162  18.246  0.00  0.00    +0.000 C 
ATOM      9  C   UNL     1       1.539   9.006  19.356  0.00  0.00    +0.000 C 
ATOM     10  C   UNL     1       1.328   8.312  20.477  0.00  0.00    +0.000 C 
ATOM     11  C   UNL     1       1.674   6.898  20.179  0.00  0.00    +0.000 C 
ATOM     12  O   UNL     1       1.555   6.007  21.002  0.00  0.00    +0.000 OA
BRANCH  10  13
ATOM     13  C   UNL     1       0.835   8.785  21.795  0.00  0.00    +0.000 C 
BRANCH  13  14
ATOM     14  C   UNL     1       0.925  10.301  21.958  0.00  0.00    +0.000 C 
BRANCH  14  15
ATOM     15  C   UNL     1      -0.444  10.949  21.984  0.00  0.00    +0.000 C 
ATOM     16  F   UNL     1      -1.138  10.747  20.844  0.00  0.00    +0.000 F 
ATOM     17  F   UNL     1      -1.188  10.475  23.004  0.00  0.00    +0.000 F 
ATOM     18  F   UNL     1      -0.331  12.289  22.153  0.00  0.00    +0.000 F 
ENDBRANCH  14  15
ENDBRANCH  13  14
ENDBRANCH  10  13
ENDBRANCH   5   7
BRANCH   1  19
ATOM     19  C   UNL     1       6.117   4.783  16.540  0.00  0.00    +0.000 C 
ATOM     20  C   UNL     1       6.747   6.204  16.407  0.00  0.00    +0.000 C 
ATOM     21  O   UNL     1       7.736   5.927  17.420  0.00  0.00    +0.000 OA
ATOM     22  C   UNL     1       7.177   4.626  17.668  0.00  0.00    +0.000 C 
BRANCH  19  23
ATOM     23  C   UNL     1       6.390   3.841  15.350  0.00  0.00    +0.000 C 
BRANCH  23  29
ATOM     24  C   UNL     1       5.735   3.267  12.306  0.00  0.00    +0.000 C 
ATOM     25  N   UNL     1       6.674   4.220  12.832  0.00  0.00    +0.000 N 
ATOM     26  C   UNL     1       7.491   5.007  12.078  0.00  0.00    +0.000 A 
ATOM     27  N   UNL     1       8.206   5.776  12.865  0.00  0.00    +0.000 NA
ATOM     28  N   UNL     1       7.871   5.470  14.160  0.00  0.00    +0.000 NA
ATOM     29  C   UNL     1       6.957   4.520  14.145  0.00  0.00    +0.000 A 
ENDBRANCH  23  29
ENDBRANCH  19  23
ENDBRANCH   1  19
TORSDOF 7
ENDMDL
MODEL 8
REMARK VINA RESULT:      -8.4      4.963      9.097
REMARK  Name = 
REMARK  8 active torsions:
REMARK  status: ('A' for Active; 'I' for Inactive)
REMARK    1  A    between atoms: C_1  and  N_2
REMARK    2  A    between atoms: C_6  and  C_7
REMARK    3  A    between atoms: C_7  and  C_8
REMARK    4  A    between atoms: C_8  and  C_9
REMARK    5  A    between atoms: C_13  and  N_14
REMARK    6  A    between atoms: C_17  and  C_18
REMARK    7  A    between atoms: C_18  and  C_19
REMARK    8  A    between atoms: C_19  and  C_20
REMARK                            x       y       z     vdW  Elec       q    Type
REMARK                         _______ _______ _______ _____ _____    ______ ____
ROOT
ATOM      1  C   UNL     1       1.811   7.044  20.221  0.00  0.00    +0.000 A 
ATOM      2  C   UNL     1       1.493   5.845  20.880  0.00  0.00    +0.000 A 
ATOM      3  C   UNL     1       2.000   4.620  20.450  0.00  0.00    +0.000 A 
ATOM      4  C   UNL     1       2.853   4.559  19.346  0.00  0.00    +0.000 A 
ATOM      5  C   UNL     1       3.232   5.723  18.674  0.00  0.00    +0.000 A 
ATOM      6  C   UNL     1       2.708   6.940  19.138  0.00  0.00    +0.000 A 
ENDROOT
BRANCH   5   7
ATOM      7  N   UNL     1       4.084   5.710  17.541  0.00  0.00    +0.000 N 
ATOM      8  C   UNL     1       4.574   6.926  16.939  0.00  0.00    +0.000 C 
ATOM      9  C   UNL     1       5.326   6.417  15.767  0.00  0.00    +0.000 C 
ATOM     10  C   UNL     1       5.321   5.084  15.690  0.00  0.00    +0.000 C 
ATOM     11  C   UNL     1       4.548   4.589  16.857  0.00  0.00    +0.000 C 
ATOM     12  O   UNL     1       4.390   3.401  17.082  0.00  0.00    +0.000 OA
BRANCH  10  13
ATOM     13  C   UNL     1       5.949   4.200  14.675  0.00  0.00    +0.000 C 
BRANCH  13  14
ATOM     14  C   UNL     1       4.971   3.740  13.595  0.00  0.00    +0.000 C 
BRANCH  14  15
ATOM     15  C   UNL     1       5.671   3.464  12.280  0.00  0.00    +0.000 C 
ATOM     16  F   UNL     1       4.912   3.779  11.209  0.00  0.00    +0.000 F 
ATOM     17  F   UNL     1       6.821   4.162  12.185  0.00  0.00    +0.000 F 
ATOM     18  F   UNL     1       5.984   2.149  12.178  0.00  0.00    +0.000 F 
ENDBRANCH  14  15
ENDBRANCH  13  14
ENDBRANCH  10  13
ENDBRANCH   5   7
BRANCH   1  19
ATOM     19  C   UNL     1       1.171   8.462  20.626  0.00  0.00    +0.000 C 
ATOM     20  C   UNL     1      -0.227   8.449  21.318  0.00  0.00    +0.000 C 
ATOM     21  O   UNL     1       0.294   9.058  22.517  0.00  0.00    +0.000 OA
ATOM     22  C   UNL     1       1.632   9.042  21.993  0.00  0.00    +0.000 C 
BRANCH  19  23
ATOM     23  C   UNL     1       1.316   9.485  19.481  0.00  0.00    +0.000 C 
BRANCH  23  29
ATOM     24  C   UNL     1       0.570  12.264  20.799  0.00  0.00    +0.000 C 
ATOM     25  N   UNL     1      -0.211  11.506  19.861  0.00  0.00    +0.000 N 
ATOM     26  C   UNL     1      -1.455  11.851  19.423  0.00  0.00    +0.000 A 
ATOM     27  N   UNL     1      -1.877  10.959  18.558  0.00  0.00    +0.000 NA
ATOM     28  N   UNL     1      -0.904   9.997  18.445  0.00  0.00    +0.000 NA
ATOM     29  C   UNL     1       0.097  10.317  19.241  0.00  0.00    +0.000 A 
ENDBRANCH  23  29
ENDBRANCH  19  23
ENDBRANCH   1  19
TORSDOF 7
ENDMDL
MODEL 9
REMARK VINA RESULT:      -8.4      3.542      5.160
REMARK  Name = 
REMARK  8 active torsions:
REMARK  status: ('A' for Active; 'I' for Inactive)
REMARK    1  A    between atoms: C_1  and  N_2
REMARK    2  A    between atoms: C_6  and  C_7
REMARK    3  A    between atoms: C_7  and  C_8
REMARK    4  A    between atoms: C_8  and  C_9
REMARK    5  A    between atoms: C_13  and  N_14
REMARK    6  A    between atoms: C_17  and  C_18
REMARK    7  A    between atoms: C_18  and  C_19
REMARK    8  A    between atoms: C_19  and  C_20
REMARK                            x       y       z     vdW  Elec       q    Type
REMARK                         _______ _______ _______ _____ _____    ______ ____
ROOT
ATOM      1  C   UNL     1       2.154   7.347  19.319  0.00  0.00    +0.000 A 
ATOM      2  C   UNL     1       2.323   8.040  18.109  0.00  0.00    +0.000 A 
ATOM      3  C   UNL     1       1.815   9.326  17.928  0.00  0.00    +0.000 A 
ATOM      4  C   UNL     1       1.128   9.964  18.963  0.00  0.00    +0.000 A 
ATOM      5  C   UNL     1       0.961   9.337  20.199  0.00  0.00    +0.000 A 
ATOM      6  C   UNL     1       1.491   8.046  20.349  0.00  0.00    +0.000 A 
ENDROOT
BRANCH   5   7
ATOM      7  N   UNL     1       0.261   9.939  21.274  0.00  0.00    +0.000 N 
ATOM      8  C   UNL     1      -0.023   9.227  22.497  0.00  0.00    +0.000 C 
ATOM      9  C   UNL     1      -0.830  10.213  23.256  0.00  0.00    +0.000 C 
ATOM     10  C   UNL     1      -0.985  11.366  22.602  0.00  0.00    +0.000 C 
ATOM     11  C   UNL     1      -0.251  11.234  21.318  0.00  0.00    +0.000 C 
ATOM     12  O   UNL     1      -0.180  12.142  20.508  0.00  0.00    +0.000 OA
BRANCH  10  13
ATOM     13  C   UNL     1      -1.719  12.588  23.016  0.00  0.00    +0.000 C 
BRANCH  13  14
ATOM     14  C   UNL     1      -3.236  12.439  22.910  0.00  0.00    +0.000 C 
BRANCH  14  15
ATOM     15  C   UNL     1      -3.945  12.985  24.132  0.00  0.00    +0.000 C 
ATOM     16  F   UNL     1      -3.165  13.811  24.862  0.00  0.00    +0.000 F 
ATOM     17  F   UNL     1      -5.054  13.672  23.786  0.00  0.00    +0.000 F 
ATOM     18  F   UNL     1      -4.332  11.974  24.947  0.00  0.00    +0.000 F 
ENDBRANCH  14  15
ENDBRANCH  13  14
ENDBRANCH  10  13
ENDBRANCH   5   7
BRANCH   1  19
ATOM     19  C   UNL     1       2.638   5.829  19.533  0.00  0.00    +0.000 C 
ATOM     20  C   UNL     1       2.068   5.060  20.765  0.00  0.00    +0.000 C 
ATOM     21  O   UNL     1       1.433   4.071  19.930  0.00  0.00    +0.000 OA
ATOM     22  C   UNL     1       1.848   4.753  18.735  0.00  0.00    +0.000 C 
BRANCH  19  23
ATOM     23  C   UNL     1       4.162   5.698  19.337  0.00  0.00    +0.000 C 
BRANCH  23  29
ATOM     24  C   UNL     1       5.148   6.770  16.526  0.00  0.00    +0.000 C 
ATOM     25  N   UNL     1       4.951   5.401  16.917  0.00  0.00    +0.000 N 
ATOM     26  C   UNL     1       5.110   4.324  16.097  0.00  0.00    +0.000 A 
ATOM     27  N   UNL     1       4.874   3.223  16.771  0.00  0.00    +0.000 NA
ATOM     28  N   UNL     1       4.529   3.584  18.049  0.00  0.00    +0.000 NA
ATOM     29  C   UNL     1       4.560   4.899  18.137  0.00  0.00    +0.000 A 
ENDBRANCH  23  29
ENDBRANCH  19  23
ENDBRANCH   1  19
TORSDOF 7
ENDMDL
