MODEL 1
REMARK VINA RESULT:      -8.4      0.000      0.000
REMARK  Name = 
REMARK  6 active torsions:
REMARK  status: ('A' for Active; 'I' for Inactive)
REMARK    1  A    between atoms: C_1  and  C_2
REMARK    2  A    between atoms: N_6  and  C_7
REMARK    3  A    between atoms: C_11  and  N_12
REMARK    4  A    between atoms: C_13  and  C_15
REMARK    5  A    between atoms: C_20  and  C_21
REMARK    6  A    between atoms: C_21  and  N_22
REMARK                            x       y       z     vdW  Elec       q    Type
REMARK                         _______ _______ _______ _____ _____    ______ ____
ROOT
ATOM      1  N   UNL     1       1.574   8.644  17.739  0.00  0.00    +0.000 N 
ATOM      2  C   UNL     1       2.225   7.746  18.580  0.00  0.00    +0.000 C 
ATOM      3  O   UNL     1       2.164   7.751  19.803  0.00  0.00    +0.000 OA
ATOM      4  H   UNL     1       1.575   8.457  16.747  0.00  0.00    +0.000 HD
ENDROOT
BRANCH   1   9
ATOM      5  C   UNL     1      -1.307  10.981  18.148  0.00  0.00    +0.000 A 
ATOM      6  C   UNL     1      -0.749  11.958  18.982  0.00  0.00    +0.000 A 
ATOM      7  C   UNL     1       0.581  11.871  19.359  0.00  0.00    +0.000 A 
ATOM      8  C   UNL     1       1.366  10.807  18.930  0.00  0.00    +0.000 A 
ATOM      9  C   UNL     1       0.825   9.778  18.145  0.00  0.00    +0.000 A 
ATOM     10  C   UNL     1      -0.519   9.879  17.746  0.00  0.00    +0.000 A 
BRANCH   5  16
ATOM     11  C   UNL     1      -2.822   9.825  15.545  0.00  0.00    +0.000 C 
ATOM     12  C   UNL     1      -3.331  10.724  16.610  0.00  0.00    +0.000 A 
ATOM     13  N   UNL     1      -4.559  11.200  16.675  0.00  0.00    +0.000 NA
ATOM     14  N   UNL     1      -4.695  11.745  17.920  0.00  0.00    +0.000 NA
ATOM     15  N   UNL     1      -3.591  11.600  18.636  0.00  0.00    +0.000 NA
ATOM     16  N   UNL     1      -2.675  11.066  17.784  0.00  0.00    +0.000 N 
ENDBRANCH   5  16
ENDBRANCH   1   9
BRANCH   2  17
ATOM     17  C   UNL     1       3.066   6.683  17.937  0.00  0.00    +0.000 A 
ATOM     18  C   UNL     1       4.257   7.053  17.281  0.00  0.00    +0.000 A 
ATOM     19  C   UNL     1       5.122   6.087  16.764  0.00  0.00    +0.000 A 
ATOM     20  C   UNL     1       4.833   4.739  16.924  0.00  0.00    +0.000 A 
ATOM     21  C   UNL     1       3.657   4.353  17.565  0.00  0.00    +0.000 A 
ATOM     22  C   UNL     1       2.742   5.309  18.059  0.00  0.00    +0.000 A 
BRANCH  22  23
ATOM     23  C   UNL     1       1.454   4.780  18.665  0.00  0.00    +0.000 C 
BRANCH  23  24
ATOM     24  N   UNL     1       1.640   4.040  19.903  0.00  0.00    +0.000 N 
ATOM     25  C   UNL     1       2.428   4.390  20.957  0.00  0.00    +0.000 A 
ATOM     26  N   UNL     1       2.268   3.530  21.937  0.00  0.00    +0.000 NA
ATOM     27  C   UNL     1       1.339   2.667  21.436  0.00  0.00    +0.000 A 
ATOM     28  N   UNL     1       0.877   2.966  20.218  0.00  0.00    +0.000 NA
ENDBRANCH  23  24
ENDBRANCH  22  23
ENDBRANCH   2  17
TORSDOF 5
ENDMDL
MODEL 2
REMARK VINA RESULT:      -8.3      2.141      2.710
REMARK  Name = 
REMARK  6 active torsions:
REMARK  status: ('A' for Active; 'I' for Inactive)
REMARK    1  A    between atoms: C_1  and  C_2
REMARK    2  A    between atoms: N_6  and  C_7
REMARK    3  A    between atoms: C_11  and  N_12
REMARK    4  A    between atoms: C_13  and  C_15
REMARK    5  A    between atoms: C_20  and  C_21
REMARK    6  A    between atoms: C_21  and  N_22
REMARK                            x       y       z     vdW  Elec       q    Type
REMARK                         _______ _______ _______ _____ _____    ______ ____
ROOT
ATOM      1  N   UNL     1       2.313   7.612  19.498  0.00  0.00    +0.000 N 
ATOM      2  C   UNL     1       2.612   7.619  18.139  0.00  0.00    +0.000 C 
ATOM      3  O   UNL     1       2.223   8.457  17.334  0.00  0.00    +0.000 OA
ATOM      4  H   UNL     1       2.805   6.962  20.093  0.00  0.00    +0.000 HD
ENDROOT
BRANCH   1   9
ATOM      5  C   UNL     1       0.305  10.671  20.233  0.00  0.00    +0.000 A 
ATOM      6  C   UNL     1      -0.382  10.275  21.387  0.00  0.00    +0.000 A 
ATOM      7  C   UNL     1      -0.141   9.031  21.945  0.00  0.00    +0.000 A 
ATOM      8  C   UNL     1       0.767   8.160  21.356  0.00  0.00    +0.000 A 
ATOM      9  C   UNL     1       1.427   8.497  20.166  0.00  0.00    +0.000 A 
ATOM     10  C   UNL     1       1.197   9.768  19.612  0.00  0.00    +0.000 A 
BRANCH   5  16
ATOM     11  C   UNL     1      -1.786  11.477  17.913  0.00  0.00    +0.000 C 
ATOM     12  C   UNL     1      -0.732  12.297  18.557  0.00  0.00    +0.000 A 
ATOM     13  N   UNL     1      -0.486  13.563  18.282  0.00  0.00    +0.000 NA
ATOM     14  N   UNL     1       0.353  14.013  19.263  0.00  0.00    +0.000 NA
ATOM     15  N   UNL     1       0.615  13.066  20.149  0.00  0.00    +0.000 NA
ATOM     16  N   UNL     1       0.036  11.938  19.654  0.00  0.00    +0.000 N 
ENDBRANCH   5  16
ENDBRANCH   1   9
BRANCH   2  17
ATOM     17  C   UNL     1       3.482   6.514  17.618  0.00  0.00    +0.000 A 
ATOM     18  C   UNL     1       4.766   6.826  17.127  0.00  0.00    +0.000 A 
ATOM     19  C   UNL     1       5.649   5.818  16.732  0.00  0.00    +0.000 A 
ATOM     20  C   UNL     1       5.280   4.485  16.855  0.00  0.00    +0.000 A 
ATOM     21  C   UNL     1       4.013   4.157  17.334  0.00  0.00    +0.000 A 
ATOM     22  C   UNL     1       3.084   5.158  17.698  0.00  0.00    +0.000 A 
BRANCH  22  23
ATOM     23  C   UNL     1       1.704   4.691  18.128  0.00  0.00    +0.000 C 
BRANCH  23  24
ATOM     24  N   UNL     1       1.665   4.086  19.450  0.00  0.00    +0.000 N 
ATOM     25  C   UNL     1       1.249   2.828  19.763  0.00  0.00    +0.000 A 
ATOM     26  N   UNL     1       1.450   2.598  21.041  0.00  0.00    +0.000 NA
ATOM     27  C   UNL     1       2.021   3.759  21.473  0.00  0.00    +0.000 A 
ATOM     28  N   UNL     1       2.230   4.680  20.528  0.00  0.00    +0.000 NA
ENDBRANCH  23  24
ENDBRANCH  22  23
ENDBRANCH   2  17
TORSDOF 5
ENDMDL
MODEL 3
REMARK VINA RESULT:      -8.3      2.977      8.664
REMARK  Name = 
REMARK  6 active torsions:
REMARK  status: ('A' for Active; 'I' for Inactive)
REMARK    1  A    between atoms: C_1  and  C_2
REMARK    2  A    between atoms: N_6  and  C_7
REMARK    3  A    between atoms: C_11  and  N_12
REMARK    4  A    between atoms: C_13  and  C_15
REMARK    5  A    between atoms: C_20  and  C_21
REMARK    6  A    between atoms: C_21  and  N_22
REMARK                            x       y       z     vdW  Elec       q    Type
REMARK                         _______ _______ _______ _____ _____    ______ ____
ROOT
ATOM      1  N   UNL     1       1.634   6.595  20.637  0.00  0.00    +0.000 N 
ATOM      2  C   UNL     1       1.538   7.876  20.103  0.00  0.00    +0.000 C 
ATOM      3  O   UNL     1       2.000   8.230  19.025  0.00  0.00    +0.000 OA
ATOM      4  H   UNL     1       1.091   6.378  21.460  0.00  0.00    +0.000 HD
ENDROOT
BRANCH   1   9
ATOM      5  C   UNL     1       4.470   4.677  19.150  0.00  0.00    +0.000 A 
ATOM      6  C   UNL     1       3.918   3.393  19.071  0.00  0.00    +0.000 A 
ATOM      7  C   UNL     1       2.605   3.177  19.455  0.00  0.00    +0.000 A 
ATOM      8  C   UNL     1       1.832   4.225  19.938  0.00  0.00    +0.000 A 
ATOM      9  C   UNL     1       2.370   5.512  20.089  0.00  0.00    +0.000 A 
ATOM     10  C   UNL     1       3.695   5.734  19.680  0.00  0.00    +0.000 A 
BRANCH   5  16
ATOM     11  C   UNL     1       5.838   4.584  16.231  0.00  0.00    +0.000 C 
ATOM     12  C   UNL     1       6.474   4.701  17.565  0.00  0.00    +0.000 A 
ATOM     13  N   UNL     1       7.770   4.815  17.778  0.00  0.00    +0.000 NA
ATOM     14  N   UNL     1       7.915   5.167  19.091  0.00  0.00    +0.000 NA
ATOM     15  N   UNL     1       6.742   5.296  19.690  0.00  0.00    +0.000 NA
ATOM     16  N   UNL     1       5.822   4.886  18.776  0.00  0.00    +0.000 N 
ENDBRANCH   5  16
ENDBRANCH   1   9
BRANCH   2  17
ATOM     17  C   UNL     1       0.807   8.908  20.910  0.00  0.00    +0.000 A 
ATOM     18  C   UNL     1       0.561   8.664  22.276  0.00  0.00    +0.000 A 
ATOM     19  C   UNL     1      -0.021   9.640  23.087  0.00  0.00    +0.000 A 
ATOM     20  C   UNL     1      -0.330  10.886  22.560  0.00  0.00    +0.000 A 
ATOM     21  C   UNL     1      -0.099  11.146  21.211  0.00  0.00    +0.000 A 
ATOM     22  C   UNL     1       0.447  10.161  20.356  0.00  0.00    +0.000 A 
BRANCH  22  23
ATOM     23  C   UNL     1       0.580  10.522  18.888  0.00  0.00    +0.000 C 
BRANCH  23  24
ATOM     24  N   UNL     1      -0.689  10.638  18.186  0.00  0.00    +0.000 N 
ATOM     25  C   UNL     1      -1.445  11.762  18.041  0.00  0.00    +0.000 A 
ATOM     26  N   UNL     1      -2.473  11.508  17.264  0.00  0.00    +0.000 NA
ATOM     27  C   UNL     1      -2.290  10.198  16.934  0.00  0.00    +0.000 A 
ATOM     28  N   UNL     1      -1.182   9.634  17.423  0.00  0.00    +0.000 NA
ENDBRANCH  23  24
ENDBRANCH  22  23
ENDBRANCH   2  17
TORSDOF 5
ENDMDL
MODEL 4
REMARK VINA RESULT:      -8.3      2.651      3.655
REMARK  Name = 
REMARK  6 active torsions:
REMARK  status: ('A' for Active; 'I' for Inactive)
REMARK    1  A    between atoms: C_1  and  C_2
REMARK    2  A    between atoms: N_6  and  C_7
REMARK    3  A    between atoms: C_11  and  N_12
REMARK    4  A    between atoms: C_13  and  C_15
REMARK    5  A    between atoms: C_20  and  C_21
REMARK    6  A    between atoms: C_21  and  N_22
REMARK                            x       y       z     vdW  Elec       q    Type
REMARK                         _______ _______ _______ _____ _____    ______ ____
ROOT
ATOM      1  N   UNL     1       1.986   8.412  17.629  0.00  0.00    +0.000 N 
ATOM      2  C   UNL     1       2.576   7.420  18.406  0.00  0.00    +0.000 C 
ATOM      3  O   UNL     1       2.424   7.284  19.614  0.00  0.00    +0.000 OA
ATOM      4  H   UNL     1       2.061   8.341  16.625  0.00  0.00    +0.000 HD
ENDROOT
BRANCH   1   9
ATOM      5  C   UNL     1       1.109  11.650  19.264  0.00  0.00    +0.000 A 
ATOM      6  C   UNL     1      -0.267  11.721  19.009  0.00  0.00    +0.000 A 
ATOM      7  C   UNL     1      -0.904  10.681  18.351  0.00  0.00    +0.000 A 
ATOM      8  C   UNL     1      -0.184   9.573  17.923  0.00  0.00    +0.000 A 
ATOM      9  C   UNL     1       1.205   9.496  18.106  0.00  0.00    +0.000 A 
ATOM     10  C   UNL     1       1.846  10.541  18.792  0.00  0.00    +0.000 A 
BRANCH   5  16
ATOM     11  C   UNL     1       2.798  14.100  18.020  0.00  0.00    +0.000 C 
ATOM     12  C   UNL     1       2.620  13.703  19.438  0.00  0.00    +0.000 A 
ATOM     13  N   UNL     1       3.134  14.339  20.472  0.00  0.00    +0.000 NA
ATOM     14  N   UNL     1       2.521  13.830  21.581  0.00  0.00    +0.000 NA
ATOM     15  N   UNL     1       1.625  12.910  21.260  0.00  0.00    +0.000 NA
ATOM     16  N   UNL     1       1.758  12.728  19.918  0.00  0.00    +0.000 N 
ENDBRANCH   5  16
ENDBRANCH   1   9
BRANCH   2  17
ATOM     17  C   UNL     1       3.465   6.433  17.709  0.00  0.00    +0.000 A 
ATOM     18  C   UNL     1       4.731   6.852  17.254  0.00  0.00    +0.000 A 
ATOM     19  C   UNL     1       5.632   5.943  16.697  0.00  0.00    +0.000 A 
ATOM     20  C   UNL     1       5.301   4.597  16.619  0.00  0.00    +0.000 A 
ATOM     21  C   UNL     1       4.052   4.163  17.059  0.00  0.00    +0.000 A 
ATOM     22  C   UNL     1       3.103   5.069  17.587  0.00  0.00    +0.000 A 
BRANCH  22  23
ATOM     23  C   UNL     1       1.745   4.503  17.959  0.00  0.00    +0.000 C 
BRANCH  23  24
ATOM     24  N   UNL     1       1.717   3.816  19.240  0.00  0.00    +0.000 N 
ATOM     25  C   UNL     1       1.056   4.207  20.365  0.00  0.00    +0.000 A 
ATOM     26  N   UNL     1       1.180   3.288  21.295  0.00  0.00    +0.000 NA
ATOM     27  C   UNL     1       1.923   2.326  20.676  0.00  0.00    +0.000 A 
ATOM     28  N   UNL     1       2.227   2.572  19.399  0.00  0.00    +0.000 NA
ENDBRANCH  23  24
ENDBRANCH  22  23
ENDBRANCH   2  17
TORSDOF 5
ENDMDL
MODEL 5
REMARK VINA RESULT:      -8.3      3.336      4.905
REMARK  Name = 
REMARK  6 active torsions:
REMARK  status: ('A' for Active; 'I' for Inactive)
REMARK    1  A    between atoms: C_1  and  C_2
REMARK    2  A    between atoms: N_6  and  C_7
REMARK    3  A    between atoms: C_11  and  N_12
REMARK    4  A    between atoms: C_13  and  C_15
REMARK    5  A    between atoms: C_20  and  C_21
REMARK    6  A    between atoms: C_21  and  N_22
REMARK                            x       y       z     vdW  Elec       q    Type
REMARK                         _______ _______ _______ _____ _____    ______ ____
ROOT
ATOM      1  N   UNL     1       2.714   6.334  18.857  0.00  0.00    +0.000 N 
ATOM      2  C   UNL     1       2.130   5.266  18.184  0.00  0.00    +0.000 C 
ATOM      3  O   UNL     1       1.140   5.338  17.466  0.00  0.00    +0.000 OA
ATOM      4  H   UNL     1       3.610   6.189  19.298  0.00  0.00    +0.000 HD
ENDROOT
BRANCH   1   9
ATOM      5  C   UNL     1       1.067   9.396  20.214  0.00  0.00    +0.000 A 
ATOM      6  C   UNL     1       1.258  10.298  19.159  0.00  0.00    +0.000 A 
ATOM      7  C   UNL     1       1.876   9.880  17.992  0.00  0.00    +0.000 A 
ATOM      8  C   UNL     1       2.328   8.573  17.865  0.00  0.00    +0.000 A 
ATOM      9  C   UNL     1       2.210   7.659  18.923  0.00  0.00    +0.000 A 
ATOM     10  C   UNL     1       1.564   8.078  20.098  0.00  0.00    +0.000 A 
BRANCH   5  16
ATOM     11  C   UNL     1      -1.160  11.684  20.669  0.00  0.00    +0.000 C 
ATOM     12  C   UNL     1      -0.383  10.914  21.670  0.00  0.00    +0.000 A 
ATOM     13  N   UNL     1      -0.505  11.035  22.977  0.00  0.00    +0.000 NA
ATOM     14  N   UNL     1       0.170   9.980  23.525  0.00  0.00    +0.000 NA
ATOM     15  N   UNL     1       0.687   9.198  22.591  0.00  0.00    +0.000 NA
ATOM     16  N   UNL     1       0.453   9.837  21.413  0.00  0.00    +0.000 N 
ENDBRANCH   5  16
ENDBRANCH   1   9
BRANCH   2  17
ATOM     17  C   UNL     1       2.766   3.917  18.345  0.00  0.00    +0.000 A 
ATOM     18  C   UNL     1       2.283   3.044  19.341  0.00  0.00    +0.000 A 
ATOM     19  C   UNL     1       2.774   1.742  19.455  0.00  0.00    +0.000 A 
ATOM     20  C   UNL     1       3.724   1.277  18.556  0.00  0.00    +0.000 A 
ATOM     21  C   UNL     1       4.218   2.126  17.567  0.00  0.00    +0.000 A 
ATOM     22  C   UNL     1       3.772   3.463  17.456  0.00  0.00    +0.000 A 
BRANCH  22  23
ATOM     23  C   UNL     1       4.436   4.323  16.397  0.00  0.00    +0.000 C 
BRANCH  23  24
ATOM     24  N   UNL     1       5.580   5.082  16.878  0.00  0.00    +0.000 N 
ATOM     25  C   UNL     1       6.885   4.695  16.861  0.00  0.00    +0.000 A 
ATOM     26  N   UNL     1       7.646   5.679  17.286  0.00  0.00    +0.000 NA
ATOM     27  C   UNL     1       6.746   6.673  17.536  0.00  0.00    +0.000 A 
ATOM     28  N   UNL     1       5.475   6.381  17.247  0.00  0.00    +0.000 NA
ENDBRANCH  23  24
ENDBRANCH  22  23
ENDBRANCH   2  17
TORSDOF 5
ENDMDL
MODEL 6
REMARK VINA RESULT:      -8.2      3.384      8.076
REMARK  Name = 
REMARK  6 active torsions:
REMARK  status: ('A' for Active; 'I' for Inactive)
REMARK    1  A    between atoms: C_1  and  C_2
REMARK    2  A    between atoms: N_6  and  C_7
REMARK    3  A    between atoms: C_11  and  N_12
REMARK    4  A    between atoms: C_13  and  C_15
REMARK    5  A    between atoms: C_20  and  C_21
REMARK    6  A    between atoms: C_21  and  N_22
REMARK                            x       y       z     vdW  Elec       q    Type
REMARK                         _______ _______ _______ _____ _____    ______ ____
ROOT
ATOM      1  N   UNL     1       2.714   8.680  18.421  0.00  0.00    +0.000 N 
ATOM      2  C   UNL     1       1.567   9.381  18.060  0.00  0.00    +0.000 C 
ATOM      3  O   UNL     1       0.591   8.899  17.498  0.00  0.00    +0.000 OA
ATOM      4  H   UNL     1       3.391   9.141  19.009  0.00  0.00    +0.000 HD
ENDROOT
BRANCH   1   9
ATOM      5  C   UNL     1       4.435   5.705  16.966  0.00  0.00    +0.000 A 
ATOM      6  C   UNL     1       3.681   4.659  17.513  0.00  0.00    +0.000 A 
ATOM      7  C   UNL     1       2.583   4.939  18.310  0.00  0.00    +0.000 A 
ATOM      8  C   UNL     1       2.232   6.254  18.588  0.00  0.00    +0.000 A 
ATOM      9  C   UNL     1       3.000   7.325  18.108  0.00  0.00    +0.000 A 
ATOM     10  C   UNL     1       4.102   7.041  17.284  0.00  0.00    +0.000 A 
BRANCH   5  16
ATOM     11  C   UNL     1       7.432   4.918  17.862  0.00  0.00    +0.000 C 
ATOM     12  C   UNL     1       6.903   5.225  16.511  0.00  0.00    +0.000 A 
ATOM     13  N   UNL     1       7.610   5.201  15.398  0.00  0.00    +0.000 NA
ATOM     14  N   UNL     1       6.713   5.270  14.371  0.00  0.00    +0.000 NA
ATOM     15  N   UNL     1       5.467   5.315  14.817  0.00  0.00    +0.000 NA
ATOM     16  N   UNL     1       5.571   5.410  16.170  0.00  0.00    +0.000 N 
ENDBRANCH   5  16
ENDBRANCH   1   9
BRANCH   2  17
ATOM     17  C   UNL     1       1.520  10.844  18.388  0.00  0.00    +0.000 A 
ATOM     18  C   UNL     1       2.528  11.692  17.887  0.00  0.00    +0.000 A 
ATOM     19  C   UNL     1       2.464  13.074  18.078  0.00  0.00    +0.000 A 
ATOM     20  C   UNL     1       1.378  13.634  18.737  0.00  0.00    +0.000 A 
ATOM     21  C   UNL     1       0.374  12.812  19.243  0.00  0.00    +0.000 A 
ATOM     22  C   UNL     1       0.435  11.406  19.103  0.00  0.00    +0.000 A 
BRANCH  22  23
ATOM     23  C   UNL     1      -0.669  10.601  19.764  0.00  0.00    +0.000 C 
BRANCH  23  24
ATOM     24  N   UNL     1      -0.445  10.331  21.176  0.00  0.00    +0.000 N 
ATOM     25  C   UNL     1      -0.681  11.173  22.219  0.00  0.00    +0.000 A 
ATOM     26  N   UNL     1      -0.454  10.551  23.353  0.00  0.00    +0.000 NA
ATOM     27  C   UNL     1      -0.093   9.300  22.947  0.00  0.00    +0.000 A 
ATOM     28  N   UNL     1      -0.129   9.094  21.628  0.00  0.00    +0.000 NA
ENDBRANCH  23  24
ENDBRANCH  22  23
ENDBRANCH   2  17
TORSDOF 5
ENDMDL
MODEL 7
REMARK VINA RESULT:      -8.2      2.940      3.380
REMARK  Name = 
REMARK  6 active torsions:
REMARK  status: ('A' for Active; 'I' for Inactive)
REMARK    1  A    between atoms: C_1  and  C_2
REMARK    2  A    between atoms: N_6  and  C_7
REMARK    3  A    between atoms: C_11  and  N_12
REMARK    4  A    between atoms: C_13  and  C_15
REMARK    5  A    between atoms: C_20  and  C_21
REMARK    6  A    between atoms: C_21  and  N_22
REMARK                            x       y       z     vdW  Elec       q    Type
REMARK                         _______ _______ _______ _____ _____    ______ ____
ROOT
ATOM      1  N   UNL     1       2.459   8.159  17.802  0.00  0.00    +0.000 N 
ATOM      2  C   UNL     1       2.916   7.021  18.459  0.00  0.00    +0.000 C 
ATOM      3  O   UNL     1       2.868   6.835  19.669  0.00  0.00    +0.000 OA
ATOM      4  H   UNL     1       2.412   8.142  16.794  0.00  0.00    +0.000 HD
ENDROOT
BRANCH   1   9
ATOM      5  C   UNL     1       0.876  10.396  20.336  0.00  0.00    +0.000 A 
ATOM      6  C   UNL     1       1.039  11.649  19.732  0.00  0.00    +0.000 A 
ATOM      7  C   UNL     1       1.618  11.745  18.477  0.00  0.00    +0.000 A 
ATOM      8  C   UNL     1       2.056  10.604  17.816  0.00  0.00    +0.000 A 
ATOM      9  C   UNL     1       1.966   9.339  18.416  0.00  0.00    +0.000 A 
ATOM     10  C   UNL     1       1.360   9.241  19.679  0.00  0.00    +0.000 A 
BRANCH   5  16
ATOM     11  C   UNL     1      -1.725  11.871  21.543  0.00  0.00    +0.000 C 
ATOM     12  C   UNL     1      -0.711  11.038  22.233  0.00  0.00    +0.000 A 
ATOM     13  N   UNL     1      -0.726  10.734  23.515  0.00  0.00    +0.000 NA
ATOM     14  N   UNL     1       0.204   9.749  23.689  0.00  0.00    +0.000 NA
ATOM     15  N   UNL     1       0.780   9.419  22.543  0.00  0.00    +0.000 NA
ATOM     16  N   UNL     1       0.303  10.308  21.630  0.00  0.00    +0.000 N 
ENDBRANCH   5  16
ENDBRANCH   1   9
BRANCH   2  17
ATOM     17  C   UNL     1       3.511   5.930  17.619  0.00  0.00    +0.000 A 
ATOM     18  C   UNL     1       4.683   6.193  16.881  0.00  0.00    +0.000 A 
ATOM     19  C   UNL     1       5.329   5.178  16.172  0.00  0.00    +0.000 A 
ATOM     20  C   UNL     1       4.840   3.880  16.218  0.00  0.00    +0.000 A 
ATOM     21  C   UNL     1       3.680   3.600  16.938  0.00  0.00    +0.000 A 
ATOM     22  C   UNL     1       2.980   4.616  17.628  0.00  0.00    +0.000 A 
BRANCH  22  23
ATOM     23  C   UNL     1       1.684   4.217  18.310  0.00  0.00    +0.000 C 
BRANCH  23  24
ATOM     24  N   UNL     1       1.864   3.599  19.614  0.00  0.00    +0.000 N 
ATOM     25  C   UNL     1       2.996   3.015  20.095  0.00  0.00    +0.000 A 
ATOM     26  N   UNL     1       2.814   2.655  21.345  0.00  0.00    +0.000 NA
ATOM     27  C   UNL     1       1.539   3.066  21.598  0.00  0.00    +0.000 A 
ATOM     28  N   UNL     1       0.933   3.703  20.592  0.00  0.00    +0.000 NA
ENDBRANCH  23  24
ENDBRANCH  22  23
ENDBRANCH   2  17
TORSDOF 5
ENDMDL
MODEL 8
REMARK VINA RESULT:      -8.2      2.058      2.776
REMARK  Name = 
REMARK  6 active torsions:
REMARK  status: ('A' for Active; 'I' for Inactive)
REMARK    1  A    between atoms: C_1  and  C_2
REMARK    2  A    between atoms: N_6  and  C_7
REMARK    3  A    between atoms: C_11  and  N_12
REMARK    4  A    between atoms: C_13  and  C_15
REMARK    5  A    between atoms: C_20  and  C_21
REMARK    6  A    between atoms: C_21  and  N_22
REMARK                            x       y       z     vdW  Elec       q    Type
REMARK                         _______ _______ _______ _____ _____    ______ ____
ROOT
ATOM      1  N   UNL     1       3.148   7.526  18.587  0.00  0.00    +0.000 N 
ATOM      2  C   UNL     1       3.097   6.282  17.965  0.00  0.00    +0.000 C 
ATOM      3  O   UNL     1       2.103   5.570  17.886  0.00  0.00    +0.000 OA
ATOM      4  H   UNL     1       3.976   8.088  18.463  0.00  0.00    +0.000 HD
ENDROOT
BRANCH   1   9
ATOM      5  C   UNL     1       0.356   9.845  19.457  0.00  0.00    +0.000 A 
ATOM      6  C   UNL     1      -0.039   9.340  20.702  0.00  0.00    +0.000 A 
ATOM      7  C   UNL     1       0.647   8.279  21.270  0.00  0.00    +0.000 A 
ATOM      8  C   UNL     1       1.717   7.696  20.603  0.00  0.00    +0.000 A 
ATOM      9  C   UNL     1       2.102   8.135  19.328  0.00  0.00    +0.000 A 
ATOM     10  C   UNL     1       1.418   9.224  18.762  0.00  0.00    +0.000 A 
BRANCH   5  16
ATOM     11  C   UNL     1      -2.415   9.807  17.807  0.00  0.00    +0.000 C 
ATOM     12  C   UNL     1      -1.466  10.924  18.027  0.00  0.00    +0.000 A 
ATOM     13  N   UNL     1      -1.626  12.153  17.576  0.00  0.00    +0.000 NA
ATOM     14  N   UNL     1      -0.693  12.922  18.214  0.00  0.00    +0.000 NA
ATOM     15  N   UNL     1       0.025  12.205  19.064  0.00  0.00    +0.000 NA
ATOM     16  N   UNL     1      -0.365  10.916  18.872  0.00  0.00    +0.000 N 
ENDBRANCH   5  16
ENDBRANCH   1   9
BRANCH   2  17
ATOM     17  C   UNL     1       4.360   5.771  17.336  0.00  0.00    +0.000 A 
ATOM     18  C   UNL     1       4.729   6.239  16.059  0.00  0.00    +0.000 A 
ATOM     19  C   UNL     1       5.947   5.873  15.484  0.00  0.00    +0.000 A 
ATOM     20  C   UNL     1       6.832   5.067  16.188  0.00  0.00    +0.000 A 
ATOM     21  C   UNL     1       6.484   4.591  17.450  0.00  0.00    +0.000 A 
ATOM     22  C   UNL     1       5.239   4.909  18.037  0.00  0.00    +0.000 A 
BRANCH  22  23
ATOM     23  C   UNL     1       4.928   4.269  19.378  0.00  0.00    +0.000 C 
BRANCH  23  24
ATOM     24  N   UNL     1       3.877   3.265  19.329  0.00  0.00    +0.000 N 
ATOM     25  C   UNL     1       2.853   3.107  20.213  0.00  0.00    +0.000 A 
ATOM     26  N   UNL     1       2.045   2.160  19.792  0.00  0.00    +0.000 NA
ATOM     27  C   UNL     1       2.615   1.775  18.615  0.00  0.00    +0.000 A 
ATOM     28  N   UNL     1       3.704   2.459  18.255  0.00  0.00    +0.000 NA
ENDBRANCH  23  24
ENDBRANCH  22  23
ENDBRANCH   2  17
TORSDOF 5
ENDMDL
MODEL 9
REMARK VINA RESULT:      -8.2      2.319      3.112
REMARK  Name = 
REMARK  6 active torsions:
REMARK  status: ('A' for Active; 'I' for Inactive)
REMARK    1  A    between atoms: C_1  and  C_2
REMARK    2  A    between atoms: N_6  and  C_7
REMARK    3  A    between atoms: C_11  and  N_12
REMARK    4  A    between atoms: C_13  and  C_15
REMARK    5  A    between atoms: C_20  and  C_21
REMARK    6  A    between atoms: C_21  and  N_22
REMARK                            x       y       z     vdW  Elec       q    Type
REMARK                         _______ _______ _______ _____ _____    ______ ____
ROOT
ATOM      1  N   UNL     1       2.980   7.029  18.020  0.00  0.00    +0.000 N 
ATOM      2  C   UNL     1       4.020   6.182  18.392  0.00  0.00    +0.000 C 
ATOM      3  O   UNL     1       4.351   5.933  19.545  0.00  0.00    +0.000 OA
ATOM      4  H   UNL     1       2.700   7.045  17.050  0.00  0.00    +0.000 HD
ENDROOT
BRANCH   1   9
ATOM      5  C   UNL     1       0.867   9.855  19.235  0.00  0.00    +0.000 A 
ATOM      6  C   UNL     1       0.577   9.437  20.540  0.00  0.00    +0.000 A 
ATOM      7  C   UNL     1       1.120   8.259  21.027  0.00  0.00    +0.000 A 
ATOM      8  C   UNL     1       1.939   7.476  20.223  0.00  0.00    +0.000 A 
ATOM      9  C   UNL     1       2.202   7.832  18.892  0.00  0.00    +0.000 A 
ATOM     10  C   UNL     1       1.667   9.037  18.406  0.00  0.00    +0.000 A 
BRANCH   5  16
ATOM     11  C   UNL     1       2.211  12.748  18.755  0.00  0.00    +0.000 C 
ATOM     12  C   UNL     1       0.787  12.344  18.663  0.00  0.00    +0.000 A 
ATOM     13  N   UNL     1      -0.207  13.144  18.330  0.00  0.00    +0.000 NA
ATOM     14  N   UNL     1      -1.288  12.341  18.099  0.00  0.00    +0.000 NA
ATOM     15  N   UNL     1      -0.984  11.063  18.260  0.00  0.00    +0.000 NA
ATOM     16  N   UNL     1       0.291  11.050  18.735  0.00  0.00    +0.000 N 
ENDBRANCH   5  16
ENDBRANCH   1   9
BRANCH   2  17
ATOM     17  C   UNL     1       4.795   5.515  17.294  0.00  0.00    +0.000 A 
ATOM     18  C   UNL     1       5.950   6.145  16.789  0.00  0.00    +0.000 A 
ATOM     19  C   UNL     1       6.759   5.511  15.844  0.00  0.00    +0.000 A 
ATOM     20  C   UNL     1       6.451   4.227  15.416  0.00  0.00    +0.000 A 
ATOM     21  C   UNL     1       5.311   3.590  15.900  0.00  0.00    +0.000 A 
ATOM     22  C   UNL     1       4.449   4.225  16.823  0.00  0.00    +0.000 A 
BRANCH  22  23
ATOM     23  C   UNL     1       3.192   3.473  17.220  0.00  0.00    +0.000 C 
BRANCH  23  24
ATOM     24  N   UNL     1       3.181   3.021  18.602  0.00  0.00    +0.000 N 
ATOM     25  C   UNL     1       4.223   2.489  19.299  0.00  0.00    +0.000 A 
ATOM     26  N   UNL     1       3.868   2.290  20.548  0.00  0.00    +0.000 NA
ATOM     27  C   UNL     1       2.581   2.744  20.575  0.00  0.00    +0.000 A 
ATOM     28  N   UNL     1       2.132   3.256  19.426  0.00  0.00    +0.000 NA
ENDBRANCH  23  24
ENDBRANCH  22  23
ENDBRANCH   2  17
TORSDOF 5
ENDMDL
