MODEL 1
REMARK VINA RESULT:      -9.1      0.000      0.000
REMARK  Name = 
REMARK  5 active torsions:
REMARK  status: ('A' for Active; 'I' for Inactive)
REMARK    1  A    between atoms: C_1  and  C_2
REMARK    2  A    between atoms: C_6  and  O_7
REMARK    3  A    between atoms: O_7  and  C_8
REMARK    4  A    between atoms: C_11  and  N_12
REMARK    5  A    between atoms: C_20  and  C_21
REMARK                            x       y       z     vdW  Elec       q    Type
REMARK                         _______ _______ _______ _____ _____    ______ ____
ROOT
ATOM      1  N   UNL     1       2.958   6.937  18.595  0.00  0.00    +0.000 N 
ATOM      2  C   UNL     1       2.538   5.739  18.061  0.00  0.00    +0.000 C 
ATOM      3  O   UNL     1       1.386   5.528  17.687  0.00  0.00    +0.000 OA
ATOM      4  N   UNL     1       3.508   4.747  17.934  0.00  0.00    +0.000 N 
ATOM      5  C   UNL     1       3.113   3.515  17.244  0.00  0.00    +0.000 C 
ATOM      6  C   UNL     1       2.993   2.342  18.213  0.00  0.00    +0.000 C 
ATOM      7  C   UNL     1       4.237   2.169  19.081  0.00  0.00    +0.000 C 
ATOM      8  C   UNL     1       4.669   3.491  19.720  0.00  0.00    +0.000 C 
ATOM      9  C   UNL     1       4.769   4.650  18.708  0.00  0.00    +0.000 C 
ATOM     10  H   UNL     1       3.952   7.076  18.684  0.00  0.00    +0.000 HD
ENDROOT
BRANCH   1  14
ATOM     11  C   UNL     1       0.448  10.246  19.460  0.00  0.00    +0.000 A 
ATOM     12  C   UNL     1       1.150  10.222  18.258  0.00  0.00    +0.000 A 
ATOM     13  C   UNL     1       1.994   9.146  17.954  0.00  0.00    +0.000 A 
ATOM     14  C   UNL     1       2.160   8.083  18.849  0.00  0.00    +0.000 A 
ATOM     15  C   UNL     1       1.495   8.147  20.080  0.00  0.00    +0.000 A 
ATOM     16  C   UNL     1       0.665   9.231  20.394  0.00  0.00    +0.000 A 
BRANCH  11  17
ATOM     17  O   UNL     1      -0.395  11.315  19.663  0.00  0.00    +0.000 OA
BRANCH  17  23
ATOM     18  C   UNL     1      -2.964   9.865  15.782  0.00  0.00    +0.000 C 
ATOM     19  C   UNL     1      -2.886  10.621  17.074  0.00  0.00    +0.000 A 
ATOM     20  C   UNL     1      -3.993  11.331  17.556  0.00  0.00    +0.000 A 
ATOM     21  C   UNL     1      -3.925  12.003  18.776  0.00  0.00    +0.000 A 
ATOM     22  C   UNL     1      -2.747  11.983  19.521  0.00  0.00    +0.000 A 
ATOM     23  C   UNL     1      -1.614  11.336  19.019  0.00  0.00    +0.000 A 
ATOM     24  C   UNL     1      -1.698  10.622  17.820  0.00  0.00    +0.000 A 
ENDBRANCH  17  23
ENDBRANCH  11  17
ENDBRANCH   1  14
BRANCH   9  25
ATOM     25  C   UNL     1       5.963   4.519  17.782  0.00  0.00    +0.000 A 
ATOM     26  N   UNL     1       5.858   4.556  16.411  0.00  0.00    +0.000 NA
ATOM     27  C   UNL     1       7.096   4.426  15.994  0.00  0.00    +0.000 A 
ATOM     28  N   UNL     1       7.910   4.277  17.069  0.00  0.00    +0.000 N 
ATOM     29  N   UNL     1       7.218   4.331  18.225  0.00  0.00    +0.000 NA
ATOM     30  H   UNL     1       8.914   4.134  17.089  0.00  0.00    +0.000 HD
ENDBRANCH   9  25
TORSDOF 4
ENDMDL
MODEL 2
REMARK VINA RESULT:      -9.0      0.444      1.029
REMARK  Name = 
REMARK  5 active torsions:
REMARK  status: ('A' for Active; 'I' for Inactive)
REMARK    1  A    between atoms: C_1  and  C_2
REMARK    2  A    between atoms: C_6  and  O_7
REMARK    3  A    between atoms: O_7  and  C_8
REMARK    4  A    between atoms: C_11  and  N_12
REMARK    5  A    between atoms: C_20  and  C_21
REMARK                            x       y       z     vdW  Elec       q    Type
REMARK                         _______ _______ _______ _____ _____    ______ ____
ROOT
ATOM      1  N   UNL     1       2.927   6.807  18.765  0.00  0.00    +0.000 N 
ATOM      2  C   UNL     1       2.513   5.655  18.133  0.00  0.00    +0.000 C 
ATOM      3  O   UNL     1       1.372   5.484  17.711  0.00  0.00    +0.000 OA
ATOM      4  N   UNL     1       3.478   4.664  17.965  0.00  0.00    +0.000 N 
ATOM      5  C   UNL     1       3.094   3.490  17.176  0.00  0.00    +0.000 C 
ATOM      6  C   UNL     1       2.934   2.251  18.053  0.00  0.00    +0.000 C 
ATOM      7  C   UNL     1       4.149   2.003  18.944  0.00  0.00    +0.000 C 
ATOM      8  C   UNL     1       4.573   3.271  19.689  0.00  0.00    +0.000 C 
ATOM      9  C   UNL     1       4.714   4.499  18.767  0.00  0.00    +0.000 C 
ATOM     10  H   UNL     1       3.918   6.929  18.893  0.00  0.00    +0.000 HD
ENDROOT
BRANCH   1  14
ATOM     11  C   UNL     1       0.666  10.304  19.576  0.00  0.00    +0.000 A 
ATOM     12  C   UNL     1       0.774   9.322  20.557  0.00  0.00    +0.000 A 
ATOM     13  C   UNL     1       1.505   8.154  20.310  0.00  0.00    +0.000 A 
ATOM     14  C   UNL     1       2.131   7.940  19.076  0.00  0.00    +0.000 A 
ATOM     15  C   UNL     1       1.966   8.907  18.077  0.00  0.00    +0.000 A 
ATOM     16  C   UNL     1       1.219  10.069  18.316  0.00  0.00    +0.000 A 
BRANCH  11  17
ATOM     17  O   UNL     1      -0.031  11.442  19.914  0.00  0.00    +0.000 OA
BRANCH  17  23
ATOM     18  C   UNL     1      -3.431  10.179  16.656  0.00  0.00    +0.000 C 
ATOM     19  C   UNL     1      -3.037  10.935  17.890  0.00  0.00    +0.000 A 
ATOM     20  C   UNL     1      -3.966  11.735  18.566  0.00  0.00    +0.000 A 
ATOM     21  C   UNL     1      -3.602  12.408  19.732  0.00  0.00    +0.000 A 
ATOM     22  C   UNL     1      -2.304  12.297  20.227  0.00  0.00    +0.000 A 
ATOM     23  C   UNL     1      -1.349  11.557  19.525  0.00  0.00    +0.000 A 
ATOM     24  C   UNL     1      -1.727  10.844  18.383  0.00  0.00    +0.000 A 
ENDBRANCH  17  23
ENDBRANCH  11  17
ENDBRANCH   1  14
BRANCH   9  25
ATOM     25  C   UNL     1       5.935   4.421  17.871  0.00  0.00    +0.000 A 
ATOM     26  N   UNL     1       5.856   4.368  16.498  0.00  0.00    +0.000 NA
ATOM     27  C   UNL     1       7.110   4.326  16.110  0.00  0.00    +0.000 A 
ATOM     28  N   UNL     1       7.910   4.314  17.205  0.00  0.00    +0.000 N 
ATOM     29  N   UNL     1       7.191   4.374  18.345  0.00  0.00    +0.000 NA
ATOM     30  H   UNL     1       8.922   4.264  17.251  0.00  0.00    +0.000 HD
ENDBRANCH   9  25
TORSDOF 4
ENDMDL
MODEL 3
REMARK VINA RESULT:      -9.0      0.588      1.781
REMARK  Name = 
REMARK  5 active torsions:
REMARK  status: ('A' for Active; 'I' for Inactive)
REMARK    1  A    between atoms: C_1  and  C_2
REMARK    2  A    between atoms: C_6  and  O_7
REMARK    3  A    between atoms: O_7  and  C_8
REMARK    4  A    between atoms: C_11  and  N_12
REMARK    5  A    between atoms: C_20  and  C_21
REMARK                            x       y       z     vdW  Elec       q    Type
REMARK                         _______ _______ _______ _____ _____    ______ ____
ROOT
ATOM      1  N   UNL     1       2.891   6.782  18.729  0.00  0.00    +0.000 N 
ATOM      2  C   UNL     1       2.497   5.612  18.119  0.00  0.00    +0.000 C 
ATOM      3  O   UNL     1       1.358   5.414  17.701  0.00  0.00    +0.000 OA
ATOM      4  N   UNL     1       3.478   4.635  17.968  0.00  0.00    +0.000 N 
ATOM      5  C   UNL     1       3.115   3.440  17.201  0.00  0.00    +0.000 C 
ATOM      6  C   UNL     1       2.976   2.215  18.100  0.00  0.00    +0.000 C 
ATOM      7  C   UNL     1       4.197   2.004  18.994  0.00  0.00    +0.000 C 
ATOM      8  C   UNL     1       4.599   3.293  19.716  0.00  0.00    +0.000 C 
ATOM      9  C   UNL     1       4.718   4.505  18.771  0.00  0.00    +0.000 C 
ATOM     10  H   UNL     1       3.880   6.924  18.855  0.00  0.00    +0.000 HD
ENDROOT
BRANCH   1  14
ATOM     11  C   UNL     1       0.568  10.252  19.477  0.00  0.00    +0.000 A 
ATOM     12  C   UNL     1       0.718   9.306  20.486  0.00  0.00    +0.000 A 
ATOM     13  C   UNL     1       1.471   8.146  20.260  0.00  0.00    +0.000 A 
ATOM     14  C   UNL     1       2.076   7.907  19.021  0.00  0.00    +0.000 A 
ATOM     15  C   UNL     1       1.868   8.837  17.995  0.00  0.00    +0.000 A 
ATOM     16  C   UNL     1       1.100   9.989  18.213  0.00  0.00    +0.000 A 
BRANCH  11  17
ATOM     17  O   UNL     1      -0.149  11.385  19.792  0.00  0.00    +0.000 OA
BRANCH  17  23
ATOM     18  C   UNL     1      -4.537  13.343  20.613  0.00  0.00    +0.000 C 
ATOM     19  C   UNL     1      -3.649  12.451  19.798  0.00  0.00    +0.000 A 
ATOM     20  C   UNL     1      -4.159  11.739  18.705  0.00  0.00    +0.000 A 
ATOM     21  C   UNL     1      -3.319  10.939  17.930  0.00  0.00    +0.000 A 
ATOM     22  C   UNL     1      -1.966  10.832  18.247  0.00  0.00    +0.000 A 
ATOM     23  C   UNL     1      -1.460  11.483  19.376  0.00  0.00    +0.000 A 
ATOM     24  C   UNL     1      -2.290  12.323  20.123  0.00  0.00    +0.000 A 
ENDBRANCH  17  23
ENDBRANCH  11  17
ENDBRANCH   1  14
BRANCH   9  25
ATOM     25  C   UNL     1       5.939   4.433  17.875  0.00  0.00    +0.000 A 
ATOM     26  N   UNL     1       5.862   4.397  16.502  0.00  0.00    +0.000 NA
ATOM     27  C   UNL     1       7.115   4.354  16.115  0.00  0.00    +0.000 A 
ATOM     28  N   UNL     1       7.914   4.324  17.210  0.00  0.00    +0.000 N 
ATOM     29  N   UNL     1       7.195   4.374  18.350  0.00  0.00    +0.000 NA
ATOM     30  H   UNL     1       8.926   4.269  17.256  0.00  0.00    +0.000 HD
ENDBRANCH   9  25
TORSDOF 4
ENDMDL
MODEL 4
REMARK VINA RESULT:      -9.0      0.463      1.397
REMARK  Name = 
REMARK  5 active torsions:
REMARK  status: ('A' for Active; 'I' for Inactive)
REMARK    1  A    between atoms: C_1  and  C_2
REMARK    2  A    between atoms: C_6  and  O_7
REMARK    3  A    between atoms: O_7  and  C_8
REMARK    4  A    between atoms: C_11  and  N_12
REMARK    5  A    between atoms: C_20  and  C_21
REMARK                            x       y       z     vdW  Elec       q    Type
REMARK                         _______ _______ _______ _____ _____    ______ ____
ROOT
ATOM      1  N   UNL     1       2.945   6.987  18.566  0.00  0.00    +0.000 N 
ATOM      2  C   UNL     1       2.555   5.772  18.047  0.00  0.00    +0.000 C 
ATOM      3  O   UNL     1       1.414   5.534  17.657  0.00  0.00    +0.000 OA
ATOM      4  N   UNL     1       3.543   4.794  17.959  0.00  0.00    +0.000 N 
ATOM      5  C   UNL     1       3.183   3.542  17.287  0.00  0.00    +0.000 C 
ATOM      6  C   UNL     1       3.063   2.387  18.276  0.00  0.00    +0.000 C 
ATOM      7  C   UNL     1       4.293   2.252  19.172  0.00  0.00    +0.000 C 
ATOM      8  C   UNL     1       4.691   3.594  19.791  0.00  0.00    +0.000 C 
ATOM      9  C   UNL     1       4.791   4.734  18.758  0.00  0.00    +0.000 C 
ATOM     10  H   UNL     1       3.934   7.145  18.671  0.00  0.00    +0.000 HD
ENDROOT
BRANCH   1  14
ATOM     11  C   UNL     1       0.367  10.271  19.320  0.00  0.00    +0.000 A 
ATOM     12  C   UNL     1       1.064  10.218  18.117  0.00  0.00    +0.000 A 
ATOM     13  C   UNL     1       1.930   9.150  17.849  0.00  0.00    +0.000 A 
ATOM     14  C   UNL     1       2.123   8.124  18.781  0.00  0.00    +0.000 A 
ATOM     15  C   UNL     1       1.462   8.219  20.012  0.00  0.00    +0.000 A 
ATOM     16  C   UNL     1       0.609   9.295  20.290  0.00  0.00    +0.000 A 
BRANCH  11  17
ATOM     17  O   UNL     1      -0.498  11.329  19.488  0.00  0.00    +0.000 OA
BRANCH  17  23
ATOM     18  C   UNL     1      -5.082  12.970  19.727  0.00  0.00    +0.000 C 
ATOM     19  C   UNL     1      -4.071  12.035  19.134  0.00  0.00    +0.000 A 
ATOM     20  C   UNL     1      -4.446  11.093  18.169  0.00  0.00    +0.000 A 
ATOM     21  C   UNL     1      -3.494  10.251  17.595  0.00  0.00    +0.000 A 
ATOM     22  C   UNL     1      -2.159  10.334  17.989  0.00  0.00    +0.000 A 
ATOM     23  C   UNL     1      -1.784  11.223  19.000  0.00  0.00    +0.000 A 
ATOM     24  C   UNL     1      -2.730  12.099  19.539  0.00  0.00    +0.000 A 
ENDBRANCH  17  23
ENDBRANCH  11  17
ENDBRANCH   1  14
BRANCH   9  25
ATOM     25  C   UNL     1       6.005   4.605  17.859  0.00  0.00    +0.000 A 
ATOM     26  N   UNL     1       5.939   4.716  16.488  0.00  0.00    +0.000 NA
ATOM     27  C   UNL     1       7.182   4.560  16.098  0.00  0.00    +0.000 A 
ATOM     28  N   UNL     1       7.960   4.325  17.184  0.00  0.00    +0.000 N 
ATOM     29  N   UNL     1       7.239   4.347  18.323  0.00  0.00    +0.000 NA
ATOM     30  H   UNL     1       8.957   4.143  17.223  0.00  0.00    +0.000 HD
ENDBRANCH   9  25
TORSDOF 4
ENDMDL
MODEL 5
REMARK VINA RESULT:      -8.8      3.472      9.486
REMARK  Name = 
REMARK  5 active torsions:
REMARK  status: ('A' for Active; 'I' for Inactive)
REMARK    1  A    between atoms: C_1  and  C_2
REMARK    2  A    between atoms: C_6  and  O_7
REMARK    3  A    between atoms: O_7  and  C_8
REMARK    4  A    between atoms: C_11  and  N_12
REMARK    5  A    between atoms: C_20  and  C_21
REMARK                            x       y       z     vdW  Elec       q    Type
REMARK                         _______ _______ _______ _____ _____    ______ ____
ROOT
ATOM      1  N   UNL     1       1.258   9.353  19.770  0.00  0.00    +0.000 N 
ATOM      2  C   UNL     1       0.425  10.133  19.000  0.00  0.00    +0.000 C 
ATOM      3  O   UNL     1       0.038   9.812  17.878  0.00  0.00    +0.000 OA
ATOM      4  N   UNL     1       0.005  11.333  19.568  0.00  0.00    +0.000 N 
ATOM      5  C   UNL     1      -0.988  12.112  18.821  0.00  0.00    +0.000 C 
ATOM      6  C   UNL     1      -0.378  13.378  18.227  0.00  0.00    +0.000 C 
ATOM      7  C   UNL     1       0.377  14.208  19.264  0.00  0.00    +0.000 C 
ATOM      8  C   UNL     1       1.344  13.348  20.081  0.00  0.00    +0.000 C 
ATOM      9  C   UNL     1       0.688  12.076  20.655  0.00  0.00    +0.000 C 
ATOM     10  H   UNL     1       1.356   9.605  20.740  0.00  0.00    +0.000 HD
ENDROOT
BRANCH   1  14
ATOM     11  C   UNL     1       3.038   5.608  18.873  0.00  0.00    +0.000 A 
ATOM     12  C   UNL     1       3.082   6.625  17.924  0.00  0.00    +0.000 A 
ATOM     13  C   UNL     1       2.492   7.867  18.192  0.00  0.00    +0.000 A 
ATOM     14  C   UNL     1       1.839   8.110  19.405  0.00  0.00    +0.000 A 
ATOM     15  C   UNL     1       1.749   7.060  20.328  0.00  0.00    +0.000 A 
ATOM     16  C   UNL     1       2.323   5.812  20.055  0.00  0.00    +0.000 A 
BRANCH  11  17
ATOM     17  O   UNL     1       3.681   4.434  18.552  0.00  0.00    +0.000 OA
BRANCH  17  23
ATOM     18  C   UNL     1       6.128   3.929  14.366  0.00  0.00    +0.000 C 
ATOM     19  C   UNL     1       6.124   4.228  15.835  0.00  0.00    +0.000 A 
ATOM     20  C   UNL     1       7.317   4.511  16.511  0.00  0.00    +0.000 A 
ATOM     21  C   UNL     1       7.301   4.823  17.871  0.00  0.00    +0.000 A 
ATOM     22  C   UNL     1       6.096   4.842  18.570  0.00  0.00    +0.000 A 
ATOM     23  C   UNL     1       4.907   4.495  17.922  0.00  0.00    +0.000 A 
ATOM     24  C   UNL     1       4.917   4.230  16.550  0.00  0.00    +0.000 A 
ENDBRANCH  17  23
ENDBRANCH  11  17
ENDBRANCH   1  14
BRANCH   9  25
ATOM     25  C   UNL     1      -0.268  12.371  21.794  0.00  0.00    +0.000 A 
ATOM     26  N   UNL     1      -1.316  11.544  22.128  0.00  0.00    +0.000 NA
ATOM     27  C   UNL     1      -1.875  12.141  23.155  0.00  0.00    +0.000 A 
ATOM     28  N   UNL     1      -1.217  13.300  23.404  0.00  0.00    +0.000 N 
ATOM     29  N   UNL     1      -0.186  13.477  22.553  0.00  0.00    +0.000 NA
ATOM     30  H   UNL     1      -1.411  14.000  24.113  0.00  0.00    +0.000 HD
ENDBRANCH   9  25
TORSDOF 4
ENDMDL
MODEL 6
REMARK VINA RESULT:      -8.8      1.995      3.168
REMARK  Name = 
REMARK  5 active torsions:
REMARK  status: ('A' for Active; 'I' for Inactive)
REMARK    1  A    between atoms: C_1  and  C_2
REMARK    2  A    between atoms: C_6  and  O_7
REMARK    3  A    between atoms: O_7  and  C_8
REMARK    4  A    between atoms: C_11  and  N_12
REMARK    5  A    between atoms: C_20  and  C_21
REMARK                            x       y       z     vdW  Elec       q    Type
REMARK                         _______ _______ _______ _____ _____    ______ ____
ROOT
ATOM      1  N   UNL     1       2.880   6.743  18.810  0.00  0.00    +0.000 N 
ATOM      2  C   UNL     1       2.484   5.597  18.159  0.00  0.00    +0.000 C 
ATOM      3  O   UNL     1       1.344   5.415  17.735  0.00  0.00    +0.000 OA
ATOM      4  N   UNL     1       3.463   4.624  17.973  0.00  0.00    +0.000 N 
ATOM      5  C   UNL     1       3.097   3.457  17.164  0.00  0.00    +0.000 C 
ATOM      6  C   UNL     1       2.957   2.201  18.019  0.00  0.00    +0.000 C 
ATOM      7  C   UNL     1       4.177   1.957  18.905  0.00  0.00    +0.000 C 
ATOM      8  C   UNL     1       4.582   3.218  19.671  0.00  0.00    +0.000 C 
ATOM      9  C   UNL     1       4.703   4.463  18.770  0.00  0.00    +0.000 C 
ATOM     10  H   UNL     1       3.869   6.878  18.941  0.00  0.00    +0.000 HD
ENDROOT
BRANCH   1  14
ATOM     11  C   UNL     1       0.560  10.187  19.678  0.00  0.00    +0.000 A 
ATOM     12  C   UNL     1       0.730   9.218  20.662  0.00  0.00    +0.000 A 
ATOM     13  C   UNL     1       1.482   8.066  20.397  0.00  0.00    +0.000 A 
ATOM     14  C   UNL     1       2.067   7.858  19.142  0.00  0.00    +0.000 A 
ATOM     15  C   UNL     1       1.839   8.811  18.142  0.00  0.00    +0.000 A 
ATOM     16  C   UNL     1       1.072   9.956  18.400  0.00  0.00    +0.000 A 
BRANCH  11  17
ATOM     17  O   UNL     1      -0.154  11.310  20.032  0.00  0.00    +0.000 OA
BRANCH  17  23
ATOM     18  C   UNL     1       3.487  14.331  21.211  0.00  0.00    +0.000 C 
ATOM     19  C   UNL     1       2.227  14.058  20.444  0.00  0.00    +0.000 A 
ATOM     20  C   UNL     1       1.664  15.040  19.620  0.00  0.00    +0.000 A 
ATOM     21  C   UNL     1       0.512  14.768  18.883  0.00  0.00    +0.000 A 
ATOM     22  C   UNL     1      -0.095  13.516  18.971  0.00  0.00    +0.000 A 
ATOM     23  C   UNL     1       0.417  12.551  19.842  0.00  0.00    +0.000 A 
ATOM     24  C   UNL     1       1.599  12.808  20.544  0.00  0.00    +0.000 A 
ENDBRANCH  17  23
ENDBRANCH  11  17
ENDBRANCH   1  14
BRANCH   9  25
ATOM     25  C   UNL     1       5.924   4.421  17.872  0.00  0.00    +0.000 A 
ATOM     26  N   UNL     1       5.846   4.442  16.499  0.00  0.00    +0.000 NA
ATOM     27  C   UNL     1       7.100   4.407  16.110  0.00  0.00    +0.000 A 
ATOM     28  N   UNL     1       7.898   4.328  17.203  0.00  0.00    +0.000 N 
ATOM     29  N   UNL     1       7.179   4.334  18.344  0.00  0.00    +0.000 NA
ATOM     30  H   UNL     1       8.910   4.264  17.246  0.00  0.00    +0.000 HD
ENDBRANCH   9  25
TORSDOF 4
ENDMDL
MODEL 7
REMARK VINA RESULT:      -8.8      2.001      3.015
REMARK  Name = 
REMARK  5 active torsions:
REMARK  status: ('A' for Active; 'I' for Inactive)
REMARK    1  A    between atoms: C_1  and  C_2
REMARK    2  A    between atoms: C_6  and  O_7
REMARK    3  A    between atoms: O_7  and  C_8
REMARK    4  A    between atoms: C_11  and  N_12
REMARK    5  A    between atoms: C_20  and  C_21
REMARK                            x       y       z     vdW  Elec       q    Type
REMARK                         _______ _______ _______ _____ _____    ______ ____
ROOT
ATOM      1  N   UNL     1       2.893   6.841  18.699  0.00  0.00    +0.000 N 
ATOM      2  C   UNL     1       2.485   5.666  18.107  0.00  0.00    +0.000 C 
ATOM      3  O   UNL     1       1.341   5.471  17.702  0.00  0.00    +0.000 OA
ATOM      4  N   UNL     1       3.457   4.680  17.960  0.00  0.00    +0.000 N 
ATOM      5  C   UNL     1       3.077   3.477  17.212  0.00  0.00    +0.000 C 
ATOM      6  C   UNL     1       2.938   2.265  18.129  0.00  0.00    +0.000 C 
ATOM      7  C   UNL     1       4.165   2.057  19.015  0.00  0.00    +0.000 C 
ATOM      8  C   UNL     1       4.583   3.352  19.715  0.00  0.00    +0.000 C 
ATOM      9  C   UNL     1       4.703   4.551  18.754  0.00  0.00    +0.000 C 
ATOM     10  H   UNL     1       3.884   6.976  18.813  0.00  0.00    +0.000 HD
ENDROOT
BRANCH   1  14
ATOM     11  C   UNL     1       0.596  10.335  19.412  0.00  0.00    +0.000 A 
ATOM     12  C   UNL     1       0.806   9.437  20.454  0.00  0.00    +0.000 A 
ATOM     13  C   UNL     1       1.552   8.270  20.241  0.00  0.00    +0.000 A 
ATOM     14  C   UNL     1       2.089   7.976  18.983  0.00  0.00    +0.000 A 
ATOM     15  C   UNL     1       1.820   8.856  17.928  0.00  0.00    +0.000 A 
ATOM     16  C   UNL     1       1.059  10.015  18.134  0.00  0.00    +0.000 A 
BRANCH  11  17
ATOM     17  O   UNL     1      -0.108  11.479  19.714  0.00  0.00    +0.000 OA
BRANCH  17  23
ATOM     18  C   UNL     1      -0.392  16.214  18.590  0.00  0.00    +0.000 C 
ATOM     19  C   UNL     1       0.403  15.051  19.103  0.00  0.00    +0.000 A 
ATOM     20  C   UNL     1       1.742  15.209  19.481  0.00  0.00    +0.000 A 
ATOM     21  C   UNL     1       2.464  14.130  19.990  0.00  0.00    +0.000 A 
ATOM     22  C   UNL     1       1.859  12.880  20.116  0.00  0.00    +0.000 A 
ATOM     23  C   UNL     1       0.545  12.693  19.679  0.00  0.00    +0.000 A 
ATOM     24  C   UNL     1      -0.193  13.785  19.214  0.00  0.00    +0.000 A 
ENDBRANCH  17  23
ENDBRANCH  11  17
ENDBRANCH   1  14
BRANCH   9  25
ATOM     25  C   UNL     1       5.915   4.458  17.848  0.00  0.00    +0.000 A 
ATOM     26  N   UNL     1       5.827   4.440  16.475  0.00  0.00    +0.000 NA
ATOM     27  C   UNL     1       7.076   4.369  16.078  0.00  0.00    +0.000 A 
ATOM     28  N   UNL     1       7.882   4.305  17.167  0.00  0.00    +0.000 N 
ATOM     29  N   UNL     1       7.173   4.359  18.312  0.00  0.00    +0.000 NA
ATOM     30  H   UNL     1       8.893   4.222  17.205  0.00  0.00    +0.000 HD
ENDBRANCH   9  25
TORSDOF 4
ENDMDL
MODEL 8
REMARK VINA RESULT:      -8.8      3.471      9.569
REMARK  Name = 
REMARK  5 active torsions:
REMARK  status: ('A' for Active; 'I' for Inactive)
REMARK    1  A    between atoms: C_1  and  C_2
REMARK    2  A    between atoms: C_6  and  O_7
REMARK    3  A    between atoms: O_7  and  C_8
REMARK    4  A    between atoms: C_11  and  N_12
REMARK    5  A    between atoms: C_20  and  C_21
REMARK                            x       y       z     vdW  Elec       q    Type
REMARK                         _______ _______ _______ _____ _____    ______ ____
ROOT
ATOM      1  N   UNL     1       1.233   9.365  19.831  0.00  0.00    +0.000 N 
ATOM      2  C   UNL     1       0.374  10.107  19.051  0.00  0.00    +0.000 C 
ATOM      3  O   UNL     1       0.012   9.768  17.927  0.00  0.00    +0.000 OA
ATOM      4  N   UNL     1      -0.102  11.290  19.612  0.00  0.00    +0.000 N 
ATOM      5  C   UNL     1      -1.120  12.024  18.854  0.00  0.00    +0.000 C 
ATOM      6  C   UNL     1      -0.559  13.313  18.262  0.00  0.00    +0.000 C 
ATOM      7  C   UNL     1       0.150  14.177  19.303  0.00  0.00    +0.000 C 
ATOM      8  C   UNL     1       1.145  13.360  20.132  0.00  0.00    +0.000 C 
ATOM      9  C   UNL     1       0.539  12.063  20.703  0.00  0.00    +0.000 C 
ATOM     10  H   UNL     1       1.311   9.624  20.801  0.00  0.00    +0.000 HD
ENDROOT
BRANCH   1  14
ATOM     11  C   UNL     1       3.095   5.766  18.576  0.00  0.00    +0.000 A 
ATOM     12  C   UNL     1       2.473   5.810  19.820  0.00  0.00    +0.000 A 
ATOM     13  C   UNL     1       1.860   6.990  20.262  0.00  0.00    +0.000 A 
ATOM     14  C   UNL     1       1.869   8.147  19.475  0.00  0.00    +0.000 A 
ATOM     15  C   UNL     1       2.550   8.108  18.252  0.00  0.00    +0.000 A 
ATOM     16  C   UNL     1       3.179   6.934  17.816  0.00  0.00    +0.000 A 
BRANCH  11  17
ATOM     17  O   UNL     1       3.633   4.557  18.196  0.00  0.00    +0.000 OA
BRANCH  17  23
ATOM     18  C   UNL     1       6.109   3.918  14.045  0.00  0.00    +0.000 C 
ATOM     19  C   UNL     1       6.100   4.206  15.517  0.00  0.00    +0.000 A 
ATOM     20  C   UNL     1       7.299   4.403  16.214  0.00  0.00    +0.000 A 
ATOM     21  C   UNL     1       7.281   4.706  17.576  0.00  0.00    +0.000 A 
ATOM     22  C   UNL     1       6.068   4.801  18.256  0.00  0.00    +0.000 A 
ATOM     23  C   UNL     1       4.870   4.539  17.586  0.00  0.00    +0.000 A 
ATOM     24  C   UNL     1       4.885   4.284  16.212  0.00  0.00    +0.000 A 
ENDBRANCH  17  23
ENDBRANCH  11  17
ENDBRANCH   1  14
BRANCH   9  25
ATOM     25  C   UNL     1      -0.440  12.320  21.832  0.00  0.00    +0.000 A 
ATOM     26  N   UNL     1      -0.581  13.548  22.438  0.00  0.00    +0.000 NA
ATOM     27  C   UNL     1      -1.521  13.353  23.334  0.00  0.00    +0.000 A 
ATOM     28  N   UNL     1      -1.901  12.052  23.298  0.00  0.00    +0.000 N 
ATOM     29  N   UNL     1      -1.230  11.365  22.351  0.00  0.00    +0.000 NA
ATOM     30  H   UNL     1      -2.588  11.575  23.873  0.00  0.00    +0.000 HD
ENDBRANCH   9  25
TORSDOF 4
ENDMDL
MODEL 9
REMARK VINA RESULT:      -8.8      1.931      3.019
REMARK  Name = 
REMARK  5 active torsions:
REMARK  status: ('A' for Active; 'I' for Inactive)
REMARK    1  A    between atoms: C_1  and  C_2
REMARK    2  A    between atoms: C_6  and  O_7
REMARK    3  A    between atoms: O_7  and  C_8
REMARK    4  A    between atoms: C_11  and  N_12
REMARK    5  A    between atoms: C_20  and  C_21
REMARK                            x       y       z     vdW  Elec       q    Type
REMARK                         _______ _______ _______ _____ _____    ______ ____
ROOT
ATOM      1  N   UNL     1       2.850   6.823  18.671  0.00  0.00    +0.000 N 
ATOM      2  C   UNL     1       2.468   5.633  18.093  0.00  0.00    +0.000 C 
ATOM      3  O   UNL     1       1.329   5.407  17.691  0.00  0.00    +0.000 OA
ATOM      4  N   UNL     1       3.463   4.667  17.956  0.00  0.00    +0.000 N 
ATOM      5  C   UNL     1       3.111   3.448  17.222  0.00  0.00    +0.000 C 
ATOM      6  C   UNL     1       2.999   2.244  18.153  0.00  0.00    +0.000 C 
ATOM      7  C   UNL     1       4.231   2.073  19.040  0.00  0.00    +0.000 C 
ATOM      8  C   UNL     1       4.619   3.385  19.726  0.00  0.00    +0.000 C 
ATOM      9  C   UNL     1       4.712   4.575  18.751  0.00  0.00    +0.000 C 
ATOM     10  H   UNL     1       3.838   6.982  18.784  0.00  0.00    +0.000 HD
ENDROOT
BRANCH   1  14
ATOM     11  C   UNL     1       0.282  10.061  19.628  0.00  0.00    +0.000 A 
ATOM     12  C   UNL     1       0.721   9.908  18.316  0.00  0.00    +0.000 A 
ATOM     13  C   UNL     1       1.578   8.853  17.977  0.00  0.00    +0.000 A 
ATOM     14  C   UNL     1       2.020   7.942  18.943  0.00  0.00    +0.000 A 
ATOM     15  C   UNL     1       1.621   8.142  20.270  0.00  0.00    +0.000 A 
ATOM     16  C   UNL     1       0.778   9.206  20.615  0.00  0.00    +0.000 A 
BRANCH  11  17
ATOM     17  O   UNL     1      -0.595  11.095  19.871  0.00  0.00    +0.000 OA
BRANCH  17  23
ATOM     18  C   UNL     1      -1.277  14.088  23.657  0.00  0.00    +0.000 C 
ATOM     19  C   UNL     1      -0.498  13.702  22.436  0.00  0.00    +0.000 A 
ATOM     20  C   UNL     1       0.597  14.467  22.014  0.00  0.00    +0.000 A 
ATOM     21  C   UNL     1       1.339  14.082  20.898  0.00  0.00    +0.000 A 
ATOM     22  C   UNL     1       0.987  12.937  20.184  0.00  0.00    +0.000 A 
ATOM     23  C   UNL     1      -0.144  12.205  20.554  0.00  0.00    +0.000 A 
ATOM     24  C   UNL     1      -0.858  12.563  21.701  0.00  0.00    +0.000 A 
ENDBRANCH  17  23
ENDBRANCH  11  17
ENDBRANCH   1  14
BRANCH   9  25
ATOM     25  C   UNL     1       5.926   4.500  17.846  0.00  0.00    +0.000 A 
ATOM     26  N   UNL     1       5.842   4.539  16.473  0.00  0.00    +0.000 NA
ATOM     27  C   UNL     1       7.092   4.464  16.077  0.00  0.00    +0.000 A 
ATOM     28  N   UNL     1       7.892   4.343  17.165  0.00  0.00    +0.000 N 
ATOM     29  N   UNL     1       7.180   4.363  18.309  0.00  0.00    +0.000 NA
ATOM     30  H   UNL     1       8.901   4.243  17.202  0.00  0.00    +0.000 HD
ENDBRANCH   9  25
TORSDOF 4
ENDMDL
