MODEL 1
REMARK VINA RESULT:      -8.2      0.000      0.000
REMARK  Name = 
REMARK  4 active torsions:
REMARK  status: ('A' for Active; 'I' for Inactive)
REMARK    1  A    between atoms: C_2  and  C_15
REMARK    2  A    between atoms: N_3  and  C_4
REMARK    3  A    between atoms: C_9  and  N_10
REMARK    4  A    between atoms: C_19  and  N_20
REMARK                            x       y       z     vdW  Elec       q    Type
REMARK                         _______ _______ _______ _____ _____    ______ ____
ROOT
ATOM      1  O   UNL     1       2.504   6.416  20.481  0.00  0.00    +0.000 OA
ATOM      2  C   UNL     1       2.218   6.837  19.363  0.00  0.00    +0.000 C 
ATOM      3  N   UNL     1       2.235   6.099  18.192  0.00  0.00    +0.000 N 
ATOM      4  H   UNL     1       2.024   6.579  17.320  0.00  0.00    +0.000 HD
ENDROOT
BRANCH   3   5
ATOM      5  C   UNL     1       2.568   4.724  18.043  0.00  0.00    +0.000 A 
ATOM      6  C   UNL     1       1.615   3.727  18.305  0.00  0.00    +0.000 A 
ATOM      7  C   UNL     1       1.909   2.371  18.158  0.00  0.00    +0.000 A 
ATOM      8  C   UNL     1       3.164   1.979  17.718  0.00  0.00    +0.000 A 
ATOM      9  C   UNL     1       4.134   2.944  17.450  0.00  0.00    +0.000 A 
ATOM     10  C   UNL     1       3.861   4.318  17.625  0.00  0.00    +0.000 A 
BRANCH  10  11
ATOM     11  N   UNL     1       4.929   5.245  17.432  0.00  0.00    +0.000 N 
ATOM     12  C   UNL     1       6.083   5.400  18.175  0.00  0.00    +0.000 A 
ATOM     13  C   UNL     1       6.720   6.484  17.623  0.00  0.00    +0.000 A 
ATOM     14  N   UNL     1       5.998   6.945  16.567  0.00  0.00    +0.000 NA
ATOM     15  N   UNL     1       4.919   6.186  16.448  0.00  0.00    +0.000 NA
ENDBRANCH  10  11
ENDBRANCH   3   5
BRANCH   2  16
ATOM     16  C   UNL     1       1.839   8.280  19.261  0.00  0.00    +0.000 A 
ATOM     17  C   UNL     1       2.263   8.973  18.122  0.00  0.00    +0.000 A 
ATOM     18  C   UNL     1       1.890  10.297  17.930  0.00  0.00    +0.000 A 
ATOM     19  C   UNL     1       1.076  10.935  18.870  0.00  0.00    +0.000 A 
ATOM     20  C   UNL     1       0.623  10.264  20.015  0.00  0.00    +0.000 A 
ATOM     21  C   UNL     1       1.027   8.930  20.202  0.00  0.00    +0.000 A 
BRANCH  20  22
ATOM     22  N   UNL     1      -0.256  10.889  20.943  0.00  0.00    +0.000 N 
ATOM     23  C   UNL     1      -1.363  11.726  20.530  0.00  0.00    +0.000 C 
ATOM     24  C   UNL     1      -1.716  12.513  21.772  0.00  0.00    +0.000 C 
ATOM     25  C   UNL     1      -1.371  11.565  22.904  0.00  0.00    +0.000 C 
ATOM     26  C   UNL     1      -0.235  10.746  22.339  0.00  0.00    +0.000 C 
ATOM     27  O   UNL     1       0.497  10.065  23.040  0.00  0.00    +0.000 OA
ENDBRANCH  20  22
ENDBRANCH   2  16
TORSDOF 4
ENDMDL
MODEL 2
REMARK VINA RESULT:      -8.1      1.950      3.423
REMARK  Name = 
REMARK  4 active torsions:
REMARK  status: ('A' for Active; 'I' for Inactive)
REMARK    1  A    between atoms: C_2  and  C_15
REMARK    2  A    between atoms: N_3  and  C_4
REMARK    3  A    between atoms: C_9  and  N_10
REMARK    4  A    between atoms: C_19  and  N_20
REMARK                            x       y       z     vdW  Elec       q    Type
REMARK                         _______ _______ _______ _____ _____    ______ ____
ROOT
ATOM      1  O   UNL     1       2.574   8.427  17.051  0.00  0.00    +0.000 OA
ATOM      2  C   UNL     1       2.589   7.795  18.103  0.00  0.00    +0.000 C 
ATOM      3  N   UNL     1       3.257   6.601  18.322  0.00  0.00    +0.000 N 
ATOM      4  H   UNL     1       3.148   6.150  19.227  0.00  0.00    +0.000 HD
ENDROOT
BRANCH   3   5
ATOM      5  C   UNL     1       4.060   5.881  17.394  0.00  0.00    +0.000 A 
ATOM      6  C   UNL     1       5.039   6.541  16.635  0.00  0.00    +0.000 A 
ATOM      7  C   UNL     1       5.850   5.860  15.726  0.00  0.00    +0.000 A 
ATOM      8  C   UNL     1       5.715   4.489  15.573  0.00  0.00    +0.000 A 
ATOM      9  C   UNL     1       4.752   3.803  16.311  0.00  0.00    +0.000 A 
ATOM     10  C   UNL     1       3.903   4.483  17.211  0.00  0.00    +0.000 A 
BRANCH  10  11
ATOM     11  N   UNL     1       2.872   3.737  17.856  0.00  0.00    +0.000 N 
ATOM     12  C   UNL     1       2.992   2.705  18.766  0.00  0.00    +0.000 A 
ATOM     13  C   UNL     1       1.706   2.282  18.998  0.00  0.00    +0.000 A 
ATOM     14  N   UNL     1       0.841   3.049  18.284  0.00  0.00    +0.000 NA
ATOM     15  N   UNL     1       1.549   3.935  17.601  0.00  0.00    +0.000 NA
ENDBRANCH  10  11
ENDBRANCH   3   5
BRANCH   2  16
ATOM     16  C   UNL     1       1.796   8.356  19.240  0.00  0.00    +0.000 A 
ATOM     17  C   UNL     1       1.741   7.600  20.416  0.00  0.00    +0.000 A 
ATOM     18  C   UNL     1       1.078   8.092  21.533  0.00  0.00    +0.000 A 
ATOM     19  C   UNL     1       0.478   9.353  21.487  0.00  0.00    +0.000 A 
ATOM     20  C   UNL     1       0.527  10.142  20.330  0.00  0.00    +0.000 A 
ATOM     21  C   UNL     1       1.185   9.618  19.202  0.00  0.00    +0.000 A 
BRANCH  20  22
ATOM     22  N   UNL     1      -0.029  11.451  20.299  0.00  0.00    +0.000 N 
ATOM     23  C   UNL     1      -1.370  11.720  19.826  0.00  0.00    +0.000 C 
ATOM     24  C   UNL     1      -1.373  13.205  19.542  0.00  0.00    +0.000 C 
ATOM     25  C   UNL     1      -0.395  13.763  20.557  0.00  0.00    +0.000 C 
ATOM     26  C   UNL     1       0.579  12.628  20.764  0.00  0.00    +0.000 C 
ATOM     27  O   UNL     1       1.667  12.783  21.296  0.00  0.00    +0.000 OA
ENDBRANCH  20  22
ENDBRANCH   2  16
TORSDOF 4
ENDMDL
MODEL 3
REMARK VINA RESULT:      -8.1      2.558      7.704
REMARK  Name = 
REMARK  4 active torsions:
REMARK  status: ('A' for Active; 'I' for Inactive)
REMARK    1  A    between atoms: C_2  and  C_15
REMARK    2  A    between atoms: N_3  and  C_4
REMARK    3  A    between atoms: C_9  and  N_10
REMARK    4  A    between atoms: C_19  and  N_20
REMARK                            x       y       z     vdW  Elec       q    Type
REMARK                         _______ _______ _______ _____ _____    ______ ____
ROOT
ATOM      1  O   UNL     1       2.233  10.249  17.576  0.00  0.00    +0.000 OA
ATOM      2  C   UNL     1       1.719   9.354  18.240  0.00  0.00    +0.000 C 
ATOM      3  N   UNL     1       0.610   9.488  19.058  0.00  0.00    +0.000 N 
ATOM      4  H   UNL     1       0.310   8.678  19.596  0.00  0.00    +0.000 HD
ENDROOT
BRANCH   3   5
ATOM      5  C   UNL     1      -0.156  10.665  19.287  0.00  0.00    +0.000 A 
ATOM      6  C   UNL     1      -0.574  11.463  18.210  0.00  0.00    +0.000 A 
ATOM      7  C   UNL     1      -1.336  12.617  18.401  0.00  0.00    +0.000 A 
ATOM      8  C   UNL     1      -1.720  12.987  19.680  0.00  0.00    +0.000 A 
ATOM      9  C   UNL     1      -1.322  12.217  20.771  0.00  0.00    +0.000 A 
ATOM     10  C   UNL     1      -0.524  11.064  20.597  0.00  0.00    +0.000 A 
BRANCH  10  11
ATOM     11  N   UNL     1      -0.066  10.381  21.763  0.00  0.00    +0.000 N 
ATOM     12  C   UNL     1      -0.794   9.952  22.855  0.00  0.00    +0.000 A 
ATOM     13  C   UNL     1       0.136   9.442  23.726  0.00  0.00    +0.000 A 
ATOM     14  N   UNL     1       1.373   9.529  23.171  0.00  0.00    +0.000 NA
ATOM     15  N   UNL     1       1.247  10.089  21.977  0.00  0.00    +0.000 NA
ENDBRANCH  10  11
ENDBRANCH   3   5
BRANCH   2  16
ATOM     16  C   UNL     1       2.363   8.006  18.171  0.00  0.00    +0.000 A 
ATOM     17  C   UNL     1       3.532   7.895  17.410  0.00  0.00    +0.000 A 
ATOM     18  C   UNL     1       4.219   6.689  17.357  0.00  0.00    +0.000 A 
ATOM     19  C   UNL     1       3.751   5.588  18.078  0.00  0.00    +0.000 A 
ATOM     20  C   UNL     1       2.591   5.670  18.862  0.00  0.00    +0.000 A 
ATOM     21  C   UNL     1       1.897   6.894  18.887  0.00  0.00    +0.000 A 
BRANCH  20  22
ATOM     22  N   UNL     1       2.145   4.570  19.646  0.00  0.00    +0.000 N 
ATOM     23  C   UNL     1       2.266   4.538  21.088  0.00  0.00    +0.000 C 
ATOM     24  C   UNL     1       2.109   3.076  21.441  0.00  0.00    +0.000 C 
ATOM     25  C   UNL     1       1.174   2.550  20.369  0.00  0.00    +0.000 C 
ATOM     26  C   UNL     1       1.483   3.424  19.177  0.00  0.00    +0.000 C 
ATOM     27  O   UNL     1       1.138   3.135  18.042  0.00  0.00    +0.000 OA
ENDBRANCH  20  22
ENDBRANCH   2  16
TORSDOF 4
ENDMDL
MODEL 4
REMARK VINA RESULT:      -8.0      2.043      3.525
REMARK  Name = 
REMARK  4 active torsions:
REMARK  status: ('A' for Active; 'I' for Inactive)
REMARK    1  A    between atoms: C_2  and  C_15
REMARK    2  A    between atoms: N_3  and  C_4
REMARK    3  A    between atoms: C_9  and  N_10
REMARK    4  A    between atoms: C_19  and  N_20
REMARK                            x       y       z     vdW  Elec       q    Type
REMARK                         _______ _______ _______ _____ _____    ______ ____
ROOT
ATOM      1  O   UNL     1       2.554   8.463  17.098  0.00  0.00    +0.000 OA
ATOM      2  C   UNL     1       2.558   7.828  18.148  0.00  0.00    +0.000 C 
ATOM      3  N   UNL     1       3.230   6.637  18.372  0.00  0.00    +0.000 N 
ATOM      4  H   UNL     1       3.112   6.183  19.274  0.00  0.00    +0.000 HD
ENDROOT
BRANCH   3   5
ATOM      5  C   UNL     1       4.049   5.924  17.454  0.00  0.00    +0.000 A 
ATOM      6  C   UNL     1       5.044   6.590  16.719  0.00  0.00    +0.000 A 
ATOM      7  C   UNL     1       5.870   5.916  15.819  0.00  0.00    +0.000 A 
ATOM      8  C   UNL     1       5.737   4.547  15.651  0.00  0.00    +0.000 A 
ATOM      9  C   UNL     1       4.760   3.855  16.365  0.00  0.00    +0.000 A 
ATOM     10  C   UNL     1       3.895   4.528  17.255  0.00  0.00    +0.000 A 
BRANCH  10  11
ATOM     11  N   UNL     1       2.851   3.778  17.874  0.00  0.00    +0.000 N 
ATOM     12  C   UNL     1       2.953   2.745  18.786  0.00  0.00    +0.000 A 
ATOM     13  C   UNL     1       1.664   2.317  18.986  0.00  0.00    +0.000 A 
ATOM     14  N   UNL     1       0.813   3.081  18.252  0.00  0.00    +0.000 NA
ATOM     15  N   UNL     1       1.534   3.971  17.587  0.00  0.00    +0.000 NA
ENDBRANCH  10  11
ENDBRANCH   3   5
BRANCH   2  16
ATOM     16  C   UNL     1       1.747   8.381  19.276  0.00  0.00    +0.000 A 
ATOM     17  C   UNL     1       1.691   7.627  20.453  0.00  0.00    +0.000 A 
ATOM     18  C   UNL     1       1.011   8.113  21.563  0.00  0.00    +0.000 A 
ATOM     19  C   UNL     1       0.393   9.365  21.508  0.00  0.00    +0.000 A 
ATOM     20  C   UNL     1       0.443  10.151  20.349  0.00  0.00    +0.000 A 
ATOM     21  C   UNL     1       1.119   9.634  19.229  0.00  0.00    +0.000 A 
BRANCH  20  22
ATOM     22  N   UNL     1      -0.131  11.453  20.308  0.00  0.00    +0.000 N 
ATOM     23  C   UNL     1       0.494  12.603  20.925  0.00  0.00    +0.000 C 
ATOM     24  C   UNL     1      -0.622  13.616  21.039  0.00  0.00    +0.000 C 
ATOM     25  C   UNL     1      -1.503  13.309  19.844  0.00  0.00    +0.000 C 
ATOM     26  C   UNL     1      -1.306  11.827  19.636  0.00  0.00    +0.000 C 
ATOM     27  O   UNL     1      -2.055  11.154  18.947  0.00  0.00    +0.000 OA
ENDBRANCH  20  22
ENDBRANCH   2  16
TORSDOF 4
ENDMDL
MODEL 5
REMARK VINA RESULT:      -7.9      2.079      3.689
REMARK  Name = 
REMARK  4 active torsions:
REMARK  status: ('A' for Active; 'I' for Inactive)
REMARK    1  A    between atoms: C_2  and  C_15
REMARK    2  A    between atoms: N_3  and  C_4
REMARK    3  A    between atoms: C_9  and  N_10
REMARK    4  A    between atoms: C_19  and  N_20
REMARK                            x       y       z     vdW  Elec       q    Type
REMARK                         _______ _______ _______ _____ _____    ______ ____
ROOT
ATOM      1  O   UNL     1       3.648   5.957  19.983  0.00  0.00    +0.000 OA
ATOM      2  C   UNL     1       3.018   6.623  19.166  0.00  0.00    +0.000 C 
ATOM      3  N   UNL     1       3.181   6.583  17.792  0.00  0.00    +0.000 N 
ATOM      4  H   UNL     1       2.630   7.223  17.225  0.00  0.00    +0.000 HD
ENDROOT
BRANCH   3   5
ATOM      5  C   UNL     1       4.084   5.769  17.054  0.00  0.00    +0.000 A 
ATOM      6  C   UNL     1       5.101   6.352  16.280  0.00  0.00    +0.000 A 
ATOM      7  C   UNL     1       6.009   5.580  15.555  0.00  0.00    +0.000 A 
ATOM      8  C   UNL     1       5.936   4.197  15.606  0.00  0.00    +0.000 A 
ATOM      9  C   UNL     1       4.939   3.586  16.364  0.00  0.00    +0.000 A 
ATOM     10  C   UNL     1       3.993   4.354  17.078  0.00  0.00    +0.000 A 
BRANCH  10  11
ATOM     11  N   UNL     1       2.938   3.666  17.748  0.00  0.00    +0.000 N 
ATOM     12  C   UNL     1       3.024   2.702  18.733  0.00  0.00    +0.000 A 
ATOM     13  C   UNL     1       1.728   2.309  18.962  0.00  0.00    +0.000 A 
ATOM     14  N   UNL     1       0.889   3.029  18.172  0.00  0.00    +0.000 NA
ATOM     15  N   UNL     1       1.624   3.857  17.445  0.00  0.00    +0.000 NA
ENDBRANCH  10  11
ENDBRANCH   3   5
BRANCH   2  16
ATOM     16  C   UNL     1       2.002   7.575  19.711  0.00  0.00    +0.000 A 
ATOM     17  C   UNL     1       1.422   7.254  20.943  0.00  0.00    +0.000 A 
ATOM     18  C   UNL     1       0.521   8.127  21.539  0.00  0.00    +0.000 A 
ATOM     19  C   UNL     1       0.204   9.336  20.914  0.00  0.00    +0.000 A 
ATOM     20  C   UNL     1       0.779   9.694  19.687  0.00  0.00    +0.000 A 
ATOM     21  C   UNL     1       1.674   8.788  19.089  0.00  0.00    +0.000 A 
BRANCH  20  22
ATOM     22  N   UNL     1       0.508  10.950  19.077  0.00  0.00    +0.000 N 
ATOM     23  C   UNL     1       1.544  11.915  18.780  0.00  0.00    +0.000 C 
ATOM     24  C   UNL     1       0.797  13.215  18.585  0.00  0.00    +0.000 C 
ATOM     25  C   UNL     1      -0.539  12.776  18.020  0.00  0.00    +0.000 C 
ATOM     26  C   UNL     1      -0.740  11.406  18.623  0.00  0.00    +0.000 C 
ATOM     27  O   UNL     1      -1.823  10.843  18.630  0.00  0.00    +0.000 OA
ENDBRANCH  20  22
ENDBRANCH   2  16
TORSDOF 4
ENDMDL
MODEL 6
REMARK VINA RESULT:      -7.9      2.061      3.552
REMARK  Name = 
REMARK  4 active torsions:
REMARK  status: ('A' for Active; 'I' for Inactive)
REMARK    1  A    between atoms: C_2  and  C_15
REMARK    2  A    between atoms: N_3  and  C_4
REMARK    3  A    between atoms: C_9  and  N_10
REMARK    4  A    between atoms: C_19  and  N_20
REMARK                            x       y       z     vdW  Elec       q    Type
REMARK                         _______ _______ _______ _____ _____    ______ ____
ROOT
ATOM      1  O   UNL     1       2.177   8.657  17.378  0.00  0.00    +0.000 OA
ATOM      2  C   UNL     1       2.267   8.112  18.475  0.00  0.00    +0.000 C 
ATOM      3  N   UNL     1       2.938   6.930  18.739  0.00  0.00    +0.000 N 
ATOM      4  H   UNL     1       2.896   6.555  19.684  0.00  0.00    +0.000 HD
ENDROOT
BRANCH   3   5
ATOM      5  C   UNL     1       3.660   6.123  17.816  0.00  0.00    +0.000 A 
ATOM      6  C   UNL     1       4.529   6.711  16.883  0.00  0.00    +0.000 A 
ATOM      7  C   UNL     1       5.259   5.946  15.973  0.00  0.00    +0.000 A 
ATOM      8  C   UNL     1       5.155   4.564  15.992  0.00  0.00    +0.000 A 
ATOM      9  C   UNL     1       4.301   3.948  16.905  0.00  0.00    +0.000 A 
ATOM     10  C   UNL     1       3.531   4.711  17.811  0.00  0.00    +0.000 A 
BRANCH  10  11
ATOM     11  N   UNL     1       2.602   4.024  18.647  0.00  0.00    +0.000 N 
ATOM     12  C   UNL     1       1.452   3.349  18.288  0.00  0.00    +0.000 A 
ATOM     13  C   UNL     1       0.883   2.956  19.475  0.00  0.00    +0.000 A 
ATOM     14  N   UNL     1       1.674   3.348  20.509  0.00  0.00    +0.000 NA
ATOM     15  N   UNL     1       2.719   3.986  20.004  0.00  0.00    +0.000 NA
ENDBRANCH  10  11
ENDBRANCH   3   5
BRANCH   2  16
ATOM     16  C   UNL     1       1.569   8.777  19.619  0.00  0.00    +0.000 A 
ATOM     17  C   UNL     1       1.469   8.054  20.813  0.00  0.00    +0.000 A 
ATOM     18  C   UNL     1       0.894   8.636  21.935  0.00  0.00    +0.000 A 
ATOM     19  C   UNL     1       0.427   9.952  21.876  0.00  0.00    +0.000 A 
ATOM     20  C   UNL     1       0.526  10.707  20.700  0.00  0.00    +0.000 A 
ATOM     21  C   UNL     1       1.093  10.095  19.568  0.00  0.00    +0.000 A 
BRANCH  20  22
ATOM     22  N   UNL     1       0.110  12.067  20.653  0.00  0.00    +0.000 N 
ATOM     23  C   UNL     1      -1.257  12.457  20.380  0.00  0.00    +0.000 C 
ATOM     24  C   UNL     1      -1.155  13.913  19.981  0.00  0.00    +0.000 C 
ATOM     25  C   UNL     1       0.031  14.417  20.780  0.00  0.00    +0.000 C 
ATOM     26  C   UNL     1       0.905  13.194  20.919  0.00  0.00    +0.000 C 
ATOM     27  O   UNL     1       2.076  13.256  21.258  0.00  0.00    +0.000 OA
ENDBRANCH  20  22
ENDBRANCH   2  16
TORSDOF 4
ENDMDL
MODEL 7
REMARK VINA RESULT:      -7.9      2.432      3.675
REMARK  Name = 
REMARK  4 active torsions:
REMARK  status: ('A' for Active; 'I' for Inactive)
REMARK    1  A    between atoms: C_2  and  C_15
REMARK    2  A    between atoms: N_3  and  C_4
REMARK    3  A    between atoms: C_9  and  N_10
REMARK    4  A    between atoms: C_19  and  N_20
REMARK                            x       y       z     vdW  Elec       q    Type
REMARK                         _______ _______ _______ _____ _____    ______ ____
ROOT
ATOM      1  O   UNL     1       4.009   7.429  17.043  0.00  0.00    +0.000 OA
ATOM      2  C   UNL     1       3.781   6.353  17.590  0.00  0.00    +0.000 C 
ATOM      3  N   UNL     1       4.290   5.124  17.204  0.00  0.00    +0.000 N 
ATOM      4  H   UNL     1       3.983   4.298  17.712  0.00  0.00    +0.000 HD
ENDROOT
BRANCH   3   5
ATOM      5  C   UNL     1       5.175   4.859  16.123  0.00  0.00    +0.000 A 
ATOM      6  C   UNL     1       4.688   4.331  14.916  0.00  0.00    +0.000 A 
ATOM      7  C   UNL     1       5.529   4.071  13.834  0.00  0.00    +0.000 A 
ATOM      8  C   UNL     1       6.882   4.358  13.925  0.00  0.00    +0.000 A 
ATOM      9  C   UNL     1       7.398   4.882  15.109  0.00  0.00    +0.000 A 
ATOM     10  C   UNL     1       6.565   5.122  16.224  0.00  0.00    +0.000 A 
BRANCH  10  11
ATOM     11  N   UNL     1       7.175   5.561  17.436  0.00  0.00    +0.000 N 
ATOM     12  C   UNL     1       7.590   6.832  17.783  0.00  0.00    +0.000 A 
ATOM     13  C   UNL     1       8.188   6.689  19.011  0.00  0.00    +0.000 A 
ATOM     14  N   UNL     1       8.109   5.391  19.406  0.00  0.00    +0.000 NA
ATOM     15  N   UNL     1       7.486   4.712  18.455  0.00  0.00    +0.000 NA
ENDBRANCH  10  11
ENDBRANCH   3   5
BRANCH   2  16
ATOM     16  C   UNL     1       2.854   6.376  18.764  0.00  0.00    +0.000 A 
ATOM     17  C   UNL     1       2.635   5.163  19.427  0.00  0.00    +0.000 A 
ATOM     18  C   UNL     1       1.839   5.124  20.565  0.00  0.00    +0.000 A 
ATOM     19  C   UNL     1       1.269   6.301  21.058  0.00  0.00    +0.000 A 
ATOM     20  C   UNL     1       1.481   7.533  20.425  0.00  0.00    +0.000 A 
ATOM     21  C   UNL     1       2.273   7.550  19.263  0.00  0.00    +0.000 A 
BRANCH  20  22
ATOM     22  N   UNL     1       0.954   8.743  20.958  0.00  0.00    +0.000 N 
ATOM     23  C   UNL     1       1.073   9.099  22.355  0.00  0.00    +0.000 C 
ATOM     24  C   UNL     1       0.024  10.170  22.555  0.00  0.00    +0.000 C 
ATOM     25  C   UNL     1      -0.036  10.865  21.209  0.00  0.00    +0.000 C 
ATOM     26  C   UNL     1       0.325   9.769  20.235  0.00  0.00    +0.000 C 
ATOM     27  O   UNL     1       0.118   9.861  19.035  0.00  0.00    +0.000 OA
ENDBRANCH  20  22
ENDBRANCH   2  16
TORSDOF 4
ENDMDL
MODEL 8
REMARK VINA RESULT:      -7.9      2.460      4.336
REMARK  Name = 
REMARK  4 active torsions:
REMARK  status: ('A' for Active; 'I' for Inactive)
REMARK    1  A    between atoms: C_2  and  C_15
REMARK    2  A    between atoms: N_3  and  C_4
REMARK    3  A    between atoms: C_9  and  N_10
REMARK    4  A    between atoms: C_19  and  N_20
REMARK                            x       y       z     vdW  Elec       q    Type
REMARK                         _______ _______ _______ _____ _____    ______ ____
ROOT
ATOM      1  O   UNL     1       4.118   2.946  17.617  0.00  0.00    +0.000 OA
ATOM      2  C   UNL     1       3.901   4.155  17.627  0.00  0.00    +0.000 C 
ATOM      3  N   UNL     1       4.440   5.081  16.750  0.00  0.00    +0.000 N 
ATOM      4  H   UNL     1       4.220   6.063  16.895  0.00  0.00    +0.000 HD
ENDROOT
BRANCH   3   5
ATOM      5  C   UNL     1       5.330   4.829  15.669  0.00  0.00    +0.000 A 
ATOM      6  C   UNL     1       4.876   4.186  14.506  0.00  0.00    +0.000 A 
ATOM      7  C   UNL     1       5.721   3.935  13.425  0.00  0.00    +0.000 A 
ATOM      8  C   UNL     1       7.043   4.347  13.472  0.00  0.00    +0.000 A 
ATOM      9  C   UNL     1       7.527   4.987  14.612  0.00  0.00    +0.000 A 
ATOM     10  C   UNL     1       6.692   5.220  15.726  0.00  0.00    +0.000 A 
BRANCH  10  11
ATOM     11  N   UNL     1       7.277   5.786  16.898  0.00  0.00    +0.000 N 
ATOM     12  C   UNL     1       7.548   5.180  18.108  0.00  0.00    +0.000 A 
ATOM     13  C   UNL     1       8.019   6.186  18.915  0.00  0.00    +0.000 A 
ATOM     14  N   UNL     1       8.064   7.348  18.211  0.00  0.00    +0.000 NA
ATOM     15  N   UNL     1       7.623   7.101  16.987  0.00  0.00    +0.000 NA
ENDBRANCH  10  11
ENDBRANCH   3   5
BRANCH   2  16
ATOM     16  C   UNL     1       2.991   4.669  18.695  0.00  0.00    +0.000 A 
ATOM     17  C   UNL     1       2.546   3.750  19.653  0.00  0.00    +0.000 A 
ATOM     18  C   UNL     1       1.753   4.173  20.711  0.00  0.00    +0.000 A 
ATOM     19  C   UNL     1       1.410   5.522  20.829  0.00  0.00    +0.000 A 
ATOM     20  C   UNL     1       1.850   6.470  19.896  0.00  0.00    +0.000 A 
ATOM     21  C   UNL     1       2.636   6.020  18.819  0.00  0.00    +0.000 A 
BRANCH  20  22
ATOM     22  N   UNL     1       1.556   7.854  20.046  0.00  0.00    +0.000 N 
ATOM     23  C   UNL     1       1.369   8.478  21.337  0.00  0.00    +0.000 C 
ATOM     24  C   UNL     1       0.651   9.772  21.024  0.00  0.00    +0.000 C 
ATOM     25  C   UNL     1       1.172  10.144  19.650  0.00  0.00    +0.000 C 
ATOM     26  C   UNL     1       1.471   8.806  19.017  0.00  0.00    +0.000 C 
ATOM     27  O   UNL     1       1.645   8.670  17.816  0.00  0.00    +0.000 OA
ENDBRANCH  20  22
ENDBRANCH   2  16
TORSDOF 4
ENDMDL
MODEL 9
REMARK VINA RESULT:      -7.8      2.093      3.647
REMARK  Name = 
REMARK  4 active torsions:
REMARK  status: ('A' for Active; 'I' for Inactive)
REMARK    1  A    between atoms: C_2  and  C_15
REMARK    2  A    between atoms: N_3  and  C_4
REMARK    3  A    between atoms: C_9  and  N_10
REMARK    4  A    between atoms: C_19  and  N_20
REMARK                            x       y       z     vdW  Elec       q    Type
REMARK                         _______ _______ _______ _____ _____    ______ ____
ROOT
ATOM      1  O   UNL     1       2.074   8.671  17.338  0.00  0.00    +0.000 OA
ATOM      2  C   UNL     1       2.176   8.165  18.452  0.00  0.00    +0.000 C 
ATOM      3  N   UNL     1       2.866   7.001  18.752  0.00  0.00    +0.000 N 
ATOM      4  H   UNL     1       2.833   6.658  19.709  0.00  0.00    +0.000 HD
ENDROOT
BRANCH   3   5
ATOM      5  C   UNL     1       3.595   6.175  17.853  0.00  0.00    +0.000 A 
ATOM      6  C   UNL     1       4.518   6.737  16.956  0.00  0.00    +0.000 A 
ATOM      7  C   UNL     1       5.255   5.951  16.070  0.00  0.00    +0.000 A 
ATOM      8  C   UNL     1       5.105   4.574  16.078  0.00  0.00    +0.000 A 
ATOM      9  C   UNL     1       4.196   3.983  16.954  0.00  0.00    +0.000 A 
ATOM     10  C   UNL     1       3.419   4.767  17.835  0.00  0.00    +0.000 A 
BRANCH  10  11
ATOM     11  N   UNL     1       2.436   4.109  18.632  0.00  0.00    +0.000 N 
ATOM     12  C   UNL     1       1.556   3.109  18.266  0.00  0.00    +0.000 A 
ATOM     13  C   UNL     1       0.772   2.901  19.375  0.00  0.00    +0.000 A 
ATOM     14  N   UNL     1       1.182   3.717  20.381  0.00  0.00    +0.000 NA
ATOM     15  N   UNL     1       2.197   4.441  19.931  0.00  0.00    +0.000 NA
ENDBRANCH  10  11
ENDBRANCH   3   5
BRANCH   2  16
ATOM     16  C   UNL     1       1.475   8.857  19.576  0.00  0.00    +0.000 A 
ATOM     17  C   UNL     1       1.385   8.171  20.792  0.00  0.00    +0.000 A 
ATOM     18  C   UNL     1       0.807   8.782  21.898  0.00  0.00    +0.000 A 
ATOM     19  C   UNL     1       0.326  10.090  21.799  0.00  0.00    +0.000 A 
ATOM     20  C   UNL     1       0.414  10.810  20.600  0.00  0.00    +0.000 A 
ATOM     21  C   UNL     1       0.985  10.168  19.486  0.00  0.00    +0.000 A 
BRANCH  20  22
ATOM     22  N   UNL     1      -0.017  12.163  20.511  0.00  0.00    +0.000 N 
ATOM     23  C   UNL     1       0.838  13.280  20.853  0.00  0.00    +0.000 C 
ATOM     24  C   UNL     1      -0.120  14.433  21.053  0.00  0.00    +0.000 C 
ATOM     25  C   UNL     1      -1.253  14.123  20.096  0.00  0.00    +0.000 C 
ATOM     26  C   UNL     1      -1.258  12.615  20.035  0.00  0.00    +0.000 C 
ATOM     27  O   UNL     1      -2.198  11.977  19.589  0.00  0.00    +0.000 OA
ENDBRANCH  20  22
ENDBRANCH   2  16
TORSDOF 4
ENDMDL
