MODEL 1
REMARK VINA RESULT:      -8.5      0.000      0.000
REMARK  Name = 
REMARK  6 active torsions:
REMARK  status: ('A' for Active; 'I' for Inactive)
REMARK    1  A    between atoms: C_1  and  N_2
REMARK    2  A    between atoms: C_6  and  C_7
REMARK    3  A    between atoms: C_7  and  C_8
REMARK    4  A    between atoms: C_8  and  C_9
REMARK    5  A    between atoms: C_13  and  N_14
REMARK    6  A    between atoms: C_20  and  C_21
REMARK                            x       y       z     vdW  Elec       q    Type
REMARK                         _______ _______ _______ _____ _____    ______ ____
ROOT
ATOM      1  C   UNL     1       1.079   9.337  20.267  0.00  0.00    +0.000 A 
ATOM      2  C   UNL     1       1.052  10.263  19.217  0.00  0.00    +0.000 A 
ATOM      3  C   UNL     1       1.449   9.874  17.956  0.00  0.00    +0.000 A 
ATOM      4  C   UNL     1       1.970   8.598  17.773  0.00  0.00    +0.000 A 
ATOM      5  C   UNL     1       2.264   7.738  18.845  0.00  0.00    +0.000 A 
ATOM      6  C   UNL     1       1.729   8.093  20.092  0.00  0.00    +0.000 A 
ENDROOT
BRANCH   5   7
ATOM      7  N   UNL     1       3.091   6.569  18.617  0.00  0.00    +0.000 N 
ATOM      8  C   UNL     1       3.818   6.446  17.283  0.00  0.00    +0.000 C 
ATOM      9  C   UNL     1       4.942   5.296  17.238  0.00  0.00    +0.000 A 
ATOM     10  C   UNL     1       5.810   5.446  18.320  0.00  0.00    +0.000 A 
ATOM     11  C   UNL     1       5.287   4.964  19.505  0.00  0.00    +0.000 A 
ATOM     12  C   UNL     1       4.008   4.385  19.393  0.00  0.00    +0.000 A 
ATOM     13  C   UNL     1       3.651   3.658  18.249  0.00  0.00    +0.000 A 
ATOM     14  C   UNL     1       4.333   4.043  17.108  0.00  0.00    +0.000 A 
ATOM     15  C   UNL     1       3.015   5.477  19.559  0.00  0.00    +0.000 C 
ATOM     16  O   UNL     1       2.251   5.313  20.500  0.00  0.00    +0.000 OA
BRANCH  13  17
ATOM     17  C   UNL     1       2.348   2.912  18.142  0.00  0.00    +0.000 C 
ATOM     18  F   UNL     1       1.291   3.645  17.708  0.00  0.00    +0.000 F 
ATOM     19  F   UNL     1       2.444   1.862  17.273  0.00  0.00    +0.000 F 
ATOM     20  F   UNL     1       1.963   2.370  19.328  0.00  0.00    +0.000 F 
ENDBRANCH  13  17
ENDBRANCH   5   7
BRANCH   1  21
ATOM     21  C   UNL     1       0.320   9.692  21.526  0.00  0.00    +0.000 C 
BRANCH  21  22
ATOM     22  C   UNL     1      -0.786  10.727  21.237  0.00  0.00    +0.000 C 
BRANCH  22  28
ATOM     23  C   UNL     1      -2.697  12.009  23.376  0.00  0.00    +0.000 C 
ATOM     24  N   UNL     1      -1.473  12.565  22.862  0.00  0.00    +0.000 N 
ATOM     25  C   UNL     1      -0.971  13.793  23.181  0.00  0.00    +0.000 A 
ATOM     26  N   UNL     1       0.170  13.973  22.562  0.00  0.00    +0.000 NA
ATOM     27  N   UNL     1       0.406  12.853  21.794  0.00  0.00    +0.000 NA
ATOM     28  C   UNL     1      -0.599  12.018  21.967  0.00  0.00    +0.000 A 
ENDBRANCH  22  28
ENDBRANCH  21  22
ENDBRANCH   1  21
TORSDOF 5
ENDMDL
MODEL 2
REMARK VINA RESULT:      -8.4      1.040      1.342
REMARK  Name = 
REMARK  6 active torsions:
REMARK  status: ('A' for Active; 'I' for Inactive)
REMARK    1  A    between atoms: C_1  and  N_2
REMARK    2  A    between atoms: C_6  and  C_7
REMARK    3  A    between atoms: C_7  and  C_8
REMARK    4  A    between atoms: C_8  and  C_9
REMARK    5  A    between atoms: C_13  and  N_14
REMARK    6  A    between atoms: C_20  and  C_21
REMARK                            x       y       z     vdW  Elec       q    Type
REMARK                         _______ _______ _______ _____ _____    ______ ____
ROOT
ATOM      1  C   UNL     1       1.018   9.095  20.231  0.00  0.00    +0.000 A 
ATOM      2  C   UNL     1       1.024  10.077  19.234  0.00  0.00    +0.000 A 
ATOM      3  C   UNL     1       1.519   9.775  17.984  0.00  0.00    +0.000 A 
ATOM      4  C   UNL     1       2.100   8.531  17.768  0.00  0.00    +0.000 A 
ATOM      5  C   UNL     1       2.356   7.622  18.809  0.00  0.00    +0.000 A 
ATOM      6  C   UNL     1       1.726   7.886  20.034  0.00  0.00    +0.000 A 
ENDROOT
BRANCH   5   7
ATOM      7  N   UNL     1       3.242   6.499  18.575  0.00  0.00    +0.000 N 
ATOM      8  C   UNL     1       3.937   6.394  17.222  0.00  0.00    +0.000 C 
ATOM      9  C   UNL     1       5.123   5.310  17.162  0.00  0.00    +0.000 A 
ATOM     10  C   UNL     1       6.012   5.527  18.215  0.00  0.00    +0.000 A 
ATOM     11  C   UNL     1       5.551   5.036  19.422  0.00  0.00    +0.000 A 
ATOM     12  C   UNL     1       4.305   4.384  19.356  0.00  0.00    +0.000 A 
ATOM     13  C   UNL     1       3.957   3.619  18.234  0.00  0.00    +0.000 A 
ATOM     14  C   UNL     1       4.584   4.022  17.068  0.00  0.00    +0.000 A 
ATOM     15  C   UNL     1       3.255   5.420  19.534  0.00  0.00    +0.000 C 
ATOM     16  O   UNL     1       2.529   5.229  20.500  0.00  0.00    +0.000 OA
BRANCH  13  17
ATOM     17  C   UNL     1       2.697   2.798  18.176  0.00  0.00    +0.000 C 
ATOM     18  F   UNL     1       1.598   3.449  17.716  0.00  0.00    +0.000 F 
ATOM     19  F   UNL     1       2.845   1.711  17.360  0.00  0.00    +0.000 F 
ATOM     20  F   UNL     1       2.350   2.296  19.391  0.00  0.00    +0.000 F 
ENDBRANCH  13  17
ENDBRANCH   5   7
BRANCH   1  21
ATOM     21  C   UNL     1       0.163   9.350  21.453  0.00  0.00    +0.000 C 
BRANCH  21  22
ATOM     22  C   UNL     1       0.170  10.843  21.836  0.00  0.00    +0.000 C 
BRANCH  22  28
ATOM     23  C   UNL     1      -1.710  12.547  19.985  0.00  0.00    +0.000 C 
ATOM     24  N   UNL     1      -1.959  12.153  21.347  0.00  0.00    +0.000 N 
ATOM     25  C   UNL     1      -3.045  12.520  22.087  0.00  0.00    +0.000 A 
ATOM     26  N   UNL     1      -2.974  11.965  23.271  0.00  0.00    +0.000 NA
ATOM     27  N   UNL     1      -1.800  11.245  23.322  0.00  0.00    +0.000 NA
ATOM     28  C   UNL     1      -1.186  11.380  22.163  0.00  0.00    +0.000 A 
ENDBRANCH  22  28
ENDBRANCH  21  22
ENDBRANCH   1  21
TORSDOF 5
ENDMDL
MODEL 3
REMARK VINA RESULT:      -8.4      1.959      2.998
REMARK  Name = 
REMARK  6 active torsions:
REMARK  status: ('A' for Active; 'I' for Inactive)
REMARK    1  A    between atoms: C_1  and  N_2
REMARK    2  A    between atoms: C_6  and  C_7
REMARK    3  A    between atoms: C_7  and  C_8
REMARK    4  A    between atoms: C_8  and  C_9
REMARK    5  A    between atoms: C_13  and  N_14
REMARK    6  A    between atoms: C_20  and  C_21
REMARK                            x       y       z     vdW  Elec       q    Type
REMARK                         _______ _______ _______ _____ _____    ______ ____
ROOT
ATOM      1  C   UNL     1       1.587   8.921  18.633  0.00  0.00    +0.000 A 
ATOM      2  C   UNL     1       2.737   9.231  17.896  0.00  0.00    +0.000 A 
ATOM      3  C   UNL     1       3.528   8.213  17.409  0.00  0.00    +0.000 A 
ATOM      4  C   UNL     1       3.228   6.900  17.748  0.00  0.00    +0.000 A 
ATOM      5  C   UNL     1       2.250   6.567  18.701  0.00  0.00    +0.000 A 
ATOM      6  C   UNL     1       1.371   7.595  19.075  0.00  0.00    +0.000 A 
ENDROOT
BRANCH   5   7
ATOM      7  N   UNL     1       2.207   5.223  19.242  0.00  0.00    +0.000 N 
ATOM      8  C   UNL     1       3.068   4.904  20.458  0.00  0.00    +0.000 C 
ATOM      9  C   UNL     1       2.727   3.503  21.171  0.00  0.00    +0.000 A 
ATOM     10  C   UNL     1       1.359   3.434  21.439  0.00  0.00    +0.000 A 
ATOM     11  C   UNL     1       0.604   3.114  20.327  0.00  0.00    +0.000 A 
ATOM     12  C   UNL     1       1.351   2.883  19.155  0.00  0.00    +0.000 A 
ATOM     13  C   UNL     1       2.606   2.262  19.218  0.00  0.00    +0.000 A 
ATOM     14  C   UNL     1       3.260   2.447  20.423  0.00  0.00    +0.000 A 
ATOM     15  C   UNL     1       1.533   4.195  18.483  0.00  0.00    +0.000 C 
ATOM     16  O   UNL     1       1.067   4.243  17.353  0.00  0.00    +0.000 OA
BRANCH  13  17
ATOM     17  C   UNL     1       3.377   1.876  17.984  0.00  0.00    +0.000 C 
ATOM     18  F   UNL     1       2.630   1.680  16.868  0.00  0.00    +0.000 F 
ATOM     19  F   UNL     1       4.293   2.832  17.647  0.00  0.00    +0.000 F 
ATOM     20  F   UNL     1       4.092   0.732  18.158  0.00  0.00    +0.000 F 
ENDBRANCH  13  17
ENDBRANCH   5   7
BRANCH   1  21
ATOM     21  C   UNL     1       0.577  10.026  18.843  0.00  0.00    +0.000 C 
BRANCH  21  22
ATOM     22  C   UNL     1       1.022  10.981  19.970  0.00  0.00    +0.000 C 
BRANCH  22  28
ATOM     23  C   UNL     1      -1.669  12.024  21.209  0.00  0.00    +0.000 C 
ATOM     24  N   UNL     1      -0.713  11.143  21.828  0.00  0.00    +0.000 N 
ATOM     25  C   UNL     1      -0.794  10.664  23.103  0.00  0.00    +0.000 A 
ATOM     26  N   UNL     1       0.220   9.868  23.335  0.00  0.00    +0.000 NA
ATOM     27  N   UNL     1       1.003   9.851  22.200  0.00  0.00    +0.000 NA
ATOM     28  C   UNL     1       0.441  10.638  21.304  0.00  0.00    +0.000 A 
ENDBRANCH  22  28
ENDBRANCH  21  22
ENDBRANCH   1  21
TORSDOF 5
ENDMDL
MODEL 4
REMARK VINA RESULT:      -8.4      0.807      1.271
REMARK  Name = 
REMARK  6 active torsions:
REMARK  status: ('A' for Active; 'I' for Inactive)
REMARK    1  A    between atoms: C_1  and  N_2
REMARK    2  A    between atoms: C_6  and  C_7
REMARK    3  A    between atoms: C_7  and  C_8
REMARK    4  A    between atoms: C_8  and  C_9
REMARK    5  A    between atoms: C_13  and  N_14
REMARK    6  A    between atoms: C_20  and  C_21
REMARK                            x       y       z     vdW  Elec       q    Type
REMARK                         _______ _______ _______ _____ _____    ______ ____
ROOT
ATOM      1  C   UNL     1       1.191   8.994  20.168  0.00  0.00    +0.000 A 
ATOM      2  C   UNL     1       1.132   9.933  19.132  0.00  0.00    +0.000 A 
ATOM      3  C   UNL     1       1.579   9.589  17.875  0.00  0.00    +0.000 A 
ATOM      4  C   UNL     1       2.179   8.350  17.684  0.00  0.00    +0.000 A 
ATOM      5  C   UNL     1       2.501   7.492  18.750  0.00  0.00    +0.000 A 
ATOM      6  C   UNL     1       1.918   7.793  19.989  0.00  0.00    +0.000 A 
ENDROOT
BRANCH   5   7
ATOM      7  N   UNL     1       3.401   6.378  18.523  0.00  0.00    +0.000 N 
ATOM      8  C   UNL     1       4.070   6.254  17.159  0.00  0.00    +0.000 C 
ATOM      9  C   UNL     1       5.273   5.189  17.099  0.00  0.00    +0.000 A 
ATOM     10  C   UNL     1       6.180   5.445  18.128  0.00  0.00    +0.000 A 
ATOM     11  C   UNL     1       5.752   4.976  19.356  0.00  0.00    +0.000 A 
ATOM     12  C   UNL     1       4.517   4.300  19.331  0.00  0.00    +0.000 A 
ATOM     13  C   UNL     1       4.160   3.503  18.234  0.00  0.00    +0.000 A 
ATOM     14  C   UNL     1       4.755   3.890  17.047  0.00  0.00    +0.000 A 
ATOM     15  C   UNL     1       3.453   5.322  19.507  0.00  0.00    +0.000 C 
ATOM     16  O   UNL     1       2.750   5.142  20.492  0.00  0.00    +0.000 OA
BRANCH  13  17
ATOM     17  C   UNL     1       2.913   2.660  18.222  0.00  0.00    +0.000 C 
ATOM     18  F   UNL     1       2.454   2.281  19.443  0.00  0.00    +0.000 F 
ATOM     19  F   UNL     1       1.871   3.316  17.630  0.00  0.00    +0.000 F 
ATOM     20  F   UNL     1       3.072   1.511  17.511  0.00  0.00    +0.000 F 
ENDBRANCH  13  17
ENDBRANCH   5   7
BRANCH   1  21
ATOM     21  C   UNL     1       0.385   9.282  21.415  0.00  0.00    +0.000 C 
BRANCH  21  22
ATOM     22  C   UNL     1      -0.846  10.153  21.093  0.00  0.00    +0.000 C 
BRANCH  22  28
ATOM     23  C   UNL     1      -1.122  12.983  19.760  0.00  0.00    +0.000 C 
ATOM     24  N   UNL     1      -0.909  12.699  21.155  0.00  0.00    +0.000 N 
ATOM     25  C   UNL     1      -0.723  13.635  22.130  0.00  0.00    +0.000 A 
ATOM     26  N   UNL     1      -0.588  13.037  23.288  0.00  0.00    +0.000 NA
ATOM     27  N   UNL     1      -0.652  11.678  23.065  0.00  0.00    +0.000 NA
ATOM     28  C   UNL     1      -0.827  11.484  21.772  0.00  0.00    +0.000 A 
ENDBRANCH  22  28
ENDBRANCH  21  22
ENDBRANCH   1  21
TORSDOF 5
ENDMDL
MODEL 5
REMARK VINA RESULT:      -8.3      3.154      4.531
REMARK  Name = 
REMARK  6 active torsions:
REMARK  status: ('A' for Active; 'I' for Inactive)
REMARK    1  A    between atoms: C_1  and  N_2
REMARK    2  A    between atoms: C_6  and  C_7
REMARK    3  A    between atoms: C_7  and  C_8
REMARK    4  A    between atoms: C_8  and  C_9
REMARK    5  A    between atoms: C_13  and  N_14
REMARK    6  A    between atoms: C_20  and  C_21
REMARK                            x       y       z     vdW  Elec       q    Type
REMARK                         _______ _______ _______ _____ _____    ______ ____
ROOT
ATOM      1  C   UNL     1       1.704   5.863  20.421  0.00  0.00    +0.000 A 
ATOM      2  C   UNL     1       1.042   4.629  20.433  0.00  0.00    +0.000 A 
ATOM      3  C   UNL     1       1.638   3.531  19.852  0.00  0.00    +0.000 A 
ATOM      4  C   UNL     1       2.838   3.693  19.170  0.00  0.00    +0.000 A 
ATOM      5  C   UNL     1       3.395   4.956  18.904  0.00  0.00    +0.000 A 
ATOM      6  C   UNL     1       2.854   6.037  19.616  0.00  0.00    +0.000 A 
ENDROOT
BRANCH   5   7
ATOM      7  N   UNL     1       4.459   5.076  17.927  0.00  0.00    +0.000 N 
ATOM      8  C   UNL     1       5.519   3.981  17.871  0.00  0.00    +0.000 C 
ATOM      9  C   UNL     1       6.466   4.032  16.573  0.00  0.00    +0.000 A 
ATOM     10  C   UNL     1       5.681   4.089  15.421  0.00  0.00    +0.000 A 
ATOM     11  C   UNL     1       5.178   5.351  15.170  0.00  0.00    +0.000 A 
ATOM     12  C   UNL     1       5.578   6.339  16.091  0.00  0.00    +0.000 A 
ATOM     13  C   UNL     1       6.861   6.314  16.653  0.00  0.00    +0.000 A 
ATOM     14  C   UNL     1       7.417   5.049  16.720  0.00  0.00    +0.000 A 
ATOM     15  C   UNL     1       4.599   6.321  17.209  0.00  0.00    +0.000 C 
ATOM     16  O   UNL     1       4.014   7.383  17.372  0.00  0.00    +0.000 OA
BRANCH  13  17
ATOM     17  C   UNL     1       7.377   7.419  17.536  0.00  0.00    +0.000 C 
ATOM     18  F   UNL     1       6.493   8.415  17.800  0.00  0.00    +0.000 F 
ATOM     19  F   UNL     1       7.764   6.944  18.758  0.00  0.00    +0.000 F 
ATOM     20  F   UNL     1       8.477   8.027  17.016  0.00  0.00    +0.000 F 
ENDBRANCH  13  17
ENDBRANCH   5   7
BRANCH   1  21
ATOM     21  C   UNL     1       1.192   6.936  21.355  0.00  0.00    +0.000 C 
BRANCH  21  22
ATOM     22  C   UNL     1       1.343   8.338  20.731  0.00  0.00    +0.000 C 
BRANCH  22  28
ATOM     23  C   UNL     1      -0.627  10.438  19.476  0.00  0.00    +0.000 C 
ATOM     24  N   UNL     1      -0.253  10.319  20.861  0.00  0.00    +0.000 N 
ATOM     25  C   UNL     1      -0.653  11.158  21.860  0.00  0.00    +0.000 A 
ATOM     26  N   UNL     1      -0.157  10.747  23.000  0.00  0.00    +0.000 NA
ATOM     27  N   UNL     1       0.613   9.634  22.741  0.00  0.00    +0.000 NA
ATOM     28  C   UNL     1       0.564   9.394  21.445  0.00  0.00    +0.000 A 
ENDBRANCH  22  28
ENDBRANCH  21  22
ENDBRANCH   1  21
TORSDOF 5
ENDMDL
MODEL 6
REMARK VINA RESULT:      -8.3      2.800      3.605
REMARK  Name = 
REMARK  6 active torsions:
REMARK  status: ('A' for Active; 'I' for Inactive)
REMARK    1  A    between atoms: C_1  and  N_2
REMARK    2  A    between atoms: C_6  and  C_7
REMARK    3  A    between atoms: C_7  and  C_8
REMARK    4  A    between atoms: C_8  and  C_9
REMARK    5  A    between atoms: C_13  and  N_14
REMARK    6  A    between atoms: C_20  and  C_21
REMARK                            x       y       z     vdW  Elec       q    Type
REMARK                         _______ _______ _______ _____ _____    ______ ____
ROOT
ATOM      1  C   UNL     1       0.286   9.631  18.963  0.00  0.00    +0.000 A 
ATOM      2  C   UNL     1       0.028   9.673  20.338  0.00  0.00    +0.000 A 
ATOM      3  C   UNL     1       0.861   9.003  21.208  0.00  0.00    +0.000 A 
ATOM      4  C   UNL     1       1.881   8.211  20.694  0.00  0.00    +0.000 A 
ATOM      5  C   UNL     1       2.005   7.928  19.323  0.00  0.00    +0.000 A 
ATOM      6  C   UNL     1       1.242   8.722  18.453  0.00  0.00    +0.000 A 
ENDROOT
BRANCH   5   7
ATOM      7  N   UNL     1       2.878   6.855  18.891  0.00  0.00    +0.000 N 
ATOM      8  C   UNL     1       3.536   6.964  17.520  0.00  0.00    +0.000 C 
ATOM      9  C   UNL     1       4.713   5.902  17.256  0.00  0.00    +0.000 A 
ATOM     10  C   UNL     1       5.632   5.950  18.306  0.00  0.00    +0.000 A 
ATOM     11  C   UNL     1       5.202   5.275  19.433  0.00  0.00    +0.000 A 
ATOM     12  C   UNL     1       3.951   4.642  19.299  0.00  0.00    +0.000 A 
ATOM     13  C   UNL     1       3.569   4.064  18.081  0.00  0.00    +0.000 A 
ATOM     14  C   UNL     1       4.165   4.645  16.976  0.00  0.00    +0.000 A 
ATOM     15  C   UNL     1       2.912   5.638  19.668  0.00  0.00    +0.000 C 
ATOM     16  O   UNL     1       2.211   5.298  20.611  0.00  0.00    +0.000 OA
BRANCH  13  17
ATOM     17  C   UNL     1       2.303   3.263  17.930  0.00  0.00    +0.000 C 
ATOM     18  F   UNL     1       2.367   2.233  17.048  0.00  0.00    +0.000 F 
ATOM     19  F   UNL     1       1.921   2.703  19.117  0.00  0.00    +0.000 F 
ATOM     20  F   UNL     1       1.251   4.028  17.532  0.00  0.00    +0.000 F 
ENDBRANCH  13  17
ENDBRANCH   5   7
BRANCH   1  21
ATOM     21  C   UNL     1      -0.424  10.643  18.091  0.00  0.00    +0.000 C 
BRANCH  21  22
ATOM     22  C   UNL     1      -1.531   9.975  17.251  0.00  0.00    +0.000 C 
BRANCH  22  28
ATOM     23  C   UNL     1      -3.605  10.424  14.935  0.00  0.00    +0.000 C 
ATOM     24  N   UNL     1      -3.705  10.894  16.292  0.00  0.00    +0.000 N 
ATOM     25  C   UNL     1      -4.707  11.681  16.780  0.00  0.00    +0.000 A 
ATOM     26  N   UNL     1      -4.507  11.899  18.057  0.00  0.00    +0.000 NA
ATOM     27  N   UNL     1      -3.332  11.269  18.407  0.00  0.00    +0.000 NA
ATOM     28  C   UNL     1      -2.846  10.681  17.331  0.00  0.00    +0.000 A 
ENDBRANCH  22  28
ENDBRANCH  21  22
ENDBRANCH   1  21
TORSDOF 5
ENDMDL
MODEL 7
REMARK VINA RESULT:      -8.3      2.297      2.798
REMARK  Name = 
REMARK  6 active torsions:
REMARK  status: ('A' for Active; 'I' for Inactive)
REMARK    1  A    between atoms: C_1  and  N_2
REMARK    2  A    between atoms: C_6  and  C_7
REMARK    3  A    between atoms: C_7  and  C_8
REMARK    4  A    between atoms: C_8  and  C_9
REMARK    5  A    between atoms: C_13  and  N_14
REMARK    6  A    between atoms: C_20  and  C_21
REMARK                            x       y       z     vdW  Elec       q    Type
REMARK                         _______ _______ _______ _____ _____    ______ ____
ROOT
ATOM      1  C   UNL     1       0.746   9.679  19.274  0.00  0.00    +0.000 A 
ATOM      2  C   UNL     1       0.157   9.448  20.522  0.00  0.00    +0.000 A 
ATOM      3  C   UNL     1       0.662   8.461  21.341  0.00  0.00    +0.000 A 
ATOM      4  C   UNL     1       1.680   7.643  20.867  0.00  0.00    +0.000 A 
ATOM      5  C   UNL     1       2.111   7.666  19.530  0.00  0.00    +0.000 A 
ATOM      6  C   UNL     1       1.689   8.759  18.759  0.00  0.00    +0.000 A 
ENDROOT
BRANCH   5   7
ATOM      7  N   UNL     1       2.936   6.585  19.026  0.00  0.00    +0.000 N 
ATOM      8  C   UNL     1       3.458   6.678  17.597  0.00  0.00    +0.000 C 
ATOM      9  C   UNL     1       4.602   5.609  17.232  0.00  0.00    +0.000 A 
ATOM     10  C   UNL     1       5.618   5.663  18.188  0.00  0.00    +0.000 A 
ATOM     11  C   UNL     1       5.297   5.002  19.358  0.00  0.00    +0.000 A 
ATOM     12  C   UNL     1       4.037   4.372  19.352  0.00  0.00    +0.000 A 
ATOM     13  C   UNL     1       3.538   3.783  18.183  0.00  0.00    +0.000 A 
ATOM     14  C   UNL     1       4.026   4.351  17.019  0.00  0.00    +0.000 A 
ATOM     15  C   UNL     1       3.041   5.376  19.809  0.00  0.00    +0.000 C 
ATOM     16  O   UNL     1       2.434   5.048  20.819  0.00  0.00    +0.000 OA
BRANCH  13  17
ATOM     17  C   UNL     1       2.261   2.986  18.162  0.00  0.00    +0.000 C 
ATOM     18  F   UNL     1       1.139   3.689  17.864  0.00  0.00    +0.000 F 
ATOM     19  F   UNL     1       2.315   1.979  17.240  0.00  0.00    +0.000 F 
ATOM     20  F   UNL     1       2.012   2.377  19.353  0.00  0.00    +0.000 F 
ENDBRANCH  13  17
ENDBRANCH   5   7
BRANCH   1  21
ATOM     21  C   UNL     1       0.400  10.972  18.570  0.00  0.00    +0.000 C 
BRANCH  21  22
ATOM     22  C   UNL     1      -0.783  11.682  19.260  0.00  0.00    +0.000 C 
BRANCH  22  28
ATOM     23  C   UNL     1      -3.643  12.587  20.191  0.00  0.00    +0.000 C 
ATOM     24  N   UNL     1      -3.296  11.958  18.943  0.00  0.00    +0.000 N 
ATOM     25  C   UNL     1      -4.182  11.588  17.974  0.00  0.00    +0.000 A 
ATOM     26  N   UNL     1      -3.530  11.073  16.961  0.00  0.00    +0.000 NA
ATOM     27  N   UNL     1      -2.191  11.073  17.285  0.00  0.00    +0.000 NA
ATOM     28  C   UNL     1      -2.061  11.592  18.490  0.00  0.00    +0.000 A 
ENDBRANCH  22  28
ENDBRANCH  21  22
ENDBRANCH   1  21
TORSDOF 5
ENDMDL
MODEL 8
REMARK VINA RESULT:      -8.2      5.559      6.927
REMARK  Name = 
REMARK  6 active torsions:
REMARK  status: ('A' for Active; 'I' for Inactive)
REMARK    1  A    between atoms: C_1  and  N_2
REMARK    2  A    between atoms: C_6  and  C_7
REMARK    3  A    between atoms: C_7  and  C_8
REMARK    4  A    between atoms: C_8  and  C_9
REMARK    5  A    between atoms: C_13  and  N_14
REMARK    6  A    between atoms: C_20  and  C_21
REMARK                            x       y       z     vdW  Elec       q    Type
REMARK                         _______ _______ _______ _____ _____    ______ ____
ROOT
ATOM      1  C   UNL     1       7.191   7.254  18.132  0.00  0.00    +0.000 A 
ATOM      2  C   UNL     1       8.226   6.608  18.819  0.00  0.00    +0.000 A 
ATOM      3  C   UNL     1       8.112   5.269  19.120  0.00  0.00    +0.000 A 
ATOM      4  C   UNL     1       6.924   4.608  18.828  0.00  0.00    +0.000 A 
ATOM      5  C   UNL     1       5.770   5.279  18.389  0.00  0.00    +0.000 A 
ATOM      6  C   UNL     1       5.947   6.604  17.961  0.00  0.00    +0.000 A 
ENDROOT
BRANCH   5   7
ATOM      7  N   UNL     1       4.493   4.595  18.411  0.00  0.00    +0.000 N 
ATOM      8  C   UNL     1       3.261   5.344  17.914  0.00  0.00    +0.000 C 
ATOM      9  C   UNL     1       1.965   4.421  17.683  0.00  0.00    +0.000 A 
ATOM     10  C   UNL     1       2.302   3.332  16.877  0.00  0.00    +0.000 A 
ATOM     11  C   UNL     1       2.960   2.331  17.567  0.00  0.00    +0.000 A 
ATOM     12  C   UNL     1       3.130   2.577  18.943  0.00  0.00    +0.000 A 
ATOM     13  C   UNL     1       2.143   3.252  19.676  0.00  0.00    +0.000 A 
ATOM     14  C   UNL     1       1.375   4.114  18.914  0.00  0.00    +0.000 A 
ATOM     15  C   UNL     1       4.400   3.330  19.102  0.00  0.00    +0.000 C 
ATOM     16  O   UNL     1       5.228   2.764  19.803  0.00  0.00    +0.000 OA
BRANCH  13  17
ATOM     17  C   UNL     1       2.221   3.419  21.170  0.00  0.00    +0.000 C 
ATOM     18  F   UNL     1       3.074   2.576  21.807  0.00  0.00    +0.000 F 
ATOM     19  F   UNL     1       2.630   4.678  21.511  0.00  0.00    +0.000 F 
ATOM     20  F   UNL     1       1.014   3.252  21.773  0.00  0.00    +0.000 F 
ENDBRANCH  13  17
ENDBRANCH   5   7
BRANCH   1  21
ATOM     21  C   UNL     1       7.497   8.604  17.523  0.00  0.00    +0.000 C 
BRANCH  21  22
ATOM     22  C   UNL     1       8.572   9.352  18.338  0.00  0.00    +0.000 C 
BRANCH  22  28
ATOM     23  C   UNL     1      10.902  11.330  19.062  0.00  0.00    +0.000 C 
ATOM     24  N   UNL     1       9.682  11.645  18.367  0.00  0.00    +0.000 N 
ATOM     25  C   UNL     1       9.305  12.893  17.963  0.00  0.00    +0.000 A 
ATOM     26  N   UNL     1       8.156  12.820  17.337  0.00  0.00    +0.000 NA
ATOM     27  N   UNL     1       7.753  11.503  17.360  0.00  0.00    +0.000 NA
ATOM     28  C   UNL     1       8.671  10.805  18.000  0.00  0.00    +0.000 A 
ENDBRANCH  22  28
ENDBRANCH  21  22
ENDBRANCH   1  21
TORSDOF 5
ENDMDL
MODEL 9
REMARK VINA RESULT:      -8.2      2.041      2.729
REMARK  Name = 
REMARK  6 active torsions:
REMARK  status: ('A' for Active; 'I' for Inactive)
REMARK    1  A    between atoms: C_1  and  N_2
REMARK    2  A    between atoms: C_6  and  C_7
REMARK    3  A    between atoms: C_7  and  C_8
REMARK    4  A    between atoms: C_8  and  C_9
REMARK    5  A    between atoms: C_13  and  N_14
REMARK    6  A    between atoms: C_20  and  C_21
REMARK                            x       y       z     vdW  Elec       q    Type
REMARK                         _______ _______ _______ _____ _____    ______ ____
ROOT
ATOM      1  C   UNL     1       0.610   9.657  19.366  0.00  0.00    +0.000 A 
ATOM      2  C   UNL     1       0.111   9.443  20.657  0.00  0.00    +0.000 A 
ATOM      3  C   UNL     1       0.709   8.506  21.471  0.00  0.00    +0.000 A 
ATOM      4  C   UNL     1       1.730   7.715  20.958  0.00  0.00    +0.000 A 
ATOM      5  C   UNL     1       2.076   7.712  19.596  0.00  0.00    +0.000 A 
ATOM      6  C   UNL     1       1.559   8.760  18.821  0.00  0.00    +0.000 A 
ENDROOT
BRANCH   5   7
ATOM      7  N   UNL     1       2.914   6.650  19.074  0.00  0.00    +0.000 N 
ATOM      8  C   UNL     1       3.473   6.796  17.663  0.00  0.00    +0.000 C 
ATOM      9  C   UNL     1       4.627   5.741  17.288  0.00  0.00    +0.000 A 
ATOM     10  C   UNL     1       5.618   5.761  18.271  0.00  0.00    +0.000 A 
ATOM     11  C   UNL     1       5.267   5.056  19.407  0.00  0.00    +0.000 A 
ATOM     12  C   UNL     1       4.009   4.427  19.346  0.00  0.00    +0.000 A 
ATOM     13  C   UNL     1       3.540   3.882  18.143  0.00  0.00    +0.000 A 
ATOM     14  C   UNL     1       4.057   4.492  17.014  0.00  0.00    +0.000 A 
ATOM     15  C   UNL     1       3.001   5.413  19.814  0.00  0.00    +0.000 C 
ATOM     16  O   UNL     1       2.368   5.048  20.795  0.00  0.00    +0.000 OA
BRANCH  13  17
ATOM     17  C   UNL     1       2.265   3.086  18.061  0.00  0.00    +0.000 C 
ATOM     18  F   UNL     1       1.890   2.466  19.209  0.00  0.00    +0.000 F 
ATOM     19  F   UNL     1       1.205   3.874  17.710  0.00  0.00    +0.000 F 
ATOM     20  F   UNL     1       2.323   2.111  17.114  0.00  0.00    +0.000 F 
ENDBRANCH  13  17
ENDBRANCH   5   7
BRANCH   1  21
ATOM     21  C   UNL     1       0.164  10.910  18.647  0.00  0.00    +0.000 C 
BRANCH  21  22
ATOM     22  C   UNL     1      -1.233  10.726  18.020  0.00  0.00    +0.000 C 
BRANCH  22  28
ATOM     23  C   UNL     1      -4.278  10.898  17.267  0.00  0.00    +0.000 C 
ATOM     24  N   UNL     1      -3.630  11.500  18.403  0.00  0.00    +0.000 N 
ATOM     25  C   UNL     1      -4.236  12.313  19.316  0.00  0.00    +0.000 A 
ATOM     26  N   UNL     1      -3.368  12.662  20.233  0.00  0.00    +0.000 NA
ATOM     27  N   UNL     1      -2.158  12.094  19.898  0.00  0.00    +0.000 NA
ATOM     28  C   UNL     1      -2.321  11.410  18.782  0.00  0.00    +0.000 A 
ENDBRANCH  22  28
ENDBRANCH  21  22
ENDBRANCH   1  21
TORSDOF 5
ENDMDL
