MODEL 1
REMARK VINA RESULT:      -8.5      0.000      0.000
REMARK  Name = 
REMARK  3 active torsions:
REMARK  status: ('A' for Active; 'I' for Inactive)
REMARK    1  A    between atoms: C_2  and  C_3
REMARK    2  A    between atoms: C_5  and  C_6
REMARK    3  A    between atoms: C_18  and  C_19
REMARK                            x       y       z     vdW  Elec       q    Type
REMARK                         _______ _______ _______ _____ _____    ______ ____
ROOT
ATOM      1  O   UNL     1       4.719   6.181  19.857  0.00  0.00    +0.000 OA
ATOM      2  C   UNL     1       3.667   6.129  19.215  0.00  0.00    +0.000 C 
ATOM      3  N   UNL     1       3.420   5.028  18.385  0.00  0.00    +0.000 N 
ATOM      4  C   UNL     1       2.182   4.707  17.695  0.00  0.00    +0.000 C 
ATOM      5  C   UNL     1       2.047   3.202  17.789  0.00  0.00    +0.000 C 
ATOM      6  C   UNL     1       3.481   2.709  17.823  0.00  0.00    +0.000 C 
ATOM      7  C   UNL     1       4.274   3.845  18.496  0.00  0.00    +0.000 C 
ENDROOT
BRANCH   7   8
ATOM      8  C   UNL     1       5.600   4.007  17.825  0.00  0.00    +0.000 A 
ATOM      9  N   UNL     1       6.761   4.207  18.428  0.00  0.00    +0.000 NA
ATOM     10  N   UNL     1       7.693   4.554  17.479  0.00  0.00    +0.000 NA
ATOM     11  C   UNL     1       7.097   4.543  16.308  0.00  0.00    +0.000 A 
ATOM     12  C   UNL     1       7.549   4.854  14.996  0.00  0.00    +0.000 A 
ATOM     13  C   UNL     1       6.699   4.758  13.956  0.00  0.00    +0.000 A 
ATOM     14  C   UNL     1       5.322   4.324  14.143  0.00  0.00    +0.000 A 
ATOM     15  C   UNL     1       4.889   4.040  15.385  0.00  0.00    +0.000 A 
ATOM     16  N   UNL     1       5.771   4.158  16.461  0.00  0.00    +0.000 N 
ENDBRANCH   7   8
BRANCH   2  17
ATOM     17  C   UNL     1       2.589   7.140  19.402  0.00  0.00    +0.000 A 
ATOM     18  C   UNL     1       1.769   7.418  20.533  0.00  0.00    +0.000 A 
ATOM     19  C   UNL     1       1.121   8.608  20.269  0.00  0.00    +0.000 A 
ATOM     20  N   UNL     1       1.433   8.876  18.964  0.00  0.00    +0.000 N 
ATOM     21  N   UNL     1       2.315   8.025  18.422  0.00  0.00    +0.000 NA
ATOM     22  H   UNL     1       1.124   9.662  18.403  0.00  0.00    +0.000 HD
BRANCH  19  23
ATOM     23  C   UNL     1       0.328   9.492  21.121  0.00  0.00    +0.000 A 
ATOM     24  C   UNL     1      -0.228  10.667  20.588  0.00  0.00    +0.000 A 
ATOM     25  C   UNL     1      -1.001  11.519  21.380  0.00  0.00    +0.000 A 
ATOM     26  C   UNL     1      -1.226  11.206  22.721  0.00  0.00    +0.000 A 
ATOM     27  C   UNL     1      -0.685  10.044  23.261  0.00  0.00    +0.000 A 
ATOM     28  C   UNL     1       0.085   9.188  22.466  0.00  0.00    +0.000 A 
ENDBRANCH  19  23
ENDBRANCH   2  17
TORSDOF 3
ENDMDL
MODEL 2
REMARK VINA RESULT:      -8.4      4.161      6.743
REMARK  Name = 
REMARK  3 active torsions:
REMARK  status: ('A' for Active; 'I' for Inactive)
REMARK    1  A    between atoms: C_2  and  C_3
REMARK    2  A    between atoms: C_5  and  C_6
REMARK    3  A    between atoms: C_18  and  C_19
REMARK                            x       y       z     vdW  Elec       q    Type
REMARK                         _______ _______ _______ _____ _____    ______ ____
ROOT
ATOM      1  O   UNL     1       4.764   6.177  18.389  0.00  0.00    +0.000 OA
ATOM      2  C   UNL     1       5.839   6.030  17.803  0.00  0.00    +0.000 C 
ATOM      3  N   UNL     1       5.959   5.038  16.822  0.00  0.00    +0.000 N 
ATOM      4  C   UNL     1       7.074   4.830  15.914  0.00  0.00    +0.000 C 
ATOM      5  C   UNL     1       6.450   4.438  14.592  0.00  0.00    +0.000 C 
ATOM      6  C   UNL     1       5.171   3.727  14.990  0.00  0.00    +0.000 C 
ATOM      7  C   UNL     1       4.752   4.382  16.319  0.00  0.00    +0.000 C 
ENDROOT
BRANCH   7   8
ATOM      8  C   UNL     1       4.212   3.344  17.249  0.00  0.00    +0.000 A 
ATOM      9  N   UNL     1       4.596   2.078  17.314  0.00  0.00    +0.000 NA
ATOM     10  N   UNL     1       3.705   1.391  18.104  0.00  0.00    +0.000 NA
ATOM     11  C   UNL     1       2.801   2.245  18.527  0.00  0.00    +0.000 A 
ATOM     12  C   UNL     1       1.634   2.094  19.327  0.00  0.00    +0.000 A 
ATOM     13  C   UNL     1       0.871   3.168  19.604  0.00  0.00    +0.000 A 
ATOM     14  C   UNL     1       1.223   4.493  19.114  0.00  0.00    +0.000 A 
ATOM     15  C   UNL     1       2.319   4.636  18.347  0.00  0.00    +0.000 A 
ATOM     16  N   UNL     1       3.098   3.515  18.049  0.00  0.00    +0.000 N 
ENDBRANCH   7   8
BRANCH   2  17
ATOM     17  C   UNL     1       6.977   6.968  18.015  0.00  0.00    +0.000 A 
ATOM     18  C   UNL     1       7.192   8.286  17.519  0.00  0.00    +0.000 A 
ATOM     19  C   UNL     1       8.266   8.801  18.218  0.00  0.00    +0.000 A 
ATOM     20  N   UNL     1       8.737   7.738  18.939  0.00  0.00    +0.000 N 
ATOM     21  N   UNL     1       7.984   6.633  18.847  0.00  0.00    +0.000 NA
ATOM     22  H   UNL     1       9.536   7.719  19.563  0.00  0.00    +0.000 HD
BRANCH  19  23
ATOM     23  C   UNL     1       8.811  10.155  18.302  0.00  0.00    +0.000 A 
ATOM     24  C   UNL     1       8.208  11.200  17.583  0.00  0.00    +0.000 A 
ATOM     25  C   UNL     1       8.703  12.503  17.660  0.00  0.00    +0.000 A 
ATOM     26  C   UNL     1       9.814  12.778  18.460  0.00  0.00    +0.000 A 
ATOM     27  C   UNL     1      10.417  11.754  19.180  0.00  0.00    +0.000 A 
ATOM     28  C   UNL     1       9.918  10.449  19.107  0.00  0.00    +0.000 A 
ENDBRANCH  19  23
ENDBRANCH   2  17
TORSDOF 3
ENDMDL
MODEL 3
REMARK VINA RESULT:      -7.9      2.706      9.633
REMARK  Name = 
REMARK  3 active torsions:
REMARK  status: ('A' for Active; 'I' for Inactive)
REMARK    1  A    between atoms: C_2  and  C_3
REMARK    2  A    between atoms: C_5  and  C_6
REMARK    3  A    between atoms: C_18  and  C_19
REMARK                            x       y       z     vdW  Elec       q    Type
REMARK                         _______ _______ _______ _____ _____    ______ ____
ROOT
ATOM      1  O   UNL     1       0.409   9.189  21.023  0.00  0.00    +0.000 OA
ATOM      2  C   UNL     1       1.021   9.178  19.951  0.00  0.00    +0.000 C 
ATOM      3  N   UNL     1       1.107  10.354  19.196  0.00  0.00    +0.000 N 
ATOM      4  C   UNL     1       1.919  10.580  18.012  0.00  0.00    +0.000 C 
ATOM      5  C   UNL     1       2.437  11.996  18.144  0.00  0.00    +0.000 C 
ATOM      6  C   UNL     1       1.348  12.712  18.919  0.00  0.00    +0.000 C 
ATOM      7  C   UNL     1       0.714  11.625  19.805  0.00  0.00    +0.000 C 
ENDROOT
BRANCH   7   8
ATOM      8  C   UNL     1      -0.767  11.818  19.866  0.00  0.00    +0.000 A 
ATOM      9  N   UNL     1      -1.576  11.978  18.831  0.00  0.00    +0.000 NA
ATOM     10  N   UNL     1      -2.808  12.373  19.296  0.00  0.00    +0.000 NA
ATOM     11  C   UNL     1      -2.743  12.432  20.606  0.00  0.00    +0.000 A 
ATOM     12  C   UNL     1      -3.686  12.815  21.600  0.00  0.00    +0.000 A 
ATOM     13  C   UNL     1      -3.336  12.783  22.900  0.00  0.00    +0.000 A 
ATOM     14  C   UNL     1      -2.011  12.346  23.317  0.00  0.00    +0.000 A 
ATOM     15  C   UNL     1      -1.114  11.995  22.378  0.00  0.00    +0.000 A 
ATOM     16  N   UNL     1      -1.478  12.046  21.030  0.00  0.00    +0.000 N 
ENDBRANCH   7   8
BRANCH   2  17
ATOM     17  C   UNL     1       1.785   7.981  19.503  0.00  0.00    +0.000 A 
ATOM     18  C   UNL     1       2.213   7.593  18.200  0.00  0.00    +0.000 A 
ATOM     19  C   UNL     1       3.098   6.547  18.370  0.00  0.00    +0.000 A 
ATOM     20  N   UNL     1       3.015   6.251  19.703  0.00  0.00    +0.000 N 
ATOM     21  N   UNL     1       2.248   7.095  20.408  0.00  0.00    +0.000 NA
ATOM     22  H   UNL     1       3.506   5.521  20.207  0.00  0.00    +0.000 HD
BRANCH  19  23
ATOM     23  C   UNL     1       4.009   5.884  17.438  0.00  0.00    +0.000 A 
ATOM     24  C   UNL     1       4.077   4.482  17.402  0.00  0.00    +0.000 A 
ATOM     25  C   UNL     1       4.930   3.828  16.510  0.00  0.00    +0.000 A 
ATOM     26  C   UNL     1       5.730   4.572  15.641  0.00  0.00    +0.000 A 
ATOM     27  C   UNL     1       5.669   5.961  15.664  0.00  0.00    +0.000 A 
ATOM     28  C   UNL     1       4.811   6.616  16.554  0.00  0.00    +0.000 A 
ENDBRANCH  19  23
ENDBRANCH   2  17
TORSDOF 3
ENDMDL
MODEL 4
REMARK VINA RESULT:      -7.9      3.189     10.336
REMARK  Name = 
REMARK  3 active torsions:
REMARK  status: ('A' for Active; 'I' for Inactive)
REMARK    1  A    between atoms: C_2  and  C_3
REMARK    2  A    between atoms: C_5  and  C_6
REMARK    3  A    between atoms: C_18  and  C_19
REMARK                            x       y       z     vdW  Elec       q    Type
REMARK                         _______ _______ _______ _____ _____    ______ ____
ROOT
ATOM      1  O   UNL     1      -0.720   9.440  20.787  0.00  0.00    +0.000 OA
ATOM      2  C   UNL     1       0.138  10.049  20.143  0.00  0.00    +0.000 C 
ATOM      3  N   UNL     1       0.259  11.436  20.296  0.00  0.00    +0.000 N 
ATOM      4  C   UNL     1       1.306  12.291  19.764  0.00  0.00    +0.000 C 
ATOM      5  C   UNL     1       1.586  13.308  20.849  0.00  0.00    +0.000 C 
ATOM      6  C   UNL     1       0.253  13.463  21.556  0.00  0.00    +0.000 C 
ATOM      7  C   UNL     1      -0.437  12.095  21.402  0.00  0.00    +0.000 C 
ENDROOT
BRANCH   7   8
ATOM      8  C   UNL     1      -1.898  12.288  21.149  0.00  0.00    +0.000 A 
ATOM      9  N   UNL     1      -2.460  12.551  19.980  0.00  0.00    +0.000 NA
ATOM     10  N   UNL     1      -3.771  12.905  20.195  0.00  0.00    +0.000 NA
ATOM     11  C   UNL     1      -4.000  12.836  21.486  0.00  0.00    +0.000 A 
ATOM     12  C   UNL     1      -5.146  13.126  22.277  0.00  0.00    +0.000 A 
ATOM     13  C   UNL     1      -5.093  12.966  23.613  0.00  0.00    +0.000 A 
ATOM     14  C   UNL     1      -3.886  12.486  24.271  0.00  0.00    +0.000 A 
ATOM     15  C   UNL     1      -2.797  12.222  23.526  0.00  0.00    +0.000 A 
ATOM     16  N   UNL     1      -2.853  12.405  22.142  0.00  0.00    +0.000 N 
ENDBRANCH   7   8
BRANCH   2  17
ATOM     17  C   UNL     1       1.139   9.332  19.306  0.00  0.00    +0.000 A 
ATOM     18  C   UNL     1       1.850   8.121  19.549  0.00  0.00    +0.000 A 
ATOM     19  C   UNL     1       2.450   7.767  18.357  0.00  0.00    +0.000 A 
ATOM     20  N   UNL     1       2.229   8.843  17.540  0.00  0.00    +0.000 N 
ATOM     21  N   UNL     1       1.442   9.787  18.073  0.00  0.00    +0.000 NA
ATOM     22  H   UNL     1       2.538   8.965  16.582  0.00  0.00    +0.000 HD
BRANCH  19  23
ATOM     23  C   UNL     1       3.121   6.540  17.934  0.00  0.00    +0.000 A 
ATOM     24  C   UNL     1       4.419   6.599  17.398  0.00  0.00    +0.000 A 
ATOM     25  C   UNL     1       5.085   5.438  17.001  0.00  0.00    +0.000 A 
ATOM     26  C   UNL     1       4.458   4.198  17.134  0.00  0.00    +0.000 A 
ATOM     27  C   UNL     1       3.176   4.125  17.667  0.00  0.00    +0.000 A 
ATOM     28  C   UNL     1       2.511   5.288  18.070  0.00  0.00    +0.000 A 
ENDBRANCH  19  23
ENDBRANCH   2  17
TORSDOF 3
ENDMDL
MODEL 5
REMARK VINA RESULT:      -7.8      3.330     10.081
REMARK  Name = 
REMARK  3 active torsions:
REMARK  status: ('A' for Active; 'I' for Inactive)
REMARK    1  A    between atoms: C_2  and  C_3
REMARK    2  A    between atoms: C_5  and  C_6
REMARK    3  A    between atoms: C_18  and  C_19
REMARK                            x       y       z     vdW  Elec       q    Type
REMARK                         _______ _______ _______ _____ _____    ______ ____
ROOT
ATOM      1  O   UNL     1       1.464  10.864  21.564  0.00  0.00    +0.000 OA
ATOM      2  C   UNL     1       0.814  10.221  20.736  0.00  0.00    +0.000 C 
ATOM      3  N   UNL     1      -0.335  10.789  20.171  0.00  0.00    +0.000 N 
ATOM      4  C   UNL     1      -1.121  10.265  19.067  0.00  0.00    +0.000 C 
ATOM      5  C   UNL     1      -1.526  11.475  18.252  0.00  0.00    +0.000 C 
ATOM      6  C   UNL     1      -1.619  12.590  19.275  0.00  0.00    +0.000 C 
ATOM      7  C   UNL     1      -0.594  12.216  20.361  0.00  0.00    +0.000 C 
ENDROOT
BRANCH   7   8
ATOM      8  C   UNL     1      -1.143  12.542  21.713  0.00  0.00    +0.000 A 
ATOM      9  N   UNL     1      -2.104  11.886  22.344  0.00  0.00    +0.000 NA
ATOM     10  N   UNL     1      -2.499  12.628  23.432  0.00  0.00    +0.000 NA
ATOM     11  C   UNL     1      -1.764  13.716  23.464  0.00  0.00    +0.000 A 
ATOM     12  C   UNL     1      -1.758  14.847  24.327  0.00  0.00    +0.000 A 
ATOM     13  C   UNL     1      -0.876  15.843  24.116  0.00  0.00    +0.000 A 
ATOM     14  C   UNL     1       0.089  15.781  23.027  0.00  0.00    +0.000 A 
ATOM     15  C   UNL     1       0.077  14.718  22.203  0.00  0.00    +0.000 A 
ATOM     16  N   UNL     1      -0.851  13.696  22.417  0.00  0.00    +0.000 N 
ENDBRANCH   7   8
BRANCH   2  17
ATOM     17  C   UNL     1       1.293   8.910  20.218  0.00  0.00    +0.000 A 
ATOM     18  C   UNL     1       1.818   8.556  18.942  0.00  0.00    +0.000 A 
ATOM     19  C   UNL     1       2.346   7.287  19.069  0.00  0.00    +0.000 A 
ATOM     20  N   UNL     1       1.958   6.887  20.319  0.00  0.00    +0.000 N 
ATOM     21  N   UNL     1       1.338   7.836  21.033  0.00  0.00    +0.000 NA
ATOM     22  H   UNL     1       2.141   5.996  20.768  0.00  0.00    +0.000 HD
BRANCH  19  23
ATOM     23  C   UNL     1       3.191   6.492  18.179  0.00  0.00    +0.000 A 
ATOM     24  C   UNL     1       4.121   7.129  17.341  0.00  0.00    +0.000 A 
ATOM     25  C   UNL     1       4.948   6.389  16.494  0.00  0.00    +0.000 A 
ATOM     26  C   UNL     1       4.854   4.997  16.474  0.00  0.00    +0.000 A 
ATOM     27  C   UNL     1       3.941   4.353  17.301  0.00  0.00    +0.000 A 
ATOM     28  C   UNL     1       3.116   5.094  18.154  0.00  0.00    +0.000 A 
ENDBRANCH  19  23
ENDBRANCH   2  17
TORSDOF 3
ENDMDL
MODEL 6
REMARK VINA RESULT:      -7.8      3.064      9.781
REMARK  Name = 
REMARK  3 active torsions:
REMARK  status: ('A' for Active; 'I' for Inactive)
REMARK    1  A    between atoms: C_2  and  C_3
REMARK    2  A    between atoms: C_5  and  C_6
REMARK    3  A    between atoms: C_18  and  C_19
REMARK                            x       y       z     vdW  Elec       q    Type
REMARK                         _______ _______ _______ _____ _____    ______ ____
ROOT
ATOM      1  O   UNL     1      -0.261  10.932  18.859  0.00  0.00    +0.000 OA
ATOM      2  C   UNL     1       0.511  10.260  19.549  0.00  0.00    +0.000 C 
ATOM      3  N   UNL     1       0.425  10.331  20.945  0.00  0.00    +0.000 N 
ATOM      4  C   UNL     1       1.118   9.496  21.911  0.00  0.00    +0.000 C 
ATOM      5  C   UNL     1       0.116   9.241  23.016  0.00  0.00    +0.000 C 
ATOM      6  C   UNL     1      -0.752  10.485  23.016  0.00  0.00    +0.000 C 
ATOM      7  C   UNL     1      -0.738  10.976  21.557  0.00  0.00    +0.000 C 
ENDROOT
BRANCH   7   8
ATOM      8  C   UNL     1      -0.670  12.469  21.524  0.00  0.00    +0.000 A 
ATOM      9  N   UNL     1       0.373  13.211  21.863  0.00  0.00    +0.000 NA
ATOM     10  N   UNL     1      -0.030  14.523  21.940  0.00  0.00    +0.000 NA
ATOM     11  C   UNL     1      -1.305  14.571  21.629  0.00  0.00    +0.000 A 
ATOM     12  C   UNL     1      -2.245  15.637  21.582  0.00  0.00    +0.000 A 
ATOM     13  C   UNL     1      -3.520  15.389  21.226  0.00  0.00    +0.000 A 
ATOM     14  C   UNL     1      -3.959  14.047  20.871  0.00  0.00    +0.000 A 
ATOM     15  C   UNL     1      -3.075  13.035  20.927  0.00  0.00    +0.000 A 
ATOM     16  N   UNL     1      -1.758  13.296  21.312  0.00  0.00    +0.000 N 
ENDBRANCH   7   8
BRANCH   2  17
ATOM     17  C   UNL     1       1.444   9.273  18.938  0.00  0.00    +0.000 A 
ATOM     18  C   UNL     1       1.783   7.950  19.342  0.00  0.00    +0.000 A 
ATOM     19  C   UNL     1       2.487   7.385  18.298  0.00  0.00    +0.000 A 
ATOM     20  N   UNL     1       2.686   8.424  17.429  0.00  0.00    +0.000 N 
ATOM     21  N   UNL     1       2.068   9.560  17.777  0.00  0.00    +0.000 NA
ATOM     22  H   UNL     1       3.185   8.404  16.547  0.00  0.00    +0.000 HD
BRANCH  19  23
ATOM     23  C   UNL     1       2.906   6.009  18.040  0.00  0.00    +0.000 A 
ATOM     24  C   UNL     1       1.945   4.989  17.942  0.00  0.00    +0.000 A 
ATOM     25  C   UNL     1       2.323   3.670  17.683  0.00  0.00    +0.000 A 
ATOM     26  C   UNL     1       3.672   3.353  17.519  0.00  0.00    +0.000 A 
ATOM     27  C   UNL     1       4.633   4.353  17.609  0.00  0.00    +0.000 A 
ATOM     28  C   UNL     1       4.255   5.676  17.864  0.00  0.00    +0.000 A 
ENDBRANCH  19  23
ENDBRANCH   2  17
TORSDOF 3
ENDMDL
MODEL 7
REMARK VINA RESULT:      -7.8      4.323     10.417
REMARK  Name = 
REMARK  3 active torsions:
REMARK  status: ('A' for Active; 'I' for Inactive)
REMARK    1  A    between atoms: C_2  and  C_3
REMARK    2  A    between atoms: C_5  and  C_6
REMARK    3  A    between atoms: C_18  and  C_19
REMARK                            x       y       z     vdW  Elec       q    Type
REMARK                         _______ _______ _______ _____ _____    ______ ____
ROOT
ATOM      1  O   UNL     1      -1.601  11.037  23.395  0.00  0.00    +0.000 OA
ATOM      2  C   UNL     1      -1.045  10.906  22.302  0.00  0.00    +0.000 C 
ATOM      3  N   UNL     1      -1.240  11.874  21.309  0.00  0.00    +0.000 N 
ATOM      4  C   UNL     1      -0.543  11.983  20.039  0.00  0.00    +0.000 C 
ATOM      5  C   UNL     1      -0.332  13.467  19.821  0.00  0.00    +0.000 C 
ATOM      6  C   UNL     1      -1.515  14.109  20.518  0.00  0.00    +0.000 C 
ATOM      7  C   UNL     1      -1.868  13.147  21.667  0.00  0.00    +0.000 C 
ENDROOT
BRANCH   7   8
ATOM      8  C   UNL     1      -3.353  13.052  21.813  0.00  0.00    +0.000 A 
ATOM      9  N   UNL     1      -4.037  13.192  22.938  0.00  0.00    +0.000 NA
ATOM     10  N   UNL     1      -5.333  12.790  22.715  0.00  0.00    +0.000 NA
ATOM     11  C   UNL     1      -5.430  12.429  21.456  0.00  0.00    +0.000 A 
ATOM     12  C   UNL     1      -6.503  11.897  20.688  0.00  0.00    +0.000 A 
ATOM     13  C   UNL     1      -6.312  11.605  19.387  0.00  0.00    +0.000 A 
ATOM     14  C   UNL     1      -5.030  11.838  18.739  0.00  0.00    +0.000 A 
ATOM     15  C   UNL     1      -4.010  12.330  19.466  0.00  0.00    +0.000 A 
ATOM     16  N   UNL     1      -4.209  12.616  20.819  0.00  0.00    +0.000 N 
ENDBRANCH   7   8
BRANCH   2  17
ATOM     17  C   UNL     1      -0.063   9.814  22.052  0.00  0.00    +0.000 A 
ATOM     18  C   UNL     1      -0.105   8.726  21.133  0.00  0.00    +0.000 A 
ATOM     19  C   UNL     1       1.157   8.166  21.126  0.00  0.00    +0.000 A 
ATOM     20  N   UNL     1       1.813   8.806  22.142  0.00  0.00    +0.000 N 
ATOM     21  N   UNL     1       1.116   9.801  22.708  0.00  0.00    +0.000 NA
ATOM     22  H   UNL     1       2.763   8.650  22.459  0.00  0.00    +0.000 HD
BRANCH  19  23
ATOM     23  C   UNL     1       1.776   7.176  20.246  0.00  0.00    +0.000 A 
ATOM     24  C   UNL     1       2.353   7.581  19.031  0.00  0.00    +0.000 A 
ATOM     25  C   UNL     1       2.962   6.655  18.181  0.00  0.00    +0.000 A 
ATOM     26  C   UNL     1       3.000   5.306  18.538  0.00  0.00    +0.000 A 
ATOM     27  C   UNL     1       2.436   4.892  19.740  0.00  0.00    +0.000 A 
ATOM     28  C   UNL     1       1.831   5.821  20.593  0.00  0.00    +0.000 A 
ENDBRANCH  19  23
ENDBRANCH   2  17
TORSDOF 3
ENDMDL
MODEL 8
REMARK VINA RESULT:      -7.8      3.588      9.822
REMARK  Name = 
REMARK  3 active torsions:
REMARK  status: ('A' for Active; 'I' for Inactive)
REMARK    1  A    between atoms: C_2  and  C_3
REMARK    2  A    between atoms: C_5  and  C_6
REMARK    3  A    between atoms: C_18  and  C_19
REMARK                            x       y       z     vdW  Elec       q    Type
REMARK                         _______ _______ _______ _____ _____    ______ ____
ROOT
ATOM      1  O   UNL     1       1.493  11.551  19.218  0.00  0.00    +0.000 OA
ATOM      2  C   UNL     1       0.803  10.555  18.991  0.00  0.00    +0.000 C 
ATOM      3  N   UNL     1      -0.553  10.714  18.677  0.00  0.00    +0.000 N 
ATOM      4  C   UNL     1      -1.474   9.690  18.215  0.00  0.00    +0.000 C 
ATOM      5  C   UNL     1      -2.343  10.368  17.177  0.00  0.00    +0.000 C 
ATOM      6  C   UNL     1      -2.399  11.813  17.637  0.00  0.00    +0.000 C 
ATOM      7  C   UNL     1      -1.060  12.050  18.359  0.00  0.00    +0.000 C 
ENDROOT
BRANCH   7   8
ATOM      8  C   UNL     1      -1.279  12.902  19.568  0.00  0.00    +0.000 A 
ATOM      9  N   UNL     1      -2.005  12.582  20.628  0.00  0.00    +0.000 NA
ATOM     10  N   UNL     1      -2.169  13.707  21.401  0.00  0.00    +0.000 NA
ATOM     11  C   UNL     1      -1.527  14.693  20.817  0.00  0.00    +0.000 A 
ATOM     12  C   UNL     1      -1.387  16.072  21.137  0.00  0.00    +0.000 A 
ATOM     13  C   UNL     1      -0.657  16.872  20.336  0.00  0.00    +0.000 A 
ATOM     14  C   UNL     1       0.010  16.351  19.151  0.00  0.00    +0.000 A 
ATOM     15  C   UNL     1      -0.132  15.050  18.841  0.00  0.00    +0.000 A 
ATOM     16  N   UNL     1      -0.903  14.229  19.666  0.00  0.00    +0.000 N 
ENDBRANCH   7   8
BRANCH   2  17
ATOM     17  C   UNL     1       1.401   9.194  18.909  0.00  0.00    +0.000 A 
ATOM     18  C   UNL     1       1.946   8.489  17.797  0.00  0.00    +0.000 A 
ATOM     19  C   UNL     1       2.594   7.383  18.309  0.00  0.00    +0.000 A 
ATOM     20  N   UNL     1       2.258   7.381  19.635  0.00  0.00    +0.000 N 
ATOM     21  N   UNL     1       1.556   8.454  20.027  0.00  0.00    +0.000 NA
ATOM     22  H   UNL     1       2.529   6.707  20.341  0.00  0.00    +0.000 HD
BRANCH  19  23
ATOM     23  C   UNL     1       3.504   6.419  17.693  0.00  0.00    +0.000 A 
ATOM     24  C   UNL     1       3.225   5.044  17.767  0.00  0.00    +0.000 A 
ATOM     25  C   UNL     1       4.074   4.107  17.174  0.00  0.00    +0.000 A 
ATOM     26  C   UNL     1       5.216   4.535  16.497  0.00  0.00    +0.000 A 
ATOM     27  C   UNL     1       5.502   5.893  16.411  0.00  0.00    +0.000 A 
ATOM     28  C   UNL     1       4.650   6.832  17.002  0.00  0.00    +0.000 A 
ENDBRANCH  19  23
ENDBRANCH   2  17
TORSDOF 3
ENDMDL
MODEL 9
REMARK VINA RESULT:      -7.8      3.035      9.584
REMARK  Name = 
REMARK  3 active torsions:
REMARK  status: ('A' for Active; 'I' for Inactive)
REMARK    1  A    between atoms: C_2  and  C_3
REMARK    2  A    between atoms: C_5  and  C_6
REMARK    3  A    between atoms: C_18  and  C_19
REMARK                            x       y       z     vdW  Elec       q    Type
REMARK                         _______ _______ _______ _____ _____    ______ ____
ROOT
ATOM      1  O   UNL     1       1.763  11.585  18.640  0.00  0.00    +0.000 OA
ATOM      2  C   UNL     1       0.986  10.635  18.767  0.00  0.00    +0.000 C 
ATOM      3  N   UNL     1      -0.396  10.866  18.732  0.00  0.00    +0.000 N 
ATOM      4  C   UNL     1      -1.452   9.870  18.690  0.00  0.00    +0.000 C 
ATOM      5  C   UNL     1      -2.501  10.435  17.756  0.00  0.00    +0.000 C 
ATOM      6  C   UNL     1      -2.371  11.936  17.927  0.00  0.00    +0.000 C 
ATOM      7  C   UNL     1      -0.891  12.167  18.279  0.00  0.00    +0.000 C 
ENDROOT
BRANCH   7   8
ATOM      8  C   UNL     1      -0.776  13.237  19.317  0.00  0.00    +0.000 A 
ATOM      9  N   UNL     1      -0.175  14.407  19.169  0.00  0.00    +0.000 NA
ATOM     10  N   UNL     1      -0.061  15.000  20.404  0.00  0.00    +0.000 NA
ATOM     11  C   UNL     1      -0.609  14.196  21.288  0.00  0.00    +0.000 A 
ATOM     12  C   UNL     1      -0.742  14.269  22.702  0.00  0.00    +0.000 A 
ATOM     13  C   UNL     1      -1.360  13.274  23.366  0.00  0.00    +0.000 A 
ATOM     14  C   UNL     1      -1.913  12.125  22.665  0.00  0.00    +0.000 A 
ATOM     15  C   UNL     1      -1.777  12.048  21.328  0.00  0.00    +0.000 A 
ATOM     16  N   UNL     1      -1.121  13.075  20.646  0.00  0.00    +0.000 N 
ENDBRANCH   7   8
BRANCH   2  17
ATOM     17  C   UNL     1       1.475   9.230  18.822  0.00  0.00    +0.000 A 
ATOM     18  C   UNL     1       1.915   8.363  17.781  0.00  0.00    +0.000 A 
ATOM     19  C   UNL     1       2.500   7.273  18.394  0.00  0.00    +0.000 A 
ATOM     20  N   UNL     1       2.224   7.448  19.723  0.00  0.00    +0.000 N 
ATOM     21  N   UNL     1       1.623   8.611  20.012  0.00  0.00    +0.000 NA
ATOM     22  H   UNL     1       2.474   6.838  20.492  0.00  0.00    +0.000 HD
BRANCH  19  23
ATOM     23  C   UNL     1       3.306   6.176  17.862  0.00  0.00    +0.000 A 
ATOM     24  C   UNL     1       2.775   4.876  17.812  0.00  0.00    +0.000 A 
ATOM     25  C   UNL     1       3.522   3.815  17.295  0.00  0.00    +0.000 A 
ATOM     26  C   UNL     1       4.815   4.043  16.820  0.00  0.00    +0.000 A 
ATOM     27  C   UNL     1       5.350   5.325  16.859  0.00  0.00    +0.000 A 
ATOM     28  C   UNL     1       4.600   6.389  17.373  0.00  0.00    +0.000 A 
ENDBRANCH  19  23
ENDBRANCH   2  17
TORSDOF 3
ENDMDL
