MODEL 1
REMARK VINA RESULT:      -8.8      0.000      0.000
REMARK  Name = 
REMARK  6 active torsions:
REMARK  status: ('A' for Active; 'I' for Inactive)
REMARK    1  A    between atoms: C_7  and  S_8
REMARK    2  A    between atoms: S_8  and  N_11
REMARK    3  A    between atoms: N_11  and  C_12
REMARK    4  A    between atoms: C_12  and  C_13
REMARK    5  A    between atoms: C_12  and  C_20
REMARK    6  A    between atoms: C_13  and  C_14
REMARK                            x       y       z     vdW  Elec       q    Type
REMARK                         _______ _______ _______ _____ _____    ______ ____
ROOT
ATOM      1  S   UNL     1       1.967   8.668  18.325  0.00  0.00    +0.000 S 
ATOM      2  O   UNL     1       0.942   8.191  17.421  0.00  0.00    +0.000 OA
ATOM      3  O   UNL     1       2.954   9.631  17.901  0.00  0.00    +0.000 OA
ENDROOT
BRANCH   1  10
ATOM      4  O   UNL     1      -2.756  12.024  23.851  0.00  0.00    +0.000 OA
ATOM      5  C   UNL     1      -2.033  11.706  22.916  0.00  0.00    +0.000 A 
ATOM      6  N   UNL     1      -1.154  10.647  23.006  0.00  0.00    +0.000 N 
ATOM      7  C   UNL     1      -0.367  10.211  21.933  0.00  0.00    +0.000 A 
ATOM      8  C   UNL     1       0.460   9.095  22.077  0.00  0.00    +0.000 A 
ATOM      9  C   UNL     1       1.200   8.630  20.982  0.00  0.00    +0.000 A 
ATOM     10  C   UNL     1       1.122   9.299  19.757  0.00  0.00    +0.000 A 
ATOM     11  C   UNL     1       0.302  10.424  19.614  0.00  0.00    +0.000 A 
ATOM     12  C   UNL     1      -0.437  10.876  20.705  0.00  0.00    +0.000 A 
ATOM     13  N   UNL     1      -1.266  11.993  20.561  0.00  0.00    +0.000 N 
ATOM     14  C   UNL     1      -2.067  12.475  21.571  0.00  0.00    +0.000 A 
ATOM     15  O   UNL     1      -2.773  13.463  21.414  0.00  0.00    +0.000 OA
ATOM     16  H   UNL     1      -1.144  10.160  23.889  0.00  0.00    +0.000 HD
ATOM     17  H   UNL     1      -1.316  12.493  19.684  0.00  0.00    +0.000 HD
ENDBRANCH   1  10
BRANCH   1  18
ATOM     18  N   UNL     1       2.790   7.284  18.826  0.00  0.00    +0.000 NA
ATOM     19  H   UNL     1       2.776   7.283  19.845  0.00  0.00    +0.000 HD
BRANCH  18  20
ATOM     20  C   UNL     1       2.544   5.955  18.181  0.00  0.00    +0.000 C 
BRANCH  20  21
ATOM     21  C   UNL     1       2.108   4.864  19.192  0.00  0.00    +0.000 A 
ATOM     22  C   UNL     1       2.423   4.946  20.562  0.00  0.00    +0.000 A 
ATOM     23  C   UNL     1       2.041   3.943  21.461  0.00  0.00    +0.000 A 
ATOM     24  C   UNL     1       1.320   2.840  21.020  0.00  0.00    +0.000 A 
ATOM     25  C   UNL     1       0.971   2.743  19.680  0.00  0.00    +0.000 A 
ATOM     26  C   UNL     1       1.349   3.747  18.783  0.00  0.00    +0.000 A 
ENDBRANCH  20  21
BRANCH  20  27
ATOM     27  C   UNL     1       3.765   5.525  17.317  0.00  0.00    +0.000 C 
BRANCH  27  28
ATOM     28  C   UNL     1       5.153   5.930  17.784  0.00  0.00    +0.000 A 
ATOM     29  C   UNL     1       5.947   6.881  17.124  0.00  0.00    +0.000 A 
ATOM     30  C   UNL     1       7.258   7.135  17.525  0.00  0.00    +0.000 A 
ATOM     31  C   UNL     1       7.792   6.455  18.612  0.00  0.00    +0.000 A 
ATOM     32  C   UNL     1       7.006   5.541  19.310  0.00  0.00    +0.000 A 
ATOM     33  C   UNL     1       5.694   5.283  18.903  0.00  0.00    +0.000 A 
ENDBRANCH  27  28
ENDBRANCH  20  27
ENDBRANCH  18  20
ENDBRANCH   1  18
TORSDOF 6
ENDMDL
MODEL 2
REMARK VINA RESULT:      -8.6      2.177      4.749
REMARK  Name = 
REMARK  6 active torsions:
REMARK  status: ('A' for Active; 'I' for Inactive)
REMARK    1  A    between atoms: C_7  and  S_8
REMARK    2  A    between atoms: S_8  and  N_11
REMARK    3  A    between atoms: N_11  and  C_12
REMARK    4  A    between atoms: C_12  and  C_13
REMARK    5  A    between atoms: C_12  and  C_20
REMARK    6  A    between atoms: C_13  and  C_14
REMARK                            x       y       z     vdW  Elec       q    Type
REMARK                         _______ _______ _______ _____ _____    ______ ____
ROOT
ATOM      1  S   UNL     1       3.432   6.357  17.953  0.00  0.00    +0.000 S 
ATOM      2  O   UNL     1       2.566   5.300  17.476  0.00  0.00    +0.000 OA
ATOM      3  O   UNL     1       4.386   6.997  17.081  0.00  0.00    +0.000 OA
ENDROOT
BRANCH   1  10
ATOM      4  O   UNL     1      -0.619  11.726  22.298  0.00  0.00    +0.000 OA
ATOM      5  C   UNL     1      -0.045  10.769  21.794  0.00  0.00    +0.000 A 
ATOM      6  N   UNL     1       0.149  10.675  20.432  0.00  0.00    +0.000 N 
ATOM      7  C   UNL     1       0.864   9.633  19.829  0.00  0.00    +0.000 A 
ATOM      8  C   UNL     1       1.072   9.631  18.449  0.00  0.00    +0.000 A 
ATOM      9  C   UNL     1       1.837   8.615  17.860  0.00  0.00    +0.000 A 
ATOM     10  C   UNL     1       2.370   7.598  18.657  0.00  0.00    +0.000 A 
ATOM     11  C   UNL     1       2.153   7.592  20.040  0.00  0.00    +0.000 A 
ATOM     12  C   UNL     1       1.398   8.610  20.619  0.00  0.00    +0.000 A 
ATOM     13  N   UNL     1       1.189   8.613  22.001  0.00  0.00    +0.000 N 
ATOM     14  C   UNL     1       0.499   9.605  22.660  0.00  0.00    +0.000 A 
ATOM     15  O   UNL     1       0.326   9.571  23.872  0.00  0.00    +0.000 OA
ATOM     16  H   UNL     1      -0.214  11.441  19.883  0.00  0.00    +0.000 HD
ATOM     17  H   UNL     1       1.556   7.872  22.584  0.00  0.00    +0.000 HD
ENDBRANCH   1  10
BRANCH   1  18
ATOM     18  N   UNL     1       4.290   5.678  19.235  0.00  0.00    +0.000 NA
ATOM     19  H   UNL     1       3.619   5.498  19.980  0.00  0.00    +0.000 HD
BRANCH  18  20
ATOM     20  C   UNL     1       5.301   4.596  19.010  0.00  0.00    +0.000 C 
BRANCH  20  21
ATOM     21  C   UNL     1       5.810   4.540  17.547  0.00  0.00    +0.000 A 
ATOM     22  C   UNL     1       6.958   5.240  17.128  0.00  0.00    +0.000 A 
ATOM     23  C   UNL     1       7.395   5.197  15.799  0.00  0.00    +0.000 A 
ATOM     24  C   UNL     1       6.709   4.440  14.856  0.00  0.00    +0.000 A 
ATOM     25  C   UNL     1       5.590   3.717  15.244  0.00  0.00    +0.000 A 
ATOM     26  C   UNL     1       5.155   3.757  16.573  0.00  0.00    +0.000 A 
ENDBRANCH  20  21
BRANCH  20  27
ATOM     27  C   UNL     1       4.766   3.225  19.517  0.00  0.00    +0.000 C 
BRANCH  27  28
ATOM     28  C   UNL     1       3.263   3.036  19.623  0.00  0.00    +0.000 A 
ATOM     29  C   UNL     1       2.499   2.340  18.673  0.00  0.00    +0.000 A 
ATOM     30  C   UNL     1       1.108   2.292  18.756  0.00  0.00    +0.000 A 
ATOM     31  C   UNL     1       0.456   2.922  19.807  0.00  0.00    +0.000 A 
ATOM     32  C   UNL     1       1.197   3.580  20.787  0.00  0.00    +0.000 A 
ATOM     33  C   UNL     1       2.591   3.632  20.700  0.00  0.00    +0.000 A 
ENDBRANCH  27  28
ENDBRANCH  20  27
ENDBRANCH  18  20
ENDBRANCH   1  18
TORSDOF 6
ENDMDL
MODEL 3
REMARK VINA RESULT:      -8.5      0.299      1.274
REMARK  Name = 
REMARK  6 active torsions:
REMARK  status: ('A' for Active; 'I' for Inactive)
REMARK    1  A    between atoms: C_7  and  S_8
REMARK    2  A    between atoms: S_8  and  N_11
REMARK    3  A    between atoms: N_11  and  C_12
REMARK    4  A    between atoms: C_12  and  C_13
REMARK    5  A    between atoms: C_12  and  C_20
REMARK    6  A    between atoms: C_13  and  C_14
REMARK                            x       y       z     vdW  Elec       q    Type
REMARK                         _______ _______ _______ _____ _____    ______ ____
ROOT
ATOM      1  S   UNL     1       2.115   8.408  18.223  0.00  0.00    +0.000 S 
ATOM      2  O   UNL     1       1.067   7.889  17.369  0.00  0.00    +0.000 OA
ATOM      3  O   UNL     1       3.066   9.378  17.740  0.00  0.00    +0.000 OA
ENDROOT
BRANCH   1  10
ATOM      4  O   UNL     1      -2.448  11.859  23.825  0.00  0.00    +0.000 OA
ATOM      5  C   UNL     1      -1.751  11.526  22.876  0.00  0.00    +0.000 A 
ATOM      6  N   UNL     1      -0.880  10.459  22.955  0.00  0.00    +0.000 N 
ATOM      7  C   UNL     1      -0.122  10.006  21.869  0.00  0.00    +0.000 A 
ATOM      8  C   UNL     1       0.697   8.883  22.004  0.00  0.00    +0.000 A 
ATOM      9  C   UNL     1       1.408   8.401  20.897  0.00  0.00    +0.000 A 
ATOM     10  C   UNL     1       1.308   9.060  19.668  0.00  0.00    +0.000 A 
ATOM     11  C   UNL     1       0.497  10.192  19.534  0.00  0.00    +0.000 A 
ATOM     12  C   UNL     1      -0.213  10.661  20.637  0.00  0.00    +0.000 A 
ATOM     13  N   UNL     1      -1.034  11.784  20.502  0.00  0.00    +0.000 N 
ATOM     14  C   UNL     1      -1.807  12.284  21.526  0.00  0.00    +0.000 A 
ATOM     15  O   UNL     1      -2.507  13.278  21.376  0.00  0.00    +0.000 OA
ATOM     16  H   UNL     1      -0.854   9.979  23.843  0.00  0.00    +0.000 HD
ATOM     17  H   UNL     1      -1.099  12.278  19.622  0.00  0.00    +0.000 HD
ENDBRANCH   1  10
BRANCH   1  18
ATOM     18  N   UNL     1       2.982   7.053  18.729  0.00  0.00    +0.000 NA
ATOM     19  H   UNL     1       3.036   7.099  19.745  0.00  0.00    +0.000 HD
BRANCH  18  20
ATOM     20  C   UNL     1       2.705   5.695  18.162  0.00  0.00    +0.000 C 
BRANCH  20  21
ATOM     21  C   UNL     1       2.255   4.672  19.235  0.00  0.00    +0.000 A 
ATOM     22  C   UNL     1       1.497   3.532  18.909  0.00  0.00    +0.000 A 
ATOM     23  C   UNL     1       1.079   2.626  19.891  0.00  0.00    +0.000 A 
ATOM     24  C   UNL     1       1.421   2.825  21.224  0.00  0.00    +0.000 A 
ATOM     25  C   UNL     1       2.191   3.925  21.574  0.00  0.00    +0.000 A 
ATOM     26  C   UNL     1       2.611   4.828  20.591  0.00  0.00    +0.000 A 
ENDBRANCH  20  21
BRANCH  20  27
ATOM     27  C   UNL     1       3.912   5.193  17.316  0.00  0.00    +0.000 C 
BRANCH  27  28
ATOM     28  C   UNL     1       5.311   5.586  17.758  0.00  0.00    +0.000 A 
ATOM     29  C   UNL     1       5.958   5.031  18.874  0.00  0.00    +0.000 A 
ATOM     30  C   UNL     1       7.195   5.507  19.305  0.00  0.00    +0.000 A 
ATOM     31  C   UNL     1       7.820   6.534  18.612  0.00  0.00    +0.000 A 
ATOM     32  C   UNL     1       7.218   7.068  17.474  0.00  0.00    +0.000 A 
ATOM     33  C   UNL     1       5.975   6.594  17.046  0.00  0.00    +0.000 A 
ENDBRANCH  27  28
ENDBRANCH  20  27
ENDBRANCH  18  20
ENDBRANCH   1  18
TORSDOF 6
ENDMDL
MODEL 4
REMARK VINA RESULT:      -8.5      2.334      3.108
REMARK  Name = 
REMARK  6 active torsions:
REMARK  status: ('A' for Active; 'I' for Inactive)
REMARK    1  A    between atoms: C_7  and  S_8
REMARK    2  A    between atoms: S_8  and  N_11
REMARK    3  A    between atoms: N_11  and  C_12
REMARK    4  A    between atoms: C_12  and  C_13
REMARK    5  A    between atoms: C_12  and  C_20
REMARK    6  A    between atoms: C_13  and  C_14
REMARK                            x       y       z     vdW  Elec       q    Type
REMARK                         _______ _______ _______ _____ _____    ______ ____
ROOT
ATOM      1  S   UNL     1       3.723   6.508  18.267  0.00  0.00    +0.000 S 
ATOM      2  O   UNL     1       4.534   7.173  17.269  0.00  0.00    +0.000 OA
ATOM      3  O   UNL     1       4.312   5.930  19.450  0.00  0.00    +0.000 OA
ENDROOT
BRANCH   1  10
ATOM      4  O   UNL     1      -1.290  11.713  21.713  0.00  0.00    +0.000 OA
ATOM      5  C   UNL     1      -0.571  10.791  21.353  0.00  0.00    +0.000 A 
ATOM      6  N   UNL     1      -0.230  10.611  20.029  0.00  0.00    +0.000 N 
ATOM      7  C   UNL     1       0.648   9.612  19.592  0.00  0.00    +0.000 A 
ATOM      8  C   UNL     1       0.995   9.523  18.243  0.00  0.00    +0.000 A 
ATOM      9  C   UNL     1       1.919   8.557  17.823  0.00  0.00    +0.000 A 
ATOM     10  C   UNL     1       2.471   7.673  18.755  0.00  0.00    +0.000 A 
ATOM     11  C   UNL     1       2.115   7.753  20.106  0.00  0.00    +0.000 A 
ATOM     12  C   UNL     1       1.202   8.721  20.518  0.00  0.00    +0.000 A 
ATOM     13  N   UNL     1       0.854   8.811  21.868  0.00  0.00    +0.000 N 
ATOM     14  C   UNL     1      -0.000   9.768  22.368  0.00  0.00    +0.000 A 
ATOM     15  O   UNL     1      -0.292   9.811  23.556  0.00  0.00    +0.000 OA
ATOM     16  H   UNL     1      -0.613  11.285  19.382  0.00  0.00    +0.000 HD
ATOM     17  H   UNL     1       1.234   8.165  22.547  0.00  0.00    +0.000 HD
ENDBRANCH   1  10
BRANCH   1  18
ATOM     18  N   UNL     1       2.930   5.272  17.438  0.00  0.00    +0.000 NA
ATOM     19  H   UNL     1       2.968   5.507  16.448  0.00  0.00    +0.000 HD
BRANCH  18  20
ATOM     20  C   UNL     1       3.178   3.831  17.764  0.00  0.00    +0.000 C 
BRANCH  20  21
ATOM     21  C   UNL     1       2.598   3.414  19.139  0.00  0.00    +0.000 A 
ATOM     22  C   UNL     1       3.390   2.803  20.129  0.00  0.00    +0.000 A 
ATOM     23  C   UNL     1       2.848   2.411  21.359  0.00  0.00    +0.000 A 
ATOM     24  C   UNL     1       1.505   2.635  21.641  0.00  0.00    +0.000 A 
ATOM     25  C   UNL     1       0.704   3.260  20.695  0.00  0.00    +0.000 A 
ATOM     26  C   UNL     1       1.247   3.654  19.467  0.00  0.00    +0.000 A 
ENDBRANCH  20  21
BRANCH  20  27
ATOM     27  C   UNL     1       4.688   3.483  17.615  0.00  0.00    +0.000 C 
BRANCH  27  28
ATOM     28  C   UNL     1       5.422   3.983  16.382  0.00  0.00    +0.000 A 
ATOM     29  C   UNL     1       4.948   3.809  15.072  0.00  0.00    +0.000 A 
ATOM     30  C   UNL     1       5.712   4.184  13.969  0.00  0.00    +0.000 A 
ATOM     31  C   UNL     1       6.959   4.764  14.157  0.00  0.00    +0.000 A 
ATOM     32  C   UNL     1       7.430   4.989  15.449  0.00  0.00    +0.000 A 
ATOM     33  C   UNL     1       6.665   4.607  16.554  0.00  0.00    +0.000 A 
ENDBRANCH  27  28
ENDBRANCH  20  27
ENDBRANCH  18  20
ENDBRANCH   1  18
TORSDOF 6
ENDMDL
MODEL 5
REMARK VINA RESULT:      -8.4      1.345      1.881
REMARK  Name = 
REMARK  6 active torsions:
REMARK  status: ('A' for Active; 'I' for Inactive)
REMARK    1  A    between atoms: C_7  and  S_8
REMARK    2  A    between atoms: S_8  and  N_11
REMARK    3  A    between atoms: N_11  and  C_12
REMARK    4  A    between atoms: C_12  and  C_13
REMARK    5  A    between atoms: C_12  and  C_20
REMARK    6  A    between atoms: C_13  and  C_14
REMARK                            x       y       z     vdW  Elec       q    Type
REMARK                         _______ _______ _______ _____ _____    ______ ____
ROOT
ATOM      1  S   UNL     1       1.601   9.157  18.306  0.00  0.00    +0.000 S 
ATOM      2  O   UNL     1       0.606   8.435  17.540  0.00  0.00    +0.000 OA
ATOM      3  O   UNL     1       2.395  10.203  17.709  0.00  0.00    +0.000 OA
ENDROOT
BRANCH   1  10
ATOM      4  O   UNL     1      -3.214  12.395  23.823  0.00  0.00    +0.000 OA
ATOM      5  C   UNL     1      -2.511  12.083  22.872  0.00  0.00    +0.000 A 
ATOM      6  N   UNL     1      -1.487  11.167  22.996  0.00  0.00    +0.000 N 
ATOM      7  C   UNL     1      -0.712  10.733  21.914  0.00  0.00    +0.000 A 
ATOM      8  C   UNL     1       0.272   9.759  22.101  0.00  0.00    +0.000 A 
ATOM      9  C   UNL     1       1.004   9.288  21.004  0.00  0.00    +0.000 A 
ATOM     10  C   UNL     1       0.761   9.812  19.731  0.00  0.00    +0.000 A 
ATOM     11  C   UNL     1      -0.216  10.796  19.543  0.00  0.00    +0.000 A 
ATOM     12  C   UNL     1      -0.947  11.254  20.638  0.00  0.00    +0.000 A 
ATOM     13  N   UNL     1      -1.932  12.228  20.451  0.00  0.00    +0.000 N 
ATOM     14  C   UNL     1      -2.732  12.699  21.467  0.00  0.00    +0.000 A 
ATOM     15  O   UNL     1      -3.579  13.562  21.270  0.00  0.00    +0.000 OA
ATOM     16  H   UNL     1      -1.356  10.778  23.918  0.00  0.00    +0.000 HD
ATOM     17  H   UNL     1      -2.103  12.625  19.537  0.00  0.00    +0.000 HD
ENDBRANCH   1  10
BRANCH   1  18
ATOM     18  N   UNL     1       2.660   7.976  18.877  0.00  0.00    +0.000 NA
ATOM     19  H   UNL     1       2.436   7.825  19.859  0.00  0.00    +0.000 HD
BRANCH  18  20
ATOM     20  C   UNL     1       2.942   6.735  18.087  0.00  0.00    +0.000 C 
BRANCH  20  21
ATOM     21  C   UNL     1       2.234   5.481  18.658  0.00  0.00    +0.000 A 
ATOM     22  C   UNL     1       1.997   5.320  20.036  0.00  0.00    +0.000 A 
ATOM     23  C   UNL     1       1.375   4.172  20.542  0.00  0.00    +0.000 A 
ATOM     24  C   UNL     1       0.956   3.162  19.684  0.00  0.00    +0.000 A 
ATOM     25  C   UNL     1       1.151   3.303  18.317  0.00  0.00    +0.000 A 
ATOM     26  C   UNL     1       1.770   4.452  17.812  0.00  0.00    +0.000 A 
ENDBRANCH  20  21
BRANCH  20  27
ATOM     27  C   UNL     1       4.474   6.533  17.903  0.00  0.00    +0.000 C 
BRANCH  27  28
ATOM     28  C   UNL     1       4.948   5.597  16.805  0.00  0.00    +0.000 A 
ATOM     29  C   UNL     1       5.185   4.227  17.001  0.00  0.00    +0.000 A 
ATOM     30  C   UNL     1       5.728   3.433  15.991  0.00  0.00    +0.000 A 
ATOM     31  C   UNL     1       6.024   3.993  14.756  0.00  0.00    +0.000 A 
ATOM     32  C   UNL     1       5.754   5.340  14.524  0.00  0.00    +0.000 A 
ATOM     33  C   UNL     1       5.215   6.136  15.538  0.00  0.00    +0.000 A 
ENDBRANCH  27  28
ENDBRANCH  20  27
ENDBRANCH  18  20
ENDBRANCH   1  18
TORSDOF 6
ENDMDL
MODEL 6
REMARK VINA RESULT:      -8.4      3.140      9.114
REMARK  Name = 
REMARK  6 active torsions:
REMARK  status: ('A' for Active; 'I' for Inactive)
REMARK    1  A    between atoms: C_7  and  S_8
REMARK    2  A    between atoms: S_8  and  N_11
REMARK    3  A    between atoms: N_11  and  C_12
REMARK    4  A    between atoms: C_12  and  C_13
REMARK    5  A    between atoms: C_12  and  C_20
REMARK    6  A    between atoms: C_13  and  C_14
REMARK                            x       y       z     vdW  Elec       q    Type
REMARK                         _______ _______ _______ _____ _____    ______ ____
ROOT
ATOM      1  S   UNL     1       0.404  10.603  20.721  0.00  0.00    +0.000 S 
ATOM      2  O   UNL     1      -0.599   9.949  21.535  0.00  0.00    +0.000 OA
ATOM      3  O   UNL     1       1.364  11.511  21.298  0.00  0.00    +0.000 OA
ENDROOT
BRANCH   1  10
ATOM      4  O   UNL     1       3.687   3.930  17.754  0.00  0.00    +0.000 OA
ATOM      5  C   UNL     1       3.258   4.879  18.397  0.00  0.00    +0.000 A 
ATOM      6  N   UNL     1       3.028   6.107  17.812  0.00  0.00    +0.000 N 
ATOM      7  C   UNL     1       2.471   7.192  18.499  0.00  0.00    +0.000 A 
ATOM      8  C   UNL     1       2.212   8.389  17.829  0.00  0.00    +0.000 A 
ATOM      9  C   UNL     1       1.601   9.451  18.510  0.00  0.00    +0.000 A 
ATOM     10  C   UNL     1       1.275   9.312  19.862  0.00  0.00    +0.000 A 
ATOM     11  C   UNL     1       1.544   8.116  20.538  0.00  0.00    +0.000 A 
ATOM     12  C   UNL     1       2.145   7.062  19.853  0.00  0.00    +0.000 A 
ATOM     13  N   UNL     1       2.404   5.863  20.522  0.00  0.00    +0.000 N 
ATOM     14  C   UNL     1       2.948   4.756  19.910  0.00  0.00    +0.000 A 
ATOM     15  O   UNL     1       3.172   3.724  20.530  0.00  0.00    +0.000 OA
ATOM     16  H   UNL     1       3.239   6.169  16.826  0.00  0.00    +0.000 HD
ATOM     17  H   UNL     1       2.188   5.759  21.505  0.00  0.00    +0.000 HD
ENDBRANCH   1  10
BRANCH   1  18
ATOM     18  N   UNL     1      -0.463  11.454  19.552  0.00  0.00    +0.000 NA
ATOM     19  H   UNL     1      -0.049  11.226  18.650  0.00  0.00    +0.000 HD
BRANCH  18  20
ATOM     20  C   UNL     1      -1.960  11.503  19.575  0.00  0.00    +0.000 C 
BRANCH  20  21
ATOM     21  C   UNL     1      -2.598  11.132  18.212  0.00  0.00    +0.000 A 
ATOM     22  C   UNL     1      -1.954  10.282  17.293  0.00  0.00    +0.000 A 
ATOM     23  C   UNL     1      -2.532   9.971  16.057  0.00  0.00    +0.000 A 
ATOM     24  C   UNL     1      -3.776  10.486  15.711  0.00  0.00    +0.000 A 
ATOM     25  C   UNL     1      -4.448  11.306  16.607  0.00  0.00    +0.000 A 
ATOM     26  C   UNL     1      -3.872  11.614  17.844  0.00  0.00    +0.000 A 
ENDBRANCH  20  21
BRANCH  20  27
ATOM     27  C   UNL     1      -2.460  12.872  20.124  0.00  0.00    +0.000 C 
BRANCH  27  28
ATOM     28  C   UNL     1      -3.252  12.879  21.419  0.00  0.00    +0.000 A 
ATOM     29  C   UNL     1      -2.699  12.563  22.670  0.00  0.00    +0.000 A 
ATOM     30  C   UNL     1      -3.493  12.473  23.813  0.00  0.00    +0.000 A 
ATOM     31  C   UNL     1      -4.856  12.721  23.728  0.00  0.00    +0.000 A 
ATOM     32  C   UNL     1      -5.419  13.083  22.506  0.00  0.00    +0.000 A 
ATOM     33  C   UNL     1      -4.623  13.167  21.360  0.00  0.00    +0.000 A 
ENDBRANCH  27  28
ENDBRANCH  20  27
ENDBRANCH  18  20
ENDBRANCH   1  18
TORSDOF 6
ENDMDL
MODEL 7
REMARK VINA RESULT:      -8.4      3.141      9.135
REMARK  Name = 
REMARK  6 active torsions:
REMARK  status: ('A' for Active; 'I' for Inactive)
REMARK    1  A    between atoms: C_7  and  S_8
REMARK    2  A    between atoms: S_8  and  N_11
REMARK    3  A    between atoms: N_11  and  C_12
REMARK    4  A    between atoms: C_12  and  C_13
REMARK    5  A    between atoms: C_12  and  C_20
REMARK    6  A    between atoms: C_13  and  C_14
REMARK                            x       y       z     vdW  Elec       q    Type
REMARK                         _______ _______ _______ _____ _____    ______ ____
ROOT
ATOM      1  S   UNL     1       0.483   9.768  20.751  0.00  0.00    +0.000 S 
ATOM      2  O   UNL     1      -0.622   9.006  21.293  0.00  0.00    +0.000 OA
ATOM      3  O   UNL     1       1.337  10.561  21.602  0.00  0.00    +0.000 OA
ENDROOT
BRANCH   1  10
ATOM      4  O   UNL     1       4.401   3.622  17.437  0.00  0.00    +0.000 OA
ATOM      5  C   UNL     1       3.874   4.482  18.130  0.00  0.00    +0.000 A 
ATOM      6  N   UNL     1       3.568   5.730  17.629  0.00  0.00    +0.000 N 
ATOM      7  C   UNL     1       2.900   6.711  18.371  0.00  0.00    +0.000 A 
ATOM      8  C   UNL     1       2.570   7.934  17.783  0.00  0.00    +0.000 A 
ATOM      9  C   UNL     1       1.851   8.889  18.514  0.00  0.00    +0.000 A 
ATOM     10  C   UNL     1       1.487   8.619  19.836  0.00  0.00    +0.000 A 
ATOM     11  C   UNL     1       1.826   7.399  20.432  0.00  0.00    +0.000 A 
ATOM     12  C   UNL     1       2.534   6.451  19.696  0.00  0.00    +0.000 A 
ATOM     13  N   UNL     1       2.865   5.227  20.284  0.00  0.00    +0.000 N 
ATOM     14  C   UNL     1       3.518   4.217  19.614  0.00  0.00    +0.000 A 
ATOM     15  O   UNL     1       3.801   3.160  20.164  0.00  0.00    +0.000 OA
ATOM     16  H   UNL     1       3.809   5.886  16.661  0.00  0.00    +0.000 HD
ATOM     17  H   UNL     1       2.621   5.030  21.246  0.00  0.00    +0.000 HD
ENDBRANCH   1  10
BRANCH   1  18
ATOM     18  N   UNL     1      -0.210  10.805  19.618  0.00  0.00    +0.000 NA
ATOM     19  H   UNL     1       0.156  10.536  18.706  0.00  0.00    +0.000 HD
BRANCH  18  20
ATOM     20  C   UNL     1      -1.673  11.128  19.650  0.00  0.00    +0.000 C 
BRANCH  20  21
ATOM     21  C   UNL     1      -2.367  10.924  18.280  0.00  0.00    +0.000 A 
ATOM     22  C   UNL     1      -3.575  11.569  17.952  0.00  0.00    +0.000 A 
ATOM     23  C   UNL     1      -4.203  11.360  16.718  0.00  0.00    +0.000 A 
ATOM     24  C   UNL     1      -3.634  10.515  15.772  0.00  0.00    +0.000 A 
ATOM     25  C   UNL     1      -2.430   9.885  16.055  0.00  0.00    +0.000 A 
ATOM     26  C   UNL     1      -1.801  10.098  17.287  0.00  0.00    +0.000 A 
ENDBRANCH  20  21
BRANCH  20  27
ATOM     27  C   UNL     1      -1.912  12.548  20.243  0.00  0.00    +0.000 C 
BRANCH  27  28
ATOM     28  C   UNL     1      -2.807  12.674  21.464  0.00  0.00    +0.000 A 
ATOM     29  C   UNL     1      -2.416  12.291  22.757  0.00  0.00    +0.000 A 
ATOM     30  C   UNL     1      -3.312  12.320  23.824  0.00  0.00    +0.000 A 
ATOM     31  C   UNL     1      -4.615  12.755  23.621  0.00  0.00    +0.000 A 
ATOM     32  C   UNL     1      -5.012  13.183  22.356  0.00  0.00    +0.000 A 
ATOM     33  C   UNL     1      -4.114  13.149  21.286  0.00  0.00    +0.000 A 
ENDBRANCH  27  28
ENDBRANCH  20  27
ENDBRANCH  18  20
ENDBRANCH   1  18
TORSDOF 6
ENDMDL
MODEL 8
REMARK VINA RESULT:      -8.3      4.662      9.046
REMARK  Name = 
REMARK  6 active torsions:
REMARK  status: ('A' for Active; 'I' for Inactive)
REMARK    1  A    between atoms: C_7  and  S_8
REMARK    2  A    between atoms: S_8  and  N_11
REMARK    3  A    between atoms: N_11  and  C_12
REMARK    4  A    between atoms: C_12  and  C_13
REMARK    5  A    between atoms: C_12  and  C_20
REMARK    6  A    between atoms: C_13  and  C_14
REMARK                            x       y       z     vdW  Elec       q    Type
REMARK                         _______ _______ _______ _____ _____    ______ ____
ROOT
ATOM      1  S   UNL     1       5.538   4.811  19.267  0.00  0.00    +0.000 S 
ATOM      2  O   UNL     1       5.152   3.550  19.865  0.00  0.00    +0.000 OA
ATOM      3  O   UNL     1       6.720   5.516  19.698  0.00  0.00    +0.000 OA
ENDROOT
BRANCH   1  10
ATOM      4  O   UNL     1       7.338   3.953  11.512  0.00  0.00    +0.000 OA
ATOM      5  C   UNL     1       7.140   4.283  12.674  0.00  0.00    +0.000 A 
ATOM      6  N   UNL     1       6.176   3.671  13.448  0.00  0.00    +0.000 N 
ATOM      7  C   UNL     1       5.972   3.974  14.800  0.00  0.00    +0.000 A 
ATOM      8  C   UNL     1       5.017   3.274  15.539  0.00  0.00    +0.000 A 
ATOM      9  C   UNL     1       4.859   3.542  16.905  0.00  0.00    +0.000 A 
ATOM     10  C   UNL     1       5.644   4.525  17.515  0.00  0.00    +0.000 A 
ATOM     11  C   UNL     1       6.594   5.235  16.773  0.00  0.00    +0.000 A 
ATOM     12  C   UNL     1       6.752   4.957  15.416  0.00  0.00    +0.000 A 
ATOM     13  N   UNL     1       7.708   5.657  14.675  0.00  0.00    +0.000 N 
ATOM     14  C   UNL     1       7.963   5.412  13.345  0.00  0.00    +0.000 A 
ATOM     15  O   UNL     1       8.801   6.052  12.723  0.00  0.00    +0.000 OA
ATOM     16  H   UNL     1       5.648   2.941  12.994  0.00  0.00    +0.000 HD
ATOM     17  H   UNL     1       8.269   6.382  15.103  0.00  0.00    +0.000 HD
ENDBRANCH   1  10
BRANCH   1  18
ATOM     18  N   UNL     1       4.220   5.834  19.506  0.00  0.00    +0.000 NA
ATOM     19  H   UNL     1       4.535   6.588  20.114  0.00  0.00    +0.000 HD
BRANCH  18  20
ATOM     20  C   UNL     1       3.344   6.254  18.366  0.00  0.00    +0.000 C 
BRANCH  20  21
ATOM     21  C   UNL     1       2.579   7.572  18.645  0.00  0.00    +0.000 A 
ATOM     22  C   UNL     1       1.956   7.827  19.882  0.00  0.00    +0.000 A 
ATOM     23  C   UNL     1       1.250   9.013  20.115  0.00  0.00    +0.000 A 
ATOM     24  C   UNL     1       1.161   9.985  19.126  0.00  0.00    +0.000 A 
ATOM     25  C   UNL     1       1.787   9.776  17.905  0.00  0.00    +0.000 A 
ATOM     26  C   UNL     1       2.495   8.592  17.674  0.00  0.00    +0.000 A 
ENDBRANCH  20  21
BRANCH  20  27
ATOM     27  C   UNL     1       2.405   5.091  17.932  0.00  0.00    +0.000 C 
BRANCH  27  28
ATOM     28  C   UNL     1       2.027   4.048  18.970  0.00  0.00    +0.000 A 
ATOM     29  C   UNL     1       1.855   2.686  18.675  0.00  0.00    +0.000 A 
ATOM     30  C   UNL     1       1.397   1.789  19.639  0.00  0.00    +0.000 A 
ATOM     31  C   UNL     1       1.123   2.235  20.925  0.00  0.00    +0.000 A 
ATOM     32  C   UNL     1       1.331   3.573  21.252  0.00  0.00    +0.000 A 
ATOM     33  C   UNL     1       1.786   4.473  20.284  0.00  0.00    +0.000 A 
ENDBRANCH  27  28
ENDBRANCH  20  27
ENDBRANCH  18  20
ENDBRANCH   1  18
TORSDOF 6
ENDMDL
MODEL 9
REMARK VINA RESULT:      -8.2      4.748      9.083
REMARK  Name = 
REMARK  6 active torsions:
REMARK  status: ('A' for Active; 'I' for Inactive)
REMARK    1  A    between atoms: C_7  and  S_8
REMARK    2  A    between atoms: S_8  and  N_11
REMARK    3  A    between atoms: N_11  and  C_12
REMARK    4  A    between atoms: C_12  and  C_13
REMARK    5  A    between atoms: C_12  and  C_20
REMARK    6  A    between atoms: C_13  and  C_14
REMARK                            x       y       z     vdW  Elec       q    Type
REMARK                         _______ _______ _______ _____ _____    ______ ____
ROOT
ATOM      1  S   UNL     1       5.732   4.670  19.262  0.00  0.00    +0.000 S 
ATOM      2  O   UNL     1       5.219   3.317  19.331  0.00  0.00    +0.000 OA
ATOM      3  O   UNL     1       6.723   5.146  20.195  0.00  0.00    +0.000 OA
ENDROOT
BRANCH   1  10
ATOM      4  O   UNL     1       7.337   4.971  11.423  0.00  0.00    +0.000 OA
ATOM      5  C   UNL     1       7.071   4.713  12.590  0.00  0.00    +0.000 A 
ATOM      6  N   UNL     1       7.475   5.532  13.624  0.00  0.00    +0.000 N 
ATOM      7  C   UNL     1       7.126   5.307  14.961  0.00  0.00    +0.000 A 
ATOM      8  C   UNL     1       7.521   6.209  15.951  0.00  0.00    +0.000 A 
ATOM      9  C   UNL     1       7.120   6.007  17.278  0.00  0.00    +0.000 A 
ATOM     10  C   UNL     1       6.343   4.892  17.607  0.00  0.00    +0.000 A 
ATOM     11  C   UNL     1       5.956   3.981  16.618  0.00  0.00    +0.000 A 
ATOM     12  C   UNL     1       6.352   4.192  15.298  0.00  0.00    +0.000 A 
ATOM     13  N   UNL     1       5.957   3.290  14.307  0.00  0.00    +0.000 N 
ATOM     14  C   UNL     1       6.262   3.449  12.974  0.00  0.00    +0.000 A 
ATOM     15  O   UNL     1       5.908   2.633  12.132  0.00  0.00    +0.000 OA
ATOM     16  H   UNL     1       8.003   6.349  13.356  0.00  0.00    +0.000 HD
ATOM     17  H   UNL     1       5.410   2.471  14.537  0.00  0.00    +0.000 HD
ENDBRANCH   1  10
BRANCH   1  18
ATOM     18  N   UNL     1       4.377   5.662  19.408  0.00  0.00    +0.000 NA
ATOM     19  H   UNL     1       4.588   6.348  20.131  0.00  0.00    +0.000 HD
BRANCH  18  20
ATOM     20  C   UNL     1       3.672   6.201  18.201  0.00  0.00    +0.000 C 
BRANCH  20  21
ATOM     21  C   UNL     1       2.780   7.427  18.519  0.00  0.00    +0.000 A 
ATOM     22  C   UNL     1       2.531   8.436  17.570  0.00  0.00    +0.000 A 
ATOM     23  C   UNL     1       1.740   9.550  17.876  0.00  0.00    +0.000 A 
ATOM     24  C   UNL     1       1.161   9.677  19.134  0.00  0.00    +0.000 A 
ATOM     25  C   UNL     1       1.365   8.686  20.083  0.00  0.00    +0.000 A 
ATOM     26  C   UNL     1       2.153   7.571  19.775  0.00  0.00    +0.000 A 
ENDBRANCH  20  21
BRANCH  20  27
ATOM     27  C   UNL     1       2.901   5.068  17.461  0.00  0.00    +0.000 C 
BRANCH  27  28
ATOM     28  C   UNL     1       2.160   4.039  18.296  0.00  0.00    +0.000 A 
ATOM     29  C   UNL     1       1.436   4.357  19.456  0.00  0.00    +0.000 A 
ATOM     30  C   UNL     1       0.868   3.362  20.251  0.00  0.00    +0.000 A 
ATOM     31  C   UNL     1       0.996   2.029  19.886  0.00  0.00    +0.000 A 
ATOM     32  C   UNL     1       1.671   1.694  18.714  0.00  0.00    +0.000 A 
ATOM     33  C   UNL     1       2.244   2.691  17.921  0.00  0.00    +0.000 A 
ENDBRANCH  27  28
ENDBRANCH  20  27
ENDBRANCH  18  20
ENDBRANCH   1  18
TORSDOF 6
ENDMDL
