MODEL 1
REMARK VINA RESULT:      -8.8      0.000      0.000
REMARK  Name = 
REMARK  5 active torsions:
REMARK  status: ('A' for Active; 'I' for Inactive)
REMARK    1  A    between atoms: C_2  and  C_3
REMARK    2  A    between atoms: C_3  and  N_4
REMARK    3  A    between atoms: N_9  and  C_10
REMARK    4  A    between atoms: C_10  and  C_11
REMARK    5  A    between atoms: C_23  and  C_24
REMARK                            x       y       z     vdW  Elec       q    Type
REMARK                         _______ _______ _______ _____ _____    ______ ____
ROOT
ATOM      1  O   UNL     1       0.536   5.138  20.525  0.00  0.00    +0.000 OA
ATOM      2  C   UNL     1       1.642   4.972  20.000  0.00  0.00    +0.000 C 
ATOM      3  N   UNL     1       1.949   3.845  19.254  0.00  0.00    +0.000 N 
ATOM      4  C   UNL     1       0.889   2.922  18.898  0.00  0.00    +0.000 C 
ATOM      5  C   UNL     1       1.442   1.568  19.290  0.00  0.00    +0.000 C 
ATOM      6  C   UNL     1       2.916   1.695  18.923  0.00  0.00    +0.000 C 
ATOM      7  C   UNL     1       3.257   3.166  19.224  0.00  0.00    +0.000 C 
ENDROOT
BRANCH   7   8
ATOM      8  C   UNL     1       4.242   3.717  18.214  0.00  0.00    +0.000 A 
ATOM      9  N   UNL     1       4.054   3.657  16.908  0.00  0.00    +0.000 NA
ATOM     10  C   UNL     1       5.147   4.189  16.235  0.00  0.00    +0.000 A 
ATOM     11  C   UNL     1       5.313   4.276  14.837  0.00  0.00    +0.000 A 
ATOM     12  C   UNL     1       6.515   4.763  14.305  0.00  0.00    +0.000 A 
ATOM     13  C   UNL     1       7.544   5.174  15.147  0.00  0.00    +0.000 A 
ATOM     14  C   UNL     1       7.383   5.143  16.535  0.00  0.00    +0.000 A 
ATOM     15  C   UNL     1       6.174   4.654  17.056  0.00  0.00    +0.000 A 
ATOM     16  S   UNL     1       5.678   4.531  18.694  0.00  0.00    +0.000 S 
ENDBRANCH   7   8
BRANCH   2  17
ATOM     17  C   UNL     1       2.679   6.090  20.056  0.00  0.00    +0.000 C 
BRANCH  17  18
ATOM     18  N   UNL     1       2.334   7.366  19.420  0.00  0.00    +0.000 N 
ATOM     19  C   UNL     1       2.718   7.657  18.122  0.00  0.00    +0.000 A 
ATOM     20  O   UNL     1       3.426   6.970  17.391  0.00  0.00    +0.000 OA
ATOM     21  C   UNL     1       2.268   8.938  17.574  0.00  0.00    +0.000 A 
ATOM     22  C   UNL     1       1.563   9.769  18.337  0.00  0.00    +0.000 A 
ATOM     23  N   UNL     1       1.231   9.453  19.635  0.00  0.00    +0.000 N 
ATOM     24  C   UNL     1       1.580   8.234  20.213  0.00  0.00    +0.000 A 
ATOM     25  O   UNL     1       1.241   7.935  21.361  0.00  0.00    +0.000 OA
BRANCH  23  26
ATOM     26  C   UNL     1       0.442  10.411  20.416  0.00  0.00    +0.000 C 
BRANCH  26  27
ATOM     27  C   UNL     1      -0.830  10.828  19.709  0.00  0.00    +0.000 A 
ATOM     28  C   UNL     1      -1.555  11.940  20.159  0.00  0.00    +0.000 A 
ATOM     29  C   UNL     1      -2.761  12.294  19.554  0.00  0.00    +0.000 A 
ATOM     30  C   UNL     1      -3.249  11.549  18.483  0.00  0.00    +0.000 A 
ATOM     31  C   UNL     1      -2.520  10.463  18.004  0.00  0.00    +0.000 A 
ATOM     32  C   UNL     1      -1.316  10.101  18.612  0.00  0.00    +0.000 A 
ENDBRANCH  26  27
ENDBRANCH  23  26
ENDBRANCH  17  18
ENDBRANCH   2  17
TORSDOF 5
ENDMDL
MODEL 2
REMARK VINA RESULT:      -8.6      1.175      1.562
REMARK  Name = 
REMARK  5 active torsions:
REMARK  status: ('A' for Active; 'I' for Inactive)
REMARK    1  A    between atoms: C_2  and  C_3
REMARK    2  A    between atoms: C_3  and  N_4
REMARK    3  A    between atoms: N_9  and  C_10
REMARK    4  A    between atoms: C_10  and  C_11
REMARK    5  A    between atoms: C_23  and  C_24
REMARK                            x       y       z     vdW  Elec       q    Type
REMARK                         _______ _______ _______ _____ _____    ______ ____
ROOT
ATOM      1  O   UNL     1       0.557   5.067  20.575  0.00  0.00    +0.000 OA
ATOM      2  C   UNL     1       1.662   4.918  20.043  0.00  0.00    +0.000 C 
ATOM      3  N   UNL     1       1.981   3.799  19.292  0.00  0.00    +0.000 N 
ATOM      4  C   UNL     1       0.932   2.862  18.939  0.00  0.00    +0.000 C 
ATOM      5  C   UNL     1       1.507   1.515  19.324  0.00  0.00    +0.000 C 
ATOM      6  C   UNL     1       2.977   1.664  18.948  0.00  0.00    +0.000 C 
ATOM      7  C   UNL     1       3.298   3.139  19.252  0.00  0.00    +0.000 C 
ENDROOT
BRANCH   7   8
ATOM      8  C   UNL     1       4.270   3.706  18.239  0.00  0.00    +0.000 A 
ATOM      9  N   UNL     1       4.089   3.623  16.932  0.00  0.00    +0.000 NA
ATOM     10  C   UNL     1       5.168   4.180  16.257  0.00  0.00    +0.000 A 
ATOM     11  C   UNL     1       5.336   4.254  14.858  0.00  0.00    +0.000 A 
ATOM     12  C   UNL     1       6.524   4.772  14.324  0.00  0.00    +0.000 A 
ATOM     13  C   UNL     1       7.536   5.226  15.165  0.00  0.00    +0.000 A 
ATOM     14  C   UNL     1       7.371   5.209  16.552  0.00  0.00    +0.000 A 
ATOM     15  C   UNL     1       6.175   4.689  17.075  0.00  0.00    +0.000 A 
ATOM     16  S   UNL     1       5.677   4.573  18.713  0.00  0.00    +0.000 S 
ENDBRANCH   7   8
BRANCH   2  17
ATOM     17  C   UNL     1       2.683   6.052  20.096  0.00  0.00    +0.000 C 
BRANCH  17  18
ATOM     18  N   UNL     1       2.318   7.323  19.463  0.00  0.00    +0.000 N 
ATOM     19  C   UNL     1       2.633   7.592  18.141  0.00  0.00    +0.000 A 
ATOM     20  O   UNL     1       3.293   6.887  17.383  0.00  0.00    +0.000 OA
ATOM     21  C   UNL     1       2.168   8.871  17.601  0.00  0.00    +0.000 A 
ATOM     22  C   UNL     1       1.515   9.720  18.390  0.00  0.00    +0.000 A 
ATOM     23  N   UNL     1       1.251   9.426  19.708  0.00  0.00    +0.000 N 
ATOM     24  C   UNL     1       1.618   8.211  20.283  0.00  0.00    +0.000 A 
ATOM     25  O   UNL     1       1.339   7.930  21.452  0.00  0.00    +0.000 OA
BRANCH  23  26
ATOM     26  C   UNL     1       0.517  10.403  20.517  0.00  0.00    +0.000 C 
BRANCH  26  27
ATOM     27  C   UNL     1       0.553  11.793  19.922  0.00  0.00    +0.000 A 
ATOM     28  C   UNL     1       1.596  12.672  20.245  0.00  0.00    +0.000 A 
ATOM     29  C   UNL     1       1.605  13.978  19.752  0.00  0.00    +0.000 A 
ATOM     30  C   UNL     1       0.579  14.414  18.918  0.00  0.00    +0.000 A 
ATOM     31  C   UNL     1      -0.446  13.540  18.561  0.00  0.00    +0.000 A 
ATOM     32  C   UNL     1      -0.461  12.235  19.059  0.00  0.00    +0.000 A 
ENDBRANCH  26  27
ENDBRANCH  23  26
ENDBRANCH  17  18
ENDBRANCH   2  17
TORSDOF 5
ENDMDL
MODEL 3
REMARK VINA RESULT:      -8.3      3.838      9.953
REMARK  Name = 
REMARK  5 active torsions:
REMARK  status: ('A' for Active; 'I' for Inactive)
REMARK    1  A    between atoms: C_2  and  C_3
REMARK    2  A    between atoms: C_3  and  N_4
REMARK    3  A    between atoms: N_9  and  C_10
REMARK    4  A    between atoms: C_10  and  C_11
REMARK    5  A    between atoms: C_23  and  C_24
REMARK                            x       y       z     vdW  Elec       q    Type
REMARK                         _______ _______ _______ _____ _____    ______ ____
ROOT
ATOM      1  O   UNL     1       1.320  12.341  18.259  0.00  0.00    +0.000 OA
ATOM      2  C   UNL     1       0.205  12.216  18.778  0.00  0.00    +0.000 C 
ATOM      3  N   UNL     1      -0.572  13.304  19.140  0.00  0.00    +0.000 N 
ATOM      4  C   UNL     1      -0.171  14.632  18.716  0.00  0.00    +0.000 C 
ATOM      5  C   UNL     1      -0.236  15.451  19.987  0.00  0.00    +0.000 C 
ATOM      6  C   UNL     1      -1.464  14.878  20.687  0.00  0.00    +0.000 C 
ATOM      7  C   UNL     1      -1.441  13.381  20.327  0.00  0.00    +0.000 C 
ENDROOT
BRANCH   7   8
ATOM      8  C   UNL     1      -2.843  12.844  20.133  0.00  0.00    +0.000 A 
ATOM      9  N   UNL     1      -3.254  12.271  19.015  0.00  0.00    +0.000 NA
ATOM     10  C   UNL     1      -4.598  11.931  19.110  0.00  0.00    +0.000 A 
ATOM     11  C   UNL     1      -5.383  11.323  18.108  0.00  0.00    +0.000 A 
ATOM     12  C   UNL     1      -6.753  11.117  18.323  0.00  0.00    +0.000 A 
ATOM     13  C   UNL     1      -7.343  11.498  19.525  0.00  0.00    +0.000 A 
ATOM     14  C   UNL     1      -6.575  12.057  20.551  0.00  0.00    +0.000 A 
ATOM     15  C   UNL     1      -5.203  12.256  20.323  0.00  0.00    +0.000 A 
ATOM     16  S   UNL     1      -4.014  12.878  21.392  0.00  0.00    +0.000 S 
ENDBRANCH   7   8
BRANCH   2  17
ATOM     17  C   UNL     1      -0.409  10.826  18.920  0.00  0.00    +0.000 C 
BRANCH  17  18
ATOM     18  N   UNL     1       0.258   9.879  19.820  0.00  0.00    +0.000 N 
ATOM     19  C   UNL     1       0.007   9.873  21.182  0.00  0.00    +0.000 A 
ATOM     20  O   UNL     1      -0.700  10.661  21.804  0.00  0.00    +0.000 OA
ATOM     21  C   UNL     1       0.687   8.845  21.972  0.00  0.00    +0.000 A 
ATOM     22  C   UNL     1       1.529   8.006  21.375  0.00  0.00    +0.000 A 
ATOM     23  N   UNL     1       1.775   8.069  20.021  0.00  0.00    +0.000 N 
ATOM     24  C   UNL     1       1.131   8.986  19.194  0.00  0.00    +0.000 A 
ATOM     25  O   UNL     1       1.317   9.009  17.974  0.00  0.00    +0.000 OA
BRANCH  23  26
ATOM     26  C   UNL     1       2.706   7.106  19.427  0.00  0.00    +0.000 C 
BRANCH  26  27
ATOM     27  C   UNL     1       2.110   5.720  19.308  0.00  0.00    +0.000 A 
ATOM     28  C   UNL     1       1.671   5.040  20.452  0.00  0.00    +0.000 A 
ATOM     29  C   UNL     1       1.179   3.737  20.361  0.00  0.00    +0.000 A 
ATOM     30  C   UNL     1       1.107   3.106  19.122  0.00  0.00    +0.000 A 
ATOM     31  C   UNL     1       1.508   3.783  17.972  0.00  0.00    +0.000 A 
ATOM     32  C   UNL     1       2.008   5.084  18.062  0.00  0.00    +0.000 A 
ENDBRANCH  26  27
ENDBRANCH  23  26
ENDBRANCH  17  18
ENDBRANCH   2  17
TORSDOF 5
ENDMDL
MODEL 4
REMARK VINA RESULT:      -8.3      3.273      8.653
REMARK  Name = 
REMARK  5 active torsions:
REMARK  status: ('A' for Active; 'I' for Inactive)
REMARK    1  A    between atoms: C_2  and  C_3
REMARK    2  A    between atoms: C_3  and  N_4
REMARK    3  A    between atoms: N_9  and  C_10
REMARK    4  A    between atoms: C_10  and  C_11
REMARK    5  A    between atoms: C_23  and  C_24
REMARK                            x       y       z     vdW  Elec       q    Type
REMARK                         _______ _______ _______ _____ _____    ______ ____
ROOT
ATOM      1  O   UNL     1       1.958  10.811  21.654  0.00  0.00    +0.000 OA
ATOM      2  C   UNL     1       0.870  10.760  21.070  0.00  0.00    +0.000 C 
ATOM      3  N   UNL     1       0.103  11.887  20.828  0.00  0.00    +0.000 N 
ATOM      4  C   UNL     1       0.673  13.198  21.076  0.00  0.00    +0.000 C 
ATOM      5  C   UNL     1      -0.383  13.900  21.903  0.00  0.00    +0.000 C 
ATOM      6  C   UNL     1      -1.680  13.400  21.275  0.00  0.00    +0.000 C 
ATOM      7  C   UNL     1      -1.369  11.948  20.867  0.00  0.00    +0.000 C 
ENDROOT
BRANCH   7   8
ATOM      8  C   UNL     1      -2.062  11.585  19.570  0.00  0.00    +0.000 A 
ATOM      9  N   UNL     1      -1.541  10.766  18.673  0.00  0.00    +0.000 NA
ATOM     10  C   UNL     1      -2.375  10.667  17.566  0.00  0.00    +0.000 A 
ATOM     11  C   UNL     1      -2.140   9.903  16.403  0.00  0.00    +0.000 A 
ATOM     12  C   UNL     1      -3.038   9.971  15.330  0.00  0.00    +0.000 A 
ATOM     13  C   UNL     1      -4.169  10.779  15.407  0.00  0.00    +0.000 A 
ATOM     14  C   UNL     1      -4.448  11.506  16.567  0.00  0.00    +0.000 A 
ATOM     15  C   UNL     1      -3.541  11.427  17.637  0.00  0.00    +0.000 A 
ATOM     16  S   UNL     1      -3.632  12.167  19.182  0.00  0.00    +0.000 S 
ENDBRANCH   7   8
BRANCH   2  17
ATOM     17  C   UNL     1       0.396   9.437  20.475  0.00  0.00    +0.000 C 
BRANCH  17  18
ATOM     18  N   UNL     1       1.333   8.703  19.619  0.00  0.00    +0.000 N 
ATOM     19  C   UNL     1       1.693   9.174  18.367  0.00  0.00    +0.000 A 
ATOM     20  O   UNL     1       1.245  10.164  17.795  0.00  0.00    +0.000 OA
ATOM     21  C   UNL     1       2.679   8.386  17.626  0.00  0.00    +0.000 A 
ATOM     22  C   UNL     1       3.149   7.258  18.151  0.00  0.00    +0.000 A 
ATOM     23  N   UNL     1       2.740   6.809  19.387  0.00  0.00    +0.000 N 
ATOM     24  C   UNL     1       1.841   7.527  20.173  0.00  0.00    +0.000 A 
ATOM     25  O   UNL     1       1.511   7.146  21.300  0.00  0.00    +0.000 OA
BRANCH  23  26
ATOM     26  C   UNL     1       3.307   5.563  19.910  0.00  0.00    +0.000 C 
BRANCH  26  27
ATOM     27  C   UNL     1       2.527   4.342  19.472  0.00  0.00    +0.000 A 
ATOM     28  C   UNL     1       2.935   3.611  18.348  0.00  0.00    +0.000 A 
ATOM     29  C   UNL     1       2.187   2.522  17.899  0.00  0.00    +0.000 A 
ATOM     30  C   UNL     1       1.032   2.142  18.578  0.00  0.00    +0.000 A 
ATOM     31  C   UNL     1       0.635   2.839  19.717  0.00  0.00    +0.000 A 
ATOM     32  C   UNL     1       1.378   3.934  20.165  0.00  0.00    +0.000 A 
ENDBRANCH  26  27
ENDBRANCH  23  26
ENDBRANCH  17  18
ENDBRANCH   2  17
TORSDOF 5
ENDMDL
MODEL 5
REMARK VINA RESULT:      -8.1      3.245      9.730
REMARK  Name = 
REMARK  5 active torsions:
REMARK  status: ('A' for Active; 'I' for Inactive)
REMARK    1  A    between atoms: C_2  and  C_3
REMARK    2  A    between atoms: C_3  and  N_4
REMARK    3  A    between atoms: N_9  and  C_10
REMARK    4  A    between atoms: C_10  and  C_11
REMARK    5  A    between atoms: C_23  and  C_24
REMARK                            x       y       z     vdW  Elec       q    Type
REMARK                         _______ _______ _______ _____ _____    ______ ____
ROOT
ATOM      1  O   UNL     1       2.563  11.827  17.921  0.00  0.00    +0.000 OA
ATOM      2  C   UNL     1       1.642  11.838  18.744  0.00  0.00    +0.000 C 
ATOM      3  N   UNL     1       1.362  12.943  19.531  0.00  0.00    +0.000 N 
ATOM      4  C   UNL     1       2.028  14.200  19.249  0.00  0.00    +0.000 C 
ATOM      5  C   UNL     1       2.555  14.641  20.598  0.00  0.00    +0.000 C 
ATOM      6  C   UNL     1       1.439  14.212  21.544  0.00  0.00    +0.000 C 
ATOM      7  C   UNL     1       0.903  12.906  20.931  0.00  0.00    +0.000 C 
ENDROOT
BRANCH   7   8
ATOM      8  C   UNL     1      -0.596  12.791  21.112  0.00  0.00    +0.000 A 
ATOM      9  N   UNL     1      -1.450  12.761  20.104  0.00  0.00    +0.000 NA
ATOM     10  C   UNL     1      -2.756  12.710  20.576  0.00  0.00    +0.000 A 
ATOM     11  C   UNL     1      -3.931  12.686  19.795  0.00  0.00    +0.000 A 
ATOM     12  C   UNL     1      -5.185  12.720  20.420  0.00  0.00    +0.000 A 
ATOM     13  C   UNL     1      -5.280  12.764  21.808  0.00  0.00    +0.000 A 
ATOM     14  C   UNL     1      -4.131  12.737  22.603  0.00  0.00    +0.000 A 
ATOM     15  C   UNL     1      -2.880  12.702  21.964  0.00  0.00    +0.000 A 
ATOM     16  S   UNL     1      -1.316  12.626  22.665  0.00  0.00    +0.000 S 
ENDBRANCH   7   8
BRANCH   2  17
ATOM     17  C   UNL     1       0.687  10.650  18.824  0.00  0.00    +0.000 C 
BRANCH  17  18
ATOM     18  N   UNL     1       1.224   9.382  19.328  0.00  0.00    +0.000 N 
ATOM     19  C   UNL     1       1.021   8.978  20.637  0.00  0.00    +0.000 A 
ATOM     20  O   UNL     1       0.471   9.618  21.529  0.00  0.00    +0.000 OA
ATOM     21  C   UNL     1       1.556   7.667  21.012  0.00  0.00    +0.000 A 
ATOM     22  C   UNL     1       2.233   6.953  20.117  0.00  0.00    +0.000 A 
ATOM     23  N   UNL     1       2.440   7.408  18.835  0.00  0.00    +0.000 N 
ATOM     24  C   UNL     1       1.922   8.622  18.388  0.00  0.00    +0.000 A 
ATOM     25  O   UNL     1       2.069   9.006  17.224  0.00  0.00    +0.000 OA
BRANCH  23  26
ATOM     26  C   UNL     1       3.186   6.564  17.897  0.00  0.00    +0.000 C 
BRANCH  26  27
ATOM     27  C   UNL     1       2.992   5.087  18.165  0.00  0.00    +0.000 A 
ATOM     28  C   UNL     1       4.035   4.326  18.709  0.00  0.00    +0.000 A 
ATOM     29  C   UNL     1       3.888   2.951  18.901  0.00  0.00    +0.000 A 
ATOM     30  C   UNL     1       2.690   2.325  18.564  0.00  0.00    +0.000 A 
ATOM     31  C   UNL     1       1.633   3.076  18.055  0.00  0.00    +0.000 A 
ATOM     32  C   UNL     1       1.780   4.451  17.855  0.00  0.00    +0.000 A 
ENDBRANCH  26  27
ENDBRANCH  23  26
ENDBRANCH  17  18
ENDBRANCH   2  17
TORSDOF 5
ENDMDL
MODEL 6
REMARK VINA RESULT:      -8.1      3.262      9.786
REMARK  Name = 
REMARK  5 active torsions:
REMARK  status: ('A' for Active; 'I' for Inactive)
REMARK    1  A    between atoms: C_2  and  C_3
REMARK    2  A    between atoms: C_3  and  N_4
REMARK    3  A    between atoms: N_9  and  C_10
REMARK    4  A    between atoms: C_10  and  C_11
REMARK    5  A    between atoms: C_23  and  C_24
REMARK                            x       y       z     vdW  Elec       q    Type
REMARK                         _______ _______ _______ _____ _____    ______ ____
ROOT
ATOM      1  O   UNL     1       2.149  12.150  18.514  0.00  0.00    +0.000 OA
ATOM      2  C   UNL     1       0.961  12.009  18.822  0.00  0.00    +0.000 C 
ATOM      3  N   UNL     1       0.171  13.068  19.239  0.00  0.00    +0.000 N 
ATOM      4  C   UNL     1       0.681  14.421  19.119  0.00  0.00    +0.000 C 
ATOM      5  C   UNL     1       0.434  15.022  20.487  0.00  0.00    +0.000 C 
ATOM      6  C   UNL     1      -0.911  14.418  20.875  0.00  0.00    +0.000 C 
ATOM      7  C   UNL     1      -0.879  13.002  20.271  0.00  0.00    +0.000 C 
ENDROOT
BRANCH   7   8
ATOM      8  C   UNL     1      -2.247  12.591  19.769  0.00  0.00    +0.000 A 
ATOM      9  N   UNL     1      -3.357  12.758  20.465  0.00  0.00    +0.000 NA
ATOM     10  C   UNL     1      -4.446  12.236  19.777  0.00  0.00    +0.000 A 
ATOM     11  C   UNL     1      -5.786  12.214  20.216  0.00  0.00    +0.000 A 
ATOM     12  C   UNL     1      -6.764  11.573  19.443  0.00  0.00    +0.000 A 
ATOM     13  C   UNL     1      -6.424  10.968  18.236  0.00  0.00    +0.000 A 
ATOM     14  C   UNL     1      -5.112  11.021  17.757  0.00  0.00    +0.000 A 
ATOM     15  C   UNL     1      -4.142  11.667  18.541  0.00  0.00    +0.000 A 
ATOM     16  S   UNL     1      -2.479  11.921  18.202  0.00  0.00    +0.000 S 
ENDBRANCH   7   8
BRANCH   2  17
ATOM     17  C   UNL     1       0.285  10.655  18.623  0.00  0.00    +0.000 C 
BRANCH  17  18
ATOM     18  N   UNL     1       0.903   9.489  19.263  0.00  0.00    +0.000 N 
ATOM     19  C   UNL     1       0.638   9.161  20.582  0.00  0.00    +0.000 A 
ATOM     20  O   UNL     1      -0.041   9.801  21.379  0.00  0.00    +0.000 OA
ATOM     21  C   UNL     1       1.267   7.943  21.096  0.00  0.00    +0.000 A 
ATOM     22  C   UNL     1       2.080   7.240  20.311  0.00  0.00    +0.000 A 
ATOM     23  N   UNL     1       2.341   7.622  19.014  0.00  0.00    +0.000 N 
ATOM     24  C   UNL     1       1.744   8.741  18.437  0.00  0.00    +0.000 A 
ATOM     25  O   UNL     1       1.943   9.054  17.260  0.00  0.00    +0.000 OA
BRANCH  23  26
ATOM     26  C   UNL     1       3.238   6.795  18.201  0.00  0.00    +0.000 C 
BRANCH  26  27
ATOM     27  C   UNL     1       2.984   5.314  18.381  0.00  0.00    +0.000 A 
ATOM     28  C   UNL     1       1.824   4.728  17.855  0.00  0.00    +0.000 A 
ATOM     29  C   UNL     1       1.549   3.377  18.071  0.00  0.00    +0.000 A 
ATOM     30  C   UNL     1       2.439   2.593  18.801  0.00  0.00    +0.000 A 
ATOM     31  C   UNL     1       3.612   3.155  19.300  0.00  0.00    +0.000 A 
ATOM     32  C   UNL     1       3.886   4.509  19.092  0.00  0.00    +0.000 A 
ENDBRANCH  26  27
ENDBRANCH  23  26
ENDBRANCH  17  18
ENDBRANCH   2  17
TORSDOF 5
ENDMDL
MODEL 7
REMARK VINA RESULT:      -8.1      7.021     10.350
REMARK  Name = 
REMARK  5 active torsions:
REMARK  status: ('A' for Active; 'I' for Inactive)
REMARK    1  A    between atoms: C_2  and  C_3
REMARK    2  A    between atoms: C_3  and  N_4
REMARK    3  A    between atoms: N_9  and  C_10
REMARK    4  A    between atoms: C_10  and  C_11
REMARK    5  A    between atoms: C_23  and  C_24
REMARK                            x       y       z     vdW  Elec       q    Type
REMARK                         _______ _______ _______ _____ _____    ______ ____
ROOT
ATOM      1  O   UNL     1       0.987  12.553  18.463  0.00  0.00    +0.000 OA
ATOM      2  C   UNL     1       0.297  12.662  19.482  0.00  0.00    +0.000 C 
ATOM      3  N   UNL     1       0.312  13.800  20.272  0.00  0.00    +0.000 N 
ATOM      4  C   UNL     1       0.994  14.986  19.790  0.00  0.00    +0.000 C 
ATOM      5  C   UNL     1       1.868  15.398  20.956  0.00  0.00    +0.000 C 
ATOM      6  C   UNL     1       0.981  15.089  22.158  0.00  0.00    +0.000 C 
ATOM      7  C   UNL     1       0.204  13.828  21.741  0.00  0.00    +0.000 C 
ENDROOT
BRANCH   7   8
ATOM      8  C   UNL     1      -1.211  13.855  22.280  0.00  0.00    +0.000 A 
ATOM      9  N   UNL     1      -1.702  12.924  23.079  0.00  0.00    +0.000 NA
ATOM     10  C   UNL     1      -3.037  13.183  23.363  0.00  0.00    +0.000 A 
ATOM     11  C   UNL     1      -3.894  12.399  24.163  0.00  0.00    +0.000 A 
ATOM     12  C   UNL     1      -5.246  12.748  24.288  0.00  0.00    +0.000 A 
ATOM     13  C   UNL     1      -5.748  13.871  23.638  0.00  0.00    +0.000 A 
ATOM     14  C   UNL     1      -4.907  14.691  22.881  0.00  0.00    +0.000 A 
ATOM     15  C   UNL     1      -3.554  14.332  22.765  0.00  0.00    +0.000 A 
ATOM     16  S   UNL     1      -2.289  15.151  21.944  0.00  0.00    +0.000 S 
ENDBRANCH   7   8
BRANCH   2  17
ATOM     17  C   UNL     1      -0.708  11.568  19.833  0.00  0.00    +0.000 C 
BRANCH  17  18
ATOM     18  N   UNL     1      -1.678  11.183  18.803  0.00  0.00    +0.000 N 
ATOM     19  C   UNL     1      -1.377  10.232  17.843  0.00  0.00    +0.000 A 
ATOM     20  O   UNL     1      -0.298   9.671  17.673  0.00  0.00    +0.000 OA
ATOM     21  C   UNL     1      -2.443   9.887  16.900  0.00  0.00    +0.000 A 
ATOM     22  C   UNL     1      -3.615  10.513  16.975  0.00  0.00    +0.000 A 
ATOM     23  N   UNL     1      -3.861  11.477  17.927  0.00  0.00    +0.000 N 
ATOM     24  C   UNL     1      -2.914  11.826  18.888  0.00  0.00    +0.000 A 
ATOM     25  O   UNL     1      -3.154  12.657  19.769  0.00  0.00    +0.000 OA
BRANCH  23  26
ATOM     26  C   UNL     1      -5.178  12.119  17.959  0.00  0.00    +0.000 C 
BRANCH  26  27
ATOM     27  C   UNL     1      -6.102  11.496  18.983  0.00  0.00    +0.000 A 
ATOM     28  C   UNL     1      -6.562  12.251  20.070  0.00  0.00    +0.000 A 
ATOM     29  C   UNL     1      -7.363  11.669  21.054  0.00  0.00    +0.000 A 
ATOM     30  C   UNL     1      -7.724  10.328  20.952  0.00  0.00    +0.000 A 
ATOM     31  C   UNL     1      -7.303   9.575  19.858  0.00  0.00    +0.000 A 
ATOM     32  C   UNL     1      -6.495  10.154  18.877  0.00  0.00    +0.000 A 
ENDBRANCH  26  27
ENDBRANCH  23  26
ENDBRANCH  17  18
ENDBRANCH   2  17
TORSDOF 5
ENDMDL
MODEL 8
REMARK VINA RESULT:      -8.0      3.340      9.743
REMARK  Name = 
REMARK  5 active torsions:
REMARK  status: ('A' for Active; 'I' for Inactive)
REMARK    1  A    between atoms: C_2  and  C_3
REMARK    2  A    between atoms: C_3  and  N_4
REMARK    3  A    between atoms: N_9  and  C_10
REMARK    4  A    between atoms: C_10  and  C_11
REMARK    5  A    between atoms: C_23  and  C_24
REMARK                            x       y       z     vdW  Elec       q    Type
REMARK                         _______ _______ _______ _____ _____    ______ ____
ROOT
ATOM      1  O   UNL     1       2.874  11.450  17.608  0.00  0.00    +0.000 OA
ATOM      2  C   UNL     1       2.043  11.610  18.509  0.00  0.00    +0.000 C 
ATOM      3  N   UNL     1       1.978  12.771  19.261  0.00  0.00    +0.000 N 
ATOM      4  C   UNL     1       2.763  13.921  18.857  0.00  0.00    +0.000 C 
ATOM      5  C   UNL     1       3.465  14.343  20.130  0.00  0.00    +0.000 C 
ATOM      6  C   UNL     1       2.399  14.097  21.193  0.00  0.00    +0.000 C 
ATOM      7  C   UNL     1       1.652  12.846  20.696  0.00  0.00    +0.000 C 
ENDROOT
BRANCH   7   8
ATOM      8  C   UNL     1       0.174  12.930  21.016  0.00  0.00    +0.000 A 
ATOM      9  N   UNL     1      -0.326  12.685  22.214  0.00  0.00    +0.000 NA
ATOM     10  C   UNL     1      -1.712  12.785  22.192  0.00  0.00    +0.000 A 
ATOM     11  C   UNL     1      -2.587  12.571  23.278  0.00  0.00    +0.000 A 
ATOM     12  C   UNL     1      -3.973  12.626  23.078  0.00  0.00    +0.000 A 
ATOM     13  C   UNL     1      -4.494  12.903  21.817  0.00  0.00    +0.000 A 
ATOM     14  C   UNL     1      -3.645  13.167  20.738  0.00  0.00    +0.000 A 
ATOM     15  C   UNL     1      -2.258  13.111  20.952  0.00  0.00    +0.000 A 
ATOM     16  S   UNL     1      -0.985  13.420  19.844  0.00  0.00    +0.000 S 
ENDBRANCH   7   8
BRANCH   2  17
ATOM     17  C   UNL     1       0.962  10.556  18.733  0.00  0.00    +0.000 C 
BRANCH  17  18
ATOM     18  N   UNL     1       1.383   9.256  19.266  0.00  0.00    +0.000 N 
ATOM     19  C   UNL     1       1.180   8.916  20.593  0.00  0.00    +0.000 A 
ATOM     20  O   UNL     1       0.725   9.637  21.477  0.00  0.00    +0.000 OA
ATOM     21  C   UNL     1       1.590   7.570  20.998  0.00  0.00    +0.000 A 
ATOM     22  C   UNL     1       2.163   6.762  20.110  0.00  0.00    +0.000 A 
ATOM     23  N   UNL     1       2.375   7.153  18.807  0.00  0.00    +0.000 N 
ATOM     24  C   UNL     1       1.970   8.399  18.333  0.00  0.00    +0.000 A 
ATOM     25  O   UNL     1       2.120   8.729  17.153  0.00  0.00    +0.000 OA
BRANCH  23  26
ATOM     26  C   UNL     1       3.002   6.208  17.879  0.00  0.00    +0.000 C 
BRANCH  26  27
ATOM     27  C   UNL     1       4.510   6.181  18.007  0.00  0.00    +0.000 A 
ATOM     28  C   UNL     1       5.120   5.389  18.989  0.00  0.00    +0.000 A 
ATOM     29  C   UNL     1       6.506   5.407  19.157  0.00  0.00    +0.000 A 
ATOM     30  C   UNL     1       7.297   6.205  18.336  0.00  0.00    +0.000 A 
ATOM     31  C   UNL     1       6.706   6.971  17.333  0.00  0.00    +0.000 A 
ATOM     32  C   UNL     1       5.319   6.961  17.167  0.00  0.00    +0.000 A 
ENDBRANCH  26  27
ENDBRANCH  23  26
ENDBRANCH  17  18
ENDBRANCH   2  17
TORSDOF 5
ENDMDL
MODEL 9
REMARK VINA RESULT:      -8.0      1.249      1.941
REMARK  Name = 
REMARK  5 active torsions:
REMARK  status: ('A' for Active; 'I' for Inactive)
REMARK    1  A    between atoms: C_2  and  C_3
REMARK    2  A    between atoms: C_3  and  N_4
REMARK    3  A    between atoms: N_9  and  C_10
REMARK    4  A    between atoms: C_10  and  C_11
REMARK    5  A    between atoms: C_23  and  C_24
REMARK                            x       y       z     vdW  Elec       q    Type
REMARK                         _______ _______ _______ _____ _____    ______ ____
ROOT
ATOM      1  O   UNL     1       0.376   4.498  20.199  0.00  0.00    +0.000 OA
ATOM      2  C   UNL     1       1.592   4.612  20.014  0.00  0.00    +0.000 C 
ATOM      3  N   UNL     1       2.316   3.706  19.257  0.00  0.00    +0.000 N 
ATOM      4  C   UNL     1       1.607   2.705  18.483  0.00  0.00    +0.000 C 
ATOM      5  C   UNL     1       2.302   1.410  18.846  0.00  0.00    +0.000 C 
ATOM      6  C   UNL     1       3.761   1.838  18.958  0.00  0.00    +0.000 C 
ATOM      7  C   UNL     1       3.694   3.264  19.534  0.00  0.00    +0.000 C 
ENDROOT
BRANCH   7   8
ATOM      8  C   UNL     1       4.780   4.142  18.947  0.00  0.00    +0.000 A 
ATOM      9  N   UNL     1       5.681   4.772  19.680  0.00  0.00    +0.000 NA
ATOM     10  C   UNL     1       6.509   5.543  18.874  0.00  0.00    +0.000 A 
ATOM     11  C   UNL     1       7.571   6.367  19.304  0.00  0.00    +0.000 A 
ATOM     12  C   UNL     1       8.265   7.153  18.374  0.00  0.00    +0.000 A 
ATOM     13  C   UNL     1       7.922   7.119  17.026  0.00  0.00    +0.000 A 
ATOM     14  C   UNL     1       6.908   6.272  16.570  0.00  0.00    +0.000 A 
ATOM     15  C   UNL     1       6.221   5.488  17.511  0.00  0.00    +0.000 A 
ATOM     16  S   UNL     1       4.970   4.343  17.250  0.00  0.00    +0.000 S 
ENDBRANCH   7   8
BRANCH   2  17
ATOM     17  C   UNL     1       2.319   5.854  20.522  0.00  0.00    +0.000 C 
BRANCH  17  18
ATOM     18  N   UNL     1       2.067   7.120  19.826  0.00  0.00    +0.000 N 
ATOM     19  C   UNL     1       2.430   7.304  18.502  0.00  0.00    +0.000 A 
ATOM     20  O   UNL     1       3.049   6.518  17.791  0.00  0.00    +0.000 OA
ATOM     21  C   UNL     1       2.076   8.589  17.896  0.00  0.00    +0.000 A 
ATOM     22  C   UNL     1       1.474   9.520  18.631  0.00  0.00    +0.000 A 
ATOM     23  N   UNL     1       1.161   9.306  19.954  0.00  0.00    +0.000 N 
ATOM     24  C   UNL     1       1.421   8.094  20.589  0.00  0.00    +0.000 A 
ATOM     25  O   UNL     1       1.096   7.889  21.762  0.00  0.00    +0.000 OA
BRANCH  23  26
ATOM     26  C   UNL     1       0.487  10.372  20.702  0.00  0.00    +0.000 C 
BRANCH  26  27
ATOM     27  C   UNL     1      -0.775  10.852  20.019  0.00  0.00    +0.000 A 
ATOM     28  C   UNL     1      -1.289  10.154  18.917  0.00  0.00    +0.000 A 
ATOM     29  C   UNL     1      -2.416  10.624  18.241  0.00  0.00    +0.000 A 
ATOM     30  C   UNL     1      -3.050  11.788  18.668  0.00  0.00    +0.000 A 
ATOM     31  C   UNL     1      -2.569  12.472  19.783  0.00  0.00    +0.000 A 
ATOM     32  C   UNL     1      -1.437  12.008  20.457  0.00  0.00    +0.000 A 
ENDBRANCH  26  27
ENDBRANCH  23  26
ENDBRANCH  17  18
ENDBRANCH   2  17
TORSDOF 5
ENDMDL
