MODEL 1
REMARK VINA RESULT:      -8.6      0.000      0.000
REMARK  Name = 
REMARK  5 active torsions:
REMARK  status: ('A' for Active; 'I' for Inactive)
REMARK    1  A    between atoms: C_1  and  N_2
REMARK    2  A    between atoms: N_6  and  N_7
REMARK    3  A    between atoms: N_7  and  C_8
REMARK    4  A    between atoms: C_8  and  C_9
REMARK    5  A    between atoms: C_21  and  C_22
REMARK                            x       y       z     vdW  Elec       q    Type
REMARK                         _______ _______ _______ _____ _____    ______ ____
ROOT
ATOM      1  C   UNL     1       4.142   5.181  18.999  0.00  0.00    +0.000 A 
ATOM      2  C   UNL     1       4.830   5.364  17.806  0.00  0.00    +0.000 A 
ATOM      3  C   UNL     1       4.574   6.514  17.083  0.00  0.00    +0.000 A 
ATOM      4  N   UNL     1       3.692   7.465  17.465  0.00  0.00    +0.000 NA
ATOM      5  C   UNL     1       3.032   7.306  18.626  0.00  0.00    +0.000 A 
ATOM      6  N   UNL     1       2.110   8.288  19.034  0.00  0.00    +0.000 N 
ATOM      7  C   UNL     1       1.468   8.273  20.337  0.00  0.00    +0.000 C 
ATOM      8  C   UNL     1       0.638   9.512  20.333  0.00  0.00    +0.000 A 
ATOM      9  C   UNL     1       0.758  10.135  19.092  0.00  0.00    +0.000 A 
ATOM     10  C   UNL     1       0.087  11.300  18.770  0.00  0.00    +0.000 A 
ATOM     11  C   UNL     1      -0.737  11.856  19.747  0.00  0.00    +0.000 A 
ATOM     12  C   UNL     1      -0.857  11.248  21.012  0.00  0.00    +0.000 A 
ATOM     13  C   UNL     1      -0.166  10.061  21.328  0.00  0.00    +0.000 A 
ATOM     14  C   UNL     1       1.698   9.368  18.261  0.00  0.00    +0.000 C 
ATOM     15  O   UNL     1       1.974   9.715  17.128  0.00  0.00    +0.000 OA
ATOM     16  C   UNL     1       3.259   6.187  19.423  0.00  0.00    +0.000 A 
ENDROOT
BRANCH  13  17
ATOM     17  C   UNL     1      -0.300   9.453  22.700  0.00  0.00    +0.000 C 
ATOM     18  F   UNL     1       0.889   9.308  23.350  0.00  0.00    +0.000 F 
ATOM     19  F   UNL     1      -1.081  10.203  23.525  0.00  0.00    +0.000 F 
ATOM     20  F   UNL     1      -0.861   8.215  22.671  0.00  0.00    +0.000 F 
ENDBRANCH  13  17
BRANCH   1  21
ATOM     21  C   UNL     1       4.333   3.942  19.839  0.00  0.00    +0.000 C 
BRANCH  21  22
ATOM     22  N   UNL     1       4.233   2.736  19.017  0.00  0.00    +0.000 NA
ATOM     23  H   UNL     1       4.250   2.984  18.029  0.00  0.00    +0.000 HD
BRANCH  22  29
ATOM     24  C   UNL     1       2.017   2.329  21.527  0.00  0.00    +0.000 C 
ATOM     25  N   UNL     1       2.188   2.767  20.151  0.00  0.00    +0.000 N 
ATOM     26  C   UNL     1       1.109   3.162  19.410  0.00  0.00    +0.000 C 
ATOM     27  N   UNL     1       1.025   2.849  18.157  0.00  0.00    +0.000 NA
ATOM     28  C   UNL     1       2.214   1.968  18.029  0.00  0.00    +0.000 C 
ATOM     29  N   UNL     1       3.017   2.003  19.295  0.00  0.00    +0.000 NA
ENDBRANCH  22  29
ENDBRANCH  21  22
ENDBRANCH   1  21
TORSDOF 4
ENDMDL
MODEL 2
REMARK VINA RESULT:      -8.5      3.005      4.763
REMARK  Name = 
REMARK  5 active torsions:
REMARK  status: ('A' for Active; 'I' for Inactive)
REMARK    1  A    between atoms: C_1  and  N_2
REMARK    2  A    between atoms: N_6  and  N_7
REMARK    3  A    between atoms: N_7  and  C_8
REMARK    4  A    between atoms: C_8  and  C_9
REMARK    5  A    between atoms: C_21  and  C_22
REMARK                            x       y       z     vdW  Elec       q    Type
REMARK                         _______ _______ _______ _____ _____    ______ ____
ROOT
ATOM      1  C   UNL     1       4.436   4.566  16.854  0.00  0.00    +0.000 A 
ATOM      2  C   UNL     1       4.259   3.279  17.349  0.00  0.00    +0.000 A 
ATOM      3  C   UNL     1       3.454   3.120  18.461  0.00  0.00    +0.000 A 
ATOM      4  N   UNL     1       2.835   4.139  19.096  0.00  0.00    +0.000 NA
ATOM      5  C   UNL     1       2.986   5.387  18.618  0.00  0.00    +0.000 A 
ATOM      6  N   UNL     1       2.348   6.458  19.272  0.00  0.00    +0.000 N 
ATOM      7  C   UNL     1       2.333   7.809  18.739  0.00  0.00    +0.000 C 
ATOM      8  C   UNL     1       1.511   8.566  19.728  0.00  0.00    +0.000 A 
ATOM      9  C   UNL     1       1.152   7.711  20.769  0.00  0.00    +0.000 A 
ATOM     10  C   UNL     1       0.403   8.127  21.854  0.00  0.00    +0.000 A 
ATOM     11  C   UNL     1       0.003   9.460  21.884  0.00  0.00    +0.000 A 
ATOM     12  C   UNL     1       0.343  10.333  20.833  0.00  0.00    +0.000 A 
ATOM     13  C   UNL     1       1.105   9.897  19.730  0.00  0.00    +0.000 A 
ATOM     14  C   UNL     1       1.674   6.366  20.484  0.00  0.00    +0.000 C 
ATOM     15  O   UNL     1       1.486   5.438  21.247  0.00  0.00    +0.000 OA
ATOM     16  C   UNL     1       3.759   5.623  17.483  0.00  0.00    +0.000 A 
ENDROOT
BRANCH  13  17
ATOM     17  C   UNL     1       1.429  10.854  18.613  0.00  0.00    +0.000 C 
ATOM     18  F   UNL     1       2.091  10.272  17.572  0.00  0.00    +0.000 F 
ATOM     19  F   UNL     1       0.314  11.416  18.071  0.00  0.00    +0.000 F 
ATOM     20  F   UNL     1       2.214  11.888  19.019  0.00  0.00    +0.000 F 
ENDBRANCH  13  17
BRANCH   1  21
ATOM     21  C   UNL     1       5.322   4.839  15.664  0.00  0.00    +0.000 C 
BRANCH  21  22
ATOM     22  N   UNL     1       5.883   6.189  15.733  0.00  0.00    +0.000 NA
ATOM     23  H   UNL     1       5.879   6.617  14.809  0.00  0.00    +0.000 HD
BRANCH  22  29
ATOM     24  C   UNL     1       7.928   8.099  17.617  0.00  0.00    +0.000 C 
ATOM     25  N   UNL     1       7.285   6.800  17.503  0.00  0.00    +0.000 N 
ATOM     26  C   UNL     1       7.539   5.818  18.420  0.00  0.00    +0.000 C 
ATOM     27  N   UNL     1       7.652   4.584  18.045  0.00  0.00    +0.000 NA
ATOM     28  C   UNL     1       7.581   4.754  16.571  0.00  0.00    +0.000 C 
ATOM     29  N   UNL     1       7.241   6.174  16.234  0.00  0.00    +0.000 NA
ENDBRANCH  22  29
ENDBRANCH  21  22
ENDBRANCH   1  21
TORSDOF 4
ENDMDL
MODEL 3
REMARK VINA RESULT:      -8.4      4.023      7.960
REMARK  Name = 
REMARK  5 active torsions:
REMARK  status: ('A' for Active; 'I' for Inactive)
REMARK    1  A    between atoms: C_1  and  N_2
REMARK    2  A    between atoms: N_6  and  N_7
REMARK    3  A    between atoms: N_7  and  C_8
REMARK    4  A    between atoms: C_8  and  C_9
REMARK    5  A    between atoms: C_21  and  C_22
REMARK                            x       y       z     vdW  Elec       q    Type
REMARK                         _______ _______ _______ _____ _____    ______ ____
ROOT
ATOM      1  C   UNL     1       0.693  10.412  19.985  0.00  0.00    +0.000 A 
ATOM      2  C   UNL     1       0.035  10.184  21.187  0.00  0.00    +0.000 A 
ATOM      3  C   UNL     1       0.150   8.930  21.758  0.00  0.00    +0.000 A 
ATOM      4  N   UNL     1       0.859   7.916  21.216  0.00  0.00    +0.000 NA
ATOM      5  C   UNL     1       1.513   8.130  20.060  0.00  0.00    +0.000 A 
ATOM      6  N   UNL     1       2.254   7.081  19.483  0.00  0.00    +0.000 N 
ATOM      7  C   UNL     1       3.109   7.265  18.324  0.00  0.00    +0.000 C 
ATOM      8  C   UNL     1       3.714   5.918  18.117  0.00  0.00    +0.000 A 
ATOM      9  C   UNL     1       3.181   5.032  19.053  0.00  0.00    +0.000 A 
ATOM     10  C   UNL     1       3.531   3.695  19.102  0.00  0.00    +0.000 A 
ATOM     11  C   UNL     1       4.457   3.240  18.166  0.00  0.00    +0.000 A 
ATOM     12  C   UNL     1       5.016   4.124  17.225  0.00  0.00    +0.000 A 
ATOM     13  C   UNL     1       4.654   5.485  17.185  0.00  0.00    +0.000 A 
ATOM     14  C   UNL     1       2.257   5.765  19.931  0.00  0.00    +0.000 C 
ATOM     15  O   UNL     1       1.666   5.208  20.836  0.00  0.00    +0.000 OA
ATOM     16  C   UNL     1       1.468   9.376  19.440  0.00  0.00    +0.000 A 
ENDROOT
BRANCH  13  17
ATOM     17  C   UNL     1       5.292   6.407  16.179  0.00  0.00    +0.000 C 
ATOM     18  F   UNL     1       4.392   7.148  15.471  0.00  0.00    +0.000 F 
ATOM     19  F   UNL     1       6.133   7.306  16.759  0.00  0.00    +0.000 F 
ATOM     20  F   UNL     1       6.032   5.740  15.253  0.00  0.00    +0.000 F 
ENDBRANCH  13  17
BRANCH   1  21
ATOM     21  C   UNL     1       0.599  11.739  19.273  0.00  0.00    +0.000 C 
BRANCH  21  22
ATOM     22  N   UNL     1      -0.239  11.630  18.078  0.00  0.00    +0.000 NA
ATOM     23  H   UNL     1      -0.481  12.558  17.735  0.00  0.00    +0.000 HD
BRANCH  22  29
ATOM     24  C   UNL     1      -3.287  12.171  19.420  0.00  0.00    +0.000 C 
ATOM     25  N   UNL     1      -2.570  11.770  18.220  0.00  0.00    +0.000 N 
ATOM     26  C   UNL     1      -3.254  11.374  17.104  0.00  0.00    +0.000 C 
ATOM     27  N   UNL     1      -2.816  10.392  16.382  0.00  0.00    +0.000 NA
ATOM     28  C   UNL     1      -1.675   9.943  17.220  0.00  0.00    +0.000 C 
ATOM     29  N   UNL     1      -1.460  10.902  18.351  0.00  0.00    +0.000 NA
ENDBRANCH  22  29
ENDBRANCH  21  22
ENDBRANCH   1  21
TORSDOF 4
ENDMDL
MODEL 4
REMARK VINA RESULT:      -8.3      3.604      7.944
REMARK  Name = 
REMARK  5 active torsions:
REMARK  status: ('A' for Active; 'I' for Inactive)
REMARK    1  A    between atoms: C_1  and  N_2
REMARK    2  A    between atoms: N_6  and  N_7
REMARK    3  A    between atoms: N_7  and  C_8
REMARK    4  A    between atoms: C_8  and  C_9
REMARK    5  A    between atoms: C_21  and  C_22
REMARK                            x       y       z     vdW  Elec       q    Type
REMARK                         _______ _______ _______ _____ _____    ______ ____
ROOT
ATOM      1  C   UNL     1       0.556  10.216  20.480  0.00  0.00    +0.000 A 
ATOM      2  C   UNL     1       0.735  11.109  19.430  0.00  0.00    +0.000 A 
ATOM      3  C   UNL     1       1.442  10.673  18.325  0.00  0.00    +0.000 A 
ATOM      4  N   UNL     1       1.971   9.435  18.208  0.00  0.00    +0.000 NA
ATOM      5  C   UNL     1       1.791   8.557  19.211  0.00  0.00    +0.000 A 
ATOM      6  N   UNL     1       2.338   7.265  19.102  0.00  0.00    +0.000 N 
ATOM      7  C   UNL     1       2.066   6.211  20.063  0.00  0.00    +0.000 C 
ATOM      8  C   UNL     1       2.804   5.037  19.514  0.00  0.00    +0.000 A 
ATOM      9  C   UNL     1       3.491   5.429  18.365  0.00  0.00    +0.000 A 
ATOM     10  C   UNL     1       4.288   4.564  17.638  0.00  0.00    +0.000 A 
ATOM     11  C   UNL     1       4.391   3.251  18.092  0.00  0.00    +0.000 A 
ATOM     12  C   UNL     1       3.690   2.835  19.241  0.00  0.00    +0.000 A 
ATOM     13  C   UNL     1       2.879   3.724  19.973  0.00  0.00    +0.000 A 
ATOM     14  C   UNL     1       3.195   6.843  18.092  0.00  0.00    +0.000 C 
ATOM     15  O   UNL     1       3.677   7.418  17.134  0.00  0.00    +0.000 OA
ATOM     16  C   UNL     1       1.065   8.915  20.344  0.00  0.00    +0.000 A 
ENDROOT
BRANCH  13  17
ATOM     17  C   UNL     1       2.126   3.237  21.183  0.00  0.00    +0.000 C 
ATOM     18  F   UNL     1       0.771   3.273  21.033  0.00  0.00    +0.000 F 
ATOM     19  F   UNL     1       2.427   1.946  21.495  0.00  0.00    +0.000 F 
ATOM     20  F   UNL     1       2.396   3.968  22.297  0.00  0.00    +0.000 F 
ENDBRANCH  13  17
BRANCH   1  21
ATOM     21  C   UNL     1      -0.174  10.614  21.738  0.00  0.00    +0.000 C 
BRANCH  21  22
ATOM     22  N   UNL     1      -0.026  12.046  21.996  0.00  0.00    +0.000 NA
ATOM     23  H   UNL     1       0.951  12.269  22.178  0.00  0.00    +0.000 HD
BRANCH  22  29
ATOM     24  C   UNL     1      -0.991  14.899  23.517  0.00  0.00    +0.000 C 
ATOM     25  N   UNL     1      -1.452  13.700  22.836  0.00  0.00    +0.000 N 
ATOM     26  C   UNL     1      -2.790  13.441  22.717  0.00  0.00    +0.000 C 
ATOM     27  N   UNL     1      -3.236  12.232  22.838  0.00  0.00    +0.000 NA
ATOM     28  C   UNL     1      -1.987  11.532  23.234  0.00  0.00    +0.000 C 
ATOM     29  N   UNL     1      -0.820  12.467  23.130  0.00  0.00    +0.000 NA
ENDBRANCH  22  29
ENDBRANCH  21  22
ENDBRANCH   1  21
TORSDOF 4
ENDMDL
MODEL 5
REMARK VINA RESULT:      -8.2      3.590      7.997
REMARK  Name = 
REMARK  5 active torsions:
REMARK  status: ('A' for Active; 'I' for Inactive)
REMARK    1  A    between atoms: C_1  and  N_2
REMARK    2  A    between atoms: N_6  and  N_7
REMARK    3  A    between atoms: N_7  and  C_8
REMARK    4  A    between atoms: C_8  and  C_9
REMARK    5  A    between atoms: C_21  and  C_22
REMARK                            x       y       z     vdW  Elec       q    Type
REMARK                         _______ _______ _______ _____ _____    ______ ____
ROOT
ATOM      1  C   UNL     1       0.682  10.232  20.258  0.00  0.00    +0.000 A 
ATOM      2  C   UNL     1       0.969  11.121  19.229  0.00  0.00    +0.000 A 
ATOM      3  C   UNL     1       1.728  10.660  18.170  0.00  0.00    +0.000 A 
ATOM      4  N   UNL     1       2.211   9.401  18.080  0.00  0.00    +0.000 NA
ATOM      5  C   UNL     1       1.928   8.527  19.062  0.00  0.00    +0.000 A 
ATOM      6  N   UNL     1       2.427   7.213  18.981  0.00  0.00    +0.000 N 
ATOM      7  C   UNL     1       2.047   6.168  19.914  0.00  0.00    +0.000 C 
ATOM      8  C   UNL     1       2.769   4.966  19.406  0.00  0.00    +0.000 A 
ATOM      9  C   UNL     1       3.547   5.333  18.309  0.00  0.00    +0.000 A 
ATOM     10  C   UNL     1       4.354   4.439  17.630  0.00  0.00    +0.000 A 
ATOM     11  C   UNL     1       4.371   3.120  18.080  0.00  0.00    +0.000 A 
ATOM     12  C   UNL     1       3.579   2.729  19.177  0.00  0.00    +0.000 A 
ATOM     13  C   UNL     1       2.759   3.649  19.860  0.00  0.00    +0.000 A 
ATOM     14  C   UNL     1       3.330   6.760  18.026  0.00  0.00    +0.000 C 
ATOM     15  O   UNL     1       3.899   7.318  17.107  0.00  0.00    +0.000 OA
ATOM     16  C   UNL     1       1.144   8.910  20.147  0.00  0.00    +0.000 A 
ENDROOT
BRANCH  13  17
ATOM     17  C   UNL     1       1.907   3.188  21.014  0.00  0.00    +0.000 C 
ATOM     18  F   UNL     1       1.949   1.841  21.218  0.00  0.00    +0.000 F 
ATOM     19  F   UNL     1       2.285   3.750  22.194  0.00  0.00    +0.000 F 
ATOM     20  F   UNL     1       0.593   3.498  20.851  0.00  0.00    +0.000 F 
ENDBRANCH  13  17
BRANCH   1  21
ATOM     21  C   UNL     1      -0.113  10.654  21.468  0.00  0.00    +0.000 C 
BRANCH  21  22
ATOM     22  N   UNL     1       0.334  11.959  21.955  0.00  0.00    +0.000 NA
ATOM     23  H   UNL     1       0.653  11.882  22.919  0.00  0.00    +0.000 HD
BRANCH  22  29
ATOM     24  C   UNL     1      -2.790  12.419  23.144  0.00  0.00    +0.000 C 
ATOM     25  N   UNL     1      -1.437  12.952  23.118  0.00  0.00    +0.000 N 
ATOM     26  C   UNL     1      -1.147  14.138  23.733  0.00  0.00    +0.000 C 
ATOM     27  N   UNL     1      -0.324  14.976  23.187  0.00  0.00    +0.000 NA
ATOM     28  C   UNL     1      -0.087  14.296  21.888  0.00  0.00    +0.000 C 
ATOM     29  N   UNL     1      -0.727  12.941  21.892  0.00  0.00    +0.000 NA
ENDBRANCH  22  29
ENDBRANCH  21  22
ENDBRANCH   1  21
TORSDOF 4
ENDMDL
MODEL 6
REMARK VINA RESULT:      -8.1      0.757      1.326
REMARK  Name = 
REMARK  5 active torsions:
REMARK  status: ('A' for Active; 'I' for Inactive)
REMARK    1  A    between atoms: C_1  and  N_2
REMARK    2  A    between atoms: N_6  and  N_7
REMARK    3  A    between atoms: N_7  and  C_8
REMARK    4  A    between atoms: C_8  and  C_9
REMARK    5  A    between atoms: C_21  and  C_22
REMARK                            x       y       z     vdW  Elec       q    Type
REMARK                         _______ _______ _______ _____ _____    ______ ____
ROOT
ATOM      1  C   UNL     1       4.179   5.217  19.029  0.00  0.00    +0.000 A 
ATOM      2  C   UNL     1       4.853   5.400  17.827  0.00  0.00    +0.000 A 
ATOM      3  C   UNL     1       4.578   6.543  17.100  0.00  0.00    +0.000 A 
ATOM      4  N   UNL     1       3.692   7.487  17.485  0.00  0.00    +0.000 NA
ATOM      5  C   UNL     1       3.045   7.330  18.654  0.00  0.00    +0.000 A 
ATOM      6  N   UNL     1       2.118   8.305  19.066  0.00  0.00    +0.000 N 
ATOM      7  C   UNL     1       1.491   8.292  20.375  0.00  0.00    +0.000 C 
ATOM      8  C   UNL     1       0.649   9.523  20.372  0.00  0.00    +0.000 A 
ATOM      9  C   UNL     1       0.750  10.140  19.126  0.00  0.00    +0.000 A 
ATOM     10  C   UNL     1       0.064  11.297  18.805  0.00  0.00    +0.000 A 
ATOM     11  C   UNL     1      -0.755  11.850  19.786  0.00  0.00    +0.000 A 
ATOM     12  C   UNL     1      -0.856  11.249  21.056  0.00  0.00    +0.000 A 
ATOM     13  C   UNL     1      -0.150  10.072  21.372  0.00  0.00    +0.000 A 
ATOM     14  C   UNL     1       1.688   9.376  18.290  0.00  0.00    +0.000 C 
ATOM     15  O   UNL     1       1.948   9.719  17.152  0.00  0.00    +0.000 OA
ATOM     16  C   UNL     1       3.291   6.218  19.456  0.00  0.00    +0.000 A 
ENDROOT
BRANCH  13  17
ATOM     17  C   UNL     1      -0.264   9.471  22.749  0.00  0.00    +0.000 C 
ATOM     18  F   UNL     1      -0.799   8.217  22.754  0.00  0.00    +0.000 F 
ATOM     19  F   UNL     1       0.943   9.358  23.367  0.00  0.00    +0.000 F 
ATOM     20  F   UNL     1      -1.046  10.211  23.580  0.00  0.00    +0.000 F 
ENDBRANCH  13  17
BRANCH   1  21
ATOM     21  C   UNL     1       4.391   3.986  19.874  0.00  0.00    +0.000 C 
BRANCH  21  22
ATOM     22  N   UNL     1       3.130   3.538  20.466  0.00  0.00    +0.000 NA
ATOM     23  H   UNL     1       3.250   3.382  21.466  0.00  0.00    +0.000 HD
BRANCH  22  29
ATOM     24  C   UNL     1       0.408   2.367  18.854  0.00  0.00    +0.000 C 
ATOM     25  N   UNL     1       1.836   2.619  18.747  0.00  0.00    +0.000 N 
ATOM     26  C   UNL     1       2.524   2.249  17.625  0.00  0.00    +0.000 C 
ATOM     27  N   UNL     1       3.719   1.760  17.720  0.00  0.00    +0.000 NA
ATOM     28  C   UNL     1       3.841   1.660  19.197  0.00  0.00    +0.000 C 
ATOM     29  N   UNL     1       2.663   2.312  19.855  0.00  0.00    +0.000 NA
ENDBRANCH  22  29
ENDBRANCH  21  22
ENDBRANCH   1  21
TORSDOF 4
ENDMDL
MODEL 7
REMARK VINA RESULT:      -8.1      3.548      7.887
REMARK  Name = 
REMARK  5 active torsions:
REMARK  status: ('A' for Active; 'I' for Inactive)
REMARK    1  A    between atoms: C_1  and  N_2
REMARK    2  A    between atoms: N_6  and  N_7
REMARK    3  A    between atoms: N_7  and  C_8
REMARK    4  A    between atoms: C_8  and  C_9
REMARK    5  A    between atoms: C_21  and  C_22
REMARK                            x       y       z     vdW  Elec       q    Type
REMARK                         _______ _______ _______ _____ _____    ______ ____
ROOT
ATOM      1  C   UNL     1       0.676  10.204  20.119  0.00  0.00    +0.000 A 
ATOM      2  C   UNL     1       0.956  11.053  19.055  0.00  0.00    +0.000 A 
ATOM      3  C   UNL     1       1.728  10.558  18.020  0.00  0.00    +0.000 A 
ATOM      4  N   UNL     1       2.228   9.303  17.986  0.00  0.00    +0.000 NA
ATOM      5  C   UNL     1       1.951   8.468  19.003  0.00  0.00    +0.000 A 
ATOM      6  N   UNL     1       2.468   7.159  18.979  0.00  0.00    +0.000 N 
ATOM      7  C   UNL     1       2.097   6.148  19.954  0.00  0.00    +0.000 C 
ATOM      8  C   UNL     1       2.838   4.936  19.501  0.00  0.00    +0.000 A 
ATOM      9  C   UNL     1       3.617   5.267  18.393  0.00  0.00    +0.000 A 
ATOM     10  C   UNL     1       4.440   4.356  17.757  0.00  0.00    +0.000 A 
ATOM     11  C   UNL     1       4.472   3.058  18.262  0.00  0.00    +0.000 A 
ATOM     12  C   UNL     1       3.679   2.703  19.371  0.00  0.00    +0.000 A 
ATOM     13  C   UNL     1       2.843   3.639  20.010  0.00  0.00    +0.000 A 
ATOM     14  C   UNL     1       3.383   6.677  18.050  0.00  0.00    +0.000 C 
ATOM     15  O   UNL     1       3.948   7.204  17.110  0.00  0.00    +0.000 OA
ATOM     16  C   UNL     1       1.156   8.885  20.067  0.00  0.00    +0.000 A 
ENDROOT
BRANCH  13  17
ATOM     17  C   UNL     1       1.991   3.216  21.178  0.00  0.00    +0.000 C 
ATOM     18  F   UNL     1       2.252   3.910  22.323  0.00  0.00    +0.000 F 
ATOM     19  F   UNL     1       0.663   3.387  20.940  0.00  0.00    +0.000 F 
ATOM     20  F   UNL     1       2.153   1.904  21.496  0.00  0.00    +0.000 F 
ENDBRANCH  13  17
BRANCH   1  21
ATOM     21  C   UNL     1      -0.131  10.666  21.307  0.00  0.00    +0.000 C 
BRANCH  21  22
ATOM     22  N   UNL     1      -1.214  11.555  20.885  0.00  0.00    +0.000 NA
ATOM     23  H   UNL     1      -0.961  12.029  20.020  0.00  0.00    +0.000 HD
BRANCH  22  29
ATOM     24  C   UNL     1      -2.822  14.508  21.164  0.00  0.00    +0.000 C 
ATOM     25  N   UNL     1      -2.771  13.133  21.634  0.00  0.00    +0.000 N 
ATOM     26  C   UNL     1      -3.614  12.706  22.623  0.00  0.00    +0.000 C 
ATOM     27  N   UNL     1      -3.194  11.889  23.535  0.00  0.00    +0.000 NA
ATOM     28  C   UNL     1      -1.752  11.828  23.183  0.00  0.00    +0.000 C 
ATOM     29  N   UNL     1      -1.507  12.551  21.894  0.00  0.00    +0.000 NA
ENDBRANCH  22  29
ENDBRANCH  21  22
ENDBRANCH   1  21
TORSDOF 4
ENDMDL
MODEL 8
REMARK VINA RESULT:      -8.0      4.055      8.259
REMARK  Name = 
REMARK  5 active torsions:
REMARK  status: ('A' for Active; 'I' for Inactive)
REMARK    1  A    between atoms: C_1  and  N_2
REMARK    2  A    between atoms: N_6  and  N_7
REMARK    3  A    between atoms: N_7  and  C_8
REMARK    4  A    between atoms: C_8  and  C_9
REMARK    5  A    between atoms: C_21  and  C_22
REMARK                            x       y       z     vdW  Elec       q    Type
REMARK                         _______ _______ _______ _____ _____    ______ ____
ROOT
ATOM      1  C   UNL     1       0.864  10.439  20.050  0.00  0.00    +0.000 A 
ATOM      2  C   UNL     1       0.197  10.198  21.246  0.00  0.00    +0.000 A 
ATOM      3  C   UNL     1       0.253   8.920  21.769  0.00  0.00    +0.000 A 
ATOM      4  N   UNL     1       0.911   7.893  21.187  0.00  0.00    +0.000 NA
ATOM      5  C   UNL     1       1.573   8.118  20.038  0.00  0.00    +0.000 A 
ATOM      6  N   UNL     1       2.260   7.057  19.419  0.00  0.00    +0.000 N 
ATOM      7  C   UNL     1       3.121   7.243  18.265  0.00  0.00    +0.000 C 
ATOM      8  C   UNL     1       3.660   5.876  18.006  0.00  0.00    +0.000 A 
ATOM      9  C   UNL     1       3.087   4.983  18.910  0.00  0.00    +0.000 A 
ATOM     10  C   UNL     1       3.371   3.630  18.908  0.00  0.00    +0.000 A 
ATOM     11  C   UNL     1       4.272   3.165  17.953  0.00  0.00    +0.000 A 
ATOM     12  C   UNL     1       4.872   4.057  17.043  0.00  0.00    +0.000 A 
ATOM     13  C   UNL     1       4.577   5.434  17.055  0.00  0.00    +0.000 A 
ATOM     14  C   UNL     1       2.201   5.727  19.818  0.00  0.00    +0.000 C 
ATOM     15  O   UNL     1       1.585   5.165  20.704  0.00  0.00    +0.000 OA
ATOM     16  C   UNL     1       1.586   9.387  19.464  0.00  0.00    +0.000 A 
ENDROOT
BRANCH  13  17
ATOM     17  C   UNL     1       5.256   6.360  16.081  0.00  0.00    +0.000 C 
ATOM     18  F   UNL     1       5.942   5.710  15.098  0.00  0.00    +0.000 F 
ATOM     19  F   UNL     1       4.375   7.174  15.438  0.00  0.00    +0.000 F 
ATOM     20  F   UNL     1       6.159   7.181  16.682  0.00  0.00    +0.000 F 
ENDBRANCH  13  17
BRANCH   1  21
ATOM     21  C   UNL     1       0.833  11.794  19.388  0.00  0.00    +0.000 C 
BRANCH  21  22
ATOM     22  N   UNL     1       0.121  11.732  18.111  0.00  0.00    +0.000 NA
ATOM     23  H   UNL     1       0.732  12.039  17.355  0.00  0.00    +0.000 HD
BRANCH  22  29
ATOM     24  C   UNL     1      -3.174  11.493  17.430  0.00  0.00    +0.000 C 
ATOM     25  N   UNL     1      -2.191  11.782  18.462  0.00  0.00    +0.000 N 
ATOM     26  C   UNL     1      -2.591  12.181  19.707  0.00  0.00    +0.000 C 
ATOM     27  N   UNL     1      -1.929  13.092  20.347  0.00  0.00    +0.000 NA
ATOM     28  C   UNL     1      -0.953  13.487  19.299  0.00  0.00    +0.000 C 
ATOM     29  N   UNL     1      -1.062  12.566  18.122  0.00  0.00    +0.000 NA
ENDBRANCH  22  29
ENDBRANCH  21  22
ENDBRANCH   1  21
TORSDOF 4
ENDMDL
MODEL 9
REMARK VINA RESULT:      -7.9      4.094      8.189
REMARK  Name = 
REMARK  5 active torsions:
REMARK  status: ('A' for Active; 'I' for Inactive)
REMARK    1  A    between atoms: C_1  and  N_2
REMARK    2  A    between atoms: N_6  and  N_7
REMARK    3  A    between atoms: N_7  and  C_8
REMARK    4  A    between atoms: C_8  and  C_9
REMARK    5  A    between atoms: C_21  and  C_22
REMARK                            x       y       z     vdW  Elec       q    Type
REMARK                         _______ _______ _______ _____ _____    ______ ____
ROOT
ATOM      1  C   UNL     1       0.449  10.244  19.954  0.00  0.00    +0.000 A 
ATOM      2  C   UNL     1      -0.133  10.036  21.199  0.00  0.00    +0.000 A 
ATOM      3  C   UNL     1       0.120   8.837  21.838  0.00  0.00    +0.000 A 
ATOM      4  N   UNL     1       0.892   7.856  21.322  0.00  0.00    +0.000 NA
ATOM      5  C   UNL     1       1.473   8.051  20.125  0.00  0.00    +0.000 A 
ATOM      6  N   UNL     1       2.279   7.036  19.576  0.00  0.00    +0.000 N 
ATOM      7  C   UNL     1       3.062   7.219  18.367  0.00  0.00    +0.000 C 
ATOM      8  C   UNL     1       3.776   5.919  18.211  0.00  0.00    +0.000 A 
ATOM      9  C   UNL     1       3.367   5.053  19.224  0.00  0.00    +0.000 A 
ATOM     10  C   UNL     1       3.837   3.757  19.336  0.00  0.00    +0.000 A 
ATOM     11  C   UNL     1       4.758   3.324  18.384  0.00  0.00    +0.000 A 
ATOM     12  C   UNL     1       5.194   4.193  17.365  0.00  0.00    +0.000 A 
ATOM     13  C   UNL     1       4.710   5.512  17.262  0.00  0.00    +0.000 A 
ATOM     14  C   UNL     1       2.420   5.756  20.101  0.00  0.00    +0.000 C 
ATOM     15  O   UNL     1       1.922   5.209  21.066  0.00  0.00    +0.000 OA
ATOM     16  C   UNL     1       1.289   9.246  19.434  0.00  0.00    +0.000 A 
ENDROOT
BRANCH  13  17
ATOM     17  C   UNL     1       5.218   6.419  16.172  0.00  0.00    +0.000 C 
ATOM     18  F   UNL     1       4.275   7.283  15.699  0.00  0.00    +0.000 F 
ATOM     19  F   UNL     1       6.254   7.197  16.586  0.00  0.00    +0.000 F 
ATOM     20  F   UNL     1       5.669   5.733  15.088  0.00  0.00    +0.000 F 
ENDBRANCH  13  17
BRANCH   1  21
ATOM     21  C   UNL     1       0.205  11.509  19.169  0.00  0.00    +0.000 C 
BRANCH  21  22
ATOM     22  N   UNL     1      -0.384  11.206  17.864  0.00  0.00    +0.000 NA
ATOM     23  H   UNL     1       0.303  11.354  17.128  0.00  0.00    +0.000 HD
BRANCH  22  29
ATOM     24  C   UNL     1      -3.090  11.241  15.850  0.00  0.00    +0.000 C 
ATOM     25  N   UNL     1      -2.636  11.219  17.232  0.00  0.00    +0.000 N 
ATOM     26  C   UNL     1      -3.537  11.280  18.258  0.00  0.00    +0.000 C 
ATOM     27  N   UNL     1      -3.273  11.970  19.322  0.00  0.00    +0.000 NA
ATOM     28  C   UNL     1      -1.996  12.606  18.907  0.00  0.00    +0.000 C 
ATOM     29  N   UNL     1      -1.540  12.036  17.598  0.00  0.00    +0.000 NA
ENDBRANCH  22  29
ENDBRANCH  21  22
ENDBRANCH   1  21
TORSDOF 4
ENDMDL
