MODEL 1
REMARK VINA RESULT:      -9.3      0.000      0.000
REMARK  Name = 
REMARK  4 active torsions:
REMARK  status: ('A' for Active; 'I' for Inactive)
REMARK    1  A    between atoms: C_1  and  C_2
REMARK    2  A    between atoms: N_6  and  C_7
REMARK    3  A    between atoms: C_11  and  N_12
REMARK    4  A    between atoms: C_13  and  C_15
REMARK                            x       y       z     vdW  Elec       q    Type
REMARK                         _______ _______ _______ _____ _____    ______ ____
ROOT
ATOM      1  N   UNL     1       2.238   7.300  18.988  0.00  0.00    +0.000 N 
ATOM      2  C   UNL     1       1.700   7.391  20.261  0.00  0.00    +0.000 C 
ATOM      3  O   UNL     1       1.602   6.518  21.091  0.00  0.00    +0.000 OA
ATOM      4  H   UNL     1       2.254   8.138  18.420  0.00  0.00    +0.000 HD
ENDROOT
BRANCH   2   5
ATOM      5  C   UNL     1       1.088   8.714  20.594  0.00  0.00    +0.000 A 
ATOM      6  C   UNL     1       1.071   9.670  19.571  0.00  0.00    +0.000 A 
ATOM      7  C   UNL     1       0.640  10.961  19.849  0.00  0.00    +0.000 A 
ATOM      8  C   UNL     1       0.086  11.262  21.093  0.00  0.00    +0.000 A 
ATOM      9  C   UNL     1      -0.320  12.570  21.374  0.00  0.00    +0.000 A 
ATOM     10  C   UNL     1      -1.296  12.803  22.322  0.00  0.00    +0.000 A 
ATOM     11  C   UNL     1      -1.664  11.769  23.179  0.00  0.00    +0.000 A 
ATOM     12  C   UNL     1      -1.002  10.530  23.110  0.00  0.00    +0.000 A 
ATOM     13  C   UNL     1      -0.140  10.233  22.025  0.00  0.00    +0.000 A 
ATOM     14  C   UNL     1       0.481   8.979  21.826  0.00  0.00    +0.000 A 
ENDBRANCH   2   5
BRANCH   1  19
ATOM     15  C   UNL     1       4.591   4.817  17.504  0.00  0.00    +0.000 A 
ATOM     16  C   UNL     1       3.725   3.772  17.176  0.00  0.00    +0.000 A 
ATOM     17  C   UNL     1       2.361   3.899  17.426  0.00  0.00    +0.000 A 
ATOM     18  C   UNL     1       1.856   5.057  18.018  0.00  0.00    +0.000 A 
ATOM     19  C   UNL     1       2.701   6.110  18.375  0.00  0.00    +0.000 A 
ATOM     20  C   UNL     1       4.072   5.989  18.101  0.00  0.00    +0.000 A 
BRANCH  15  26
ATOM     21  C   UNL     1       6.356   4.753  14.777  0.00  0.00    +0.000 C 
ATOM     22  C   UNL     1       6.770   4.517  16.178  0.00  0.00    +0.000 A 
ATOM     23  N   UNL     1       8.005   4.251  16.557  0.00  0.00    +0.000 NA
ATOM     24  N   UNL     1       8.023   4.342  17.918  0.00  0.00    +0.000 NA
ATOM     25  N   UNL     1       6.829   4.668  18.387  0.00  0.00    +0.000 NA
ATOM     26  N   UNL     1       5.993   4.686  17.320  0.00  0.00    +0.000 N 
ENDBRANCH  15  26
ENDBRANCH   1  19
TORSDOF 3
ENDMDL
MODEL 2
REMARK VINA RESULT:      -9.3      1.067      1.181
REMARK  Name = 
REMARK  4 active torsions:
REMARK  status: ('A' for Active; 'I' for Inactive)
REMARK    1  A    between atoms: C_1  and  C_2
REMARK    2  A    between atoms: N_6  and  C_7
REMARK    3  A    between atoms: C_11  and  N_12
REMARK    4  A    between atoms: C_13  and  C_15
REMARK                            x       y       z     vdW  Elec       q    Type
REMARK                         _______ _______ _______ _____ _____    ______ ____
ROOT
ATOM      1  N   UNL     1       1.794   6.693  18.744  0.00  0.00    +0.000 N 
ATOM      2  C   UNL     1       2.109   8.012  18.464  0.00  0.00    +0.000 C 
ATOM      3  O   UNL     1       2.918   8.429  17.668  0.00  0.00    +0.000 OA
ATOM      4  H   UNL     1       1.077   6.515  19.436  0.00  0.00    +0.000 HD
ENDROOT
BRANCH   2   5
ATOM      5  C   UNL     1       1.421   9.022  19.324  0.00  0.00    +0.000 A 
ATOM      6  C   UNL     1       1.051  10.222  18.706  0.00  0.00    +0.000 A 
ATOM      7  C   UNL     1       0.529  11.255  19.475  0.00  0.00    +0.000 A 
ATOM      8  C   UNL     1       0.234  11.046  20.822  0.00  0.00    +0.000 A 
ATOM      9  C   UNL     1      -0.264  12.098  21.595  0.00  0.00    +0.000 A 
ATOM     10  C   UNL     1      -1.024  11.834  22.716  0.00  0.00    +0.000 A 
ATOM     11  C   UNL     1      -1.053  10.535  23.220  0.00  0.00    +0.000 A 
ATOM     12  C   UNL     1      -0.268   9.532  22.623  0.00  0.00    +0.000 A 
ATOM     13  C   UNL     1       0.359   9.757  21.372  0.00  0.00    +0.000 A 
ATOM     14  C   UNL     1       1.077   8.772  20.657  0.00  0.00    +0.000 A 
ENDBRANCH   2   5
BRANCH   1  19
ATOM     15  C   UNL     1       4.546   4.489  17.529  0.00  0.00    +0.000 A 
ATOM     16  C   UNL     1       3.842   3.343  17.157  0.00  0.00    +0.000 A 
ATOM     17  C   UNL     1       2.456   3.308  17.287  0.00  0.00    +0.000 A 
ATOM     18  C   UNL     1       1.767   4.406  17.803  0.00  0.00    +0.000 A 
ATOM     19  C   UNL     1       2.447   5.558  18.203  0.00  0.00    +0.000 A 
ATOM     20  C   UNL     1       3.841   5.599  18.049  0.00  0.00    +0.000 A 
BRANCH  15  26
ATOM     21  C   UNL     1       6.538   4.554  14.964  0.00  0.00    +0.000 C 
ATOM     22  C   UNL     1       6.852   4.415  16.402  0.00  0.00    +0.000 A 
ATOM     23  N   UNL     1       8.073   4.316  16.894  0.00  0.00    +0.000 NA
ATOM     24  N   UNL     1       7.960   4.452  18.246  0.00  0.00    +0.000 NA
ATOM     25  N   UNL     1       6.700   4.645  18.600  0.00  0.00    +0.000 NA
ATOM     26  N   UNL     1       5.964   4.525  17.467  0.00  0.00    +0.000 N 
ENDBRANCH  15  26
ENDBRANCH   1  19
TORSDOF 3
ENDMDL
MODEL 3
REMARK VINA RESULT:      -9.2      1.418      1.425
REMARK  Name = 
REMARK  4 active torsions:
REMARK  status: ('A' for Active; 'I' for Inactive)
REMARK    1  A    between atoms: C_1  and  C_2
REMARK    2  A    between atoms: N_6  and  C_7
REMARK    3  A    between atoms: C_11  and  N_12
REMARK    4  A    between atoms: C_13  and  C_15
REMARK                            x       y       z     vdW  Elec       q    Type
REMARK                         _______ _______ _______ _____ _____    ______ ____
ROOT
ATOM      1  N   UNL     1       2.166   6.436  20.152  0.00  0.00    +0.000 N 
ATOM      2  C   UNL     1       2.128   7.562  19.347  0.00  0.00    +0.000 C 
ATOM      3  O   UNL     1       2.665   7.727  18.276  0.00  0.00    +0.000 OA
ATOM      4  H   UNL     1       1.646   6.459  21.021  0.00  0.00    +0.000 HD
ENDROOT
BRANCH   2   5
ATOM      5  C   UNL     1       1.411   8.734  19.933  0.00  0.00    +0.000 A 
ATOM      6  C   UNL     1       1.125   9.792  19.062  0.00  0.00    +0.000 A 
ATOM      7  C   UNL     1       0.580  10.967  19.567  0.00  0.00    +0.000 A 
ATOM      8  C   UNL     1       0.180  11.036  20.902  0.00  0.00    +0.000 A 
ATOM      9  C   UNL     1      -0.341  12.229  21.409  0.00  0.00    +0.000 A 
ATOM     10  C   UNL     1      -1.190  12.207  22.497  0.00  0.00    +0.000 A 
ATOM     11  C   UNL     1      -1.296  11.036  23.245  0.00  0.00    +0.000 A 
ATOM     12  C   UNL     1      -0.500   9.922  22.923  0.00  0.00    +0.000 A 
ATOM     13  C   UNL     1       0.224   9.882  21.705  0.00  0.00    +0.000 A 
ATOM     14  C   UNL     1       0.961   8.762  21.258  0.00  0.00    +0.000 A 
ENDBRANCH   2   5
BRANCH   1  19
ATOM     15  C   UNL     1       4.884   4.259  18.820  0.00  0.00    +0.000 A 
ATOM     16  C   UNL     1       4.549   3.023  19.375  0.00  0.00    +0.000 A 
ATOM     17  C   UNL     1       3.413   2.906  20.170  0.00  0.00    +0.000 A 
ATOM     18  C   UNL     1       2.615   4.020  20.431  0.00  0.00    +0.000 A 
ATOM     19  C   UNL     1       2.936   5.274  19.906  0.00  0.00    +0.000 A 
ATOM     20  C   UNL     1       4.069   5.384  19.086  0.00  0.00    +0.000 A 
BRANCH  15  26
ATOM     21  C   UNL     1       5.298   4.634  15.619  0.00  0.00    +0.000 C 
ATOM     22  C   UNL     1       6.303   4.444  16.687  0.00  0.00    +0.000 A 
ATOM     23  N   UNL     1       7.608   4.421  16.490  0.00  0.00    +0.000 NA
ATOM     24  N   UNL     1       8.189   4.472  17.723  0.00  0.00    +0.000 NA
ATOM     25  N   UNL     1       7.274   4.537  18.676  0.00  0.00    +0.000 NA
ATOM     26  N   UNL     1       6.072   4.419  18.059  0.00  0.00    +0.000 N 
ENDBRANCH  15  26
ENDBRANCH   1  19
TORSDOF 3
ENDMDL
MODEL 4
REMARK VINA RESULT:      -9.1      1.010      1.397
REMARK  Name = 
REMARK  4 active torsions:
REMARK  status: ('A' for Active; 'I' for Inactive)
REMARK    1  A    between atoms: C_1  and  C_2
REMARK    2  A    between atoms: N_6  and  C_7
REMARK    3  A    between atoms: C_11  and  N_12
REMARK    4  A    between atoms: C_13  and  C_15
REMARK                            x       y       z     vdW  Elec       q    Type
REMARK                         _______ _______ _______ _____ _____    ______ ____
ROOT
ATOM      1  N   UNL     1       2.323   7.083  18.866  0.00  0.00    +0.000 N 
ATOM      2  C   UNL     1       1.847   7.168  20.164  0.00  0.00    +0.000 C 
ATOM      3  O   UNL     1       1.799   6.293  20.996  0.00  0.00    +0.000 OA
ATOM      4  H   UNL     1       2.302   7.921  18.298  0.00  0.00    +0.000 HD
ENDROOT
BRANCH   2   5
ATOM      5  C   UNL     1       1.239   8.484  20.527  0.00  0.00    +0.000 A 
ATOM      6  C   UNL     1       1.212   9.460  19.523  0.00  0.00    +0.000 A 
ATOM      7  C   UNL     1       0.783  10.746  19.829  0.00  0.00    +0.000 A 
ATOM      8  C   UNL     1       0.242  11.023  21.085  0.00  0.00    +0.000 A 
ATOM      9  C   UNL     1      -0.160  12.325  21.394  0.00  0.00    +0.000 A 
ATOM     10  C   UNL     1      -1.126  12.541  22.356  0.00  0.00    +0.000 A 
ATOM     11  C   UNL     1      -1.486  11.490  23.198  0.00  0.00    +0.000 A 
ATOM     12  C   UNL     1      -0.825  10.253  23.099  0.00  0.00    +0.000 A 
ATOM     13  C   UNL     1       0.026   9.976  21.999  0.00  0.00    +0.000 A 
ATOM     14  C   UNL     1       0.644   8.726  21.771  0.00  0.00    +0.000 A 
ENDBRANCH   2   5
BRANCH   1  19
ATOM     15  C   UNL     1       4.405   4.810  16.768  0.00  0.00    +0.000 A 
ATOM     16  C   UNL     1       3.745   3.592  16.936  0.00  0.00    +0.000 A 
ATOM     17  C   UNL     1       2.599   3.528  17.724  0.00  0.00    +0.000 A 
ATOM     18  C   UNL     1       2.115   4.671  18.362  0.00  0.00    +0.000 A 
ATOM     19  C   UNL     1       2.767   5.899  18.229  0.00  0.00    +0.000 A 
ATOM     20  C   UNL     1       3.909   5.964  17.416  0.00  0.00    +0.000 A 
BRANCH  15  26
ATOM     21  C   UNL     1       7.497   4.740  17.763  0.00  0.00    +0.000 C 
ATOM     22  C   UNL     1       6.942   5.000  16.417  0.00  0.00    +0.000 A 
ATOM     23  N   UNL     1       7.670   5.233  15.341  0.00  0.00    +0.000 NA
ATOM     24  N   UNL     1       6.819   5.178  14.276  0.00  0.00    +0.000 NA
ATOM     25  N   UNL     1       5.585   4.905  14.668  0.00  0.00    +0.000 NA
ATOM     26  N   UNL     1       5.612   4.888  16.024  0.00  0.00    +0.000 N 
ENDBRANCH  15  26
ENDBRANCH   1  19
TORSDOF 3
ENDMDL
MODEL 5
REMARK VINA RESULT:      -9.0      1.458      2.027
REMARK  Name = 
REMARK  4 active torsions:
REMARK  status: ('A' for Active; 'I' for Inactive)
REMARK    1  A    between atoms: C_1  and  C_2
REMARK    2  A    between atoms: N_6  and  C_7
REMARK    3  A    between atoms: C_11  and  N_12
REMARK    4  A    between atoms: C_13  and  C_15
REMARK                            x       y       z     vdW  Elec       q    Type
REMARK                         _______ _______ _______ _____ _____    ______ ____
ROOT
ATOM      1  N   UNL     1       1.743   6.488  20.653  0.00  0.00    +0.000 N 
ATOM      2  C   UNL     1       1.707   7.714  20.009  0.00  0.00    +0.000 C 
ATOM      3  O   UNL     1       2.223   8.016  18.958  0.00  0.00    +0.000 OA
ATOM      4  H   UNL     1       1.243   6.400  21.529  0.00  0.00    +0.000 HD
ENDROOT
BRANCH   2   5
ATOM      5  C   UNL     1       1.021   8.805  20.766  0.00  0.00    +0.000 A 
ATOM      6  C   UNL     1       0.666   8.519  22.090  0.00  0.00    +0.000 A 
ATOM      7  C   UNL     1      -0.092   9.437  22.808  0.00  0.00    +0.000 A 
ATOM      8  C   UNL     1      -0.365  10.694  22.269  0.00  0.00    +0.000 A 
ATOM      9  C   UNL     1      -1.151  11.600  22.986  0.00  0.00    +0.000 A 
ATOM     10  C   UNL     1      -1.022  12.956  22.762  0.00  0.00    +0.000 A 
ATOM     11  C   UNL     1      -0.322  13.390  21.638  0.00  0.00    +0.000 A 
ATOM     12  C   UNL     1       0.190  12.452  20.723  0.00  0.00    +0.000 A 
ATOM     13  C   UNL     1       0.221  11.073  21.047  0.00  0.00    +0.000 A 
ATOM     14  C   UNL     1       0.810  10.080  20.231  0.00  0.00    +0.000 A 
ENDBRANCH   2   5
BRANCH   1  19
ATOM     15  C   UNL     1       4.577   4.473  19.307  0.00  0.00    +0.000 A 
ATOM     16  C   UNL     1       4.065   3.178  19.395  0.00  0.00    +0.000 A 
ATOM     17  C   UNL     1       2.775   2.974  19.877  0.00  0.00    +0.000 A 
ATOM     18  C   UNL     1       1.997   4.055  20.291  0.00  0.00    +0.000 A 
ATOM     19  C   UNL     1       2.490   5.360  20.234  0.00  0.00    +0.000 A 
ATOM     20  C   UNL     1       3.782   5.564  19.726  0.00  0.00    +0.000 A 
BRANCH  15  26
ATOM     21  C   UNL     1       5.904   4.265  16.349  0.00  0.00    +0.000 C 
ATOM     22  C   UNL     1       6.548   4.492  17.661  0.00  0.00    +0.000 A 
ATOM     23  N   UNL     1       7.842   4.681  17.834  0.00  0.00    +0.000 NA
ATOM     24  N   UNL     1       8.006   5.093  19.125  0.00  0.00    +0.000 NA
ATOM     25  N   UNL     1       6.842   5.172  19.749  0.00  0.00    +0.000 NA
ATOM     26  N   UNL     1       5.912   4.701  18.881  0.00  0.00    +0.000 N 
ENDBRANCH  15  26
ENDBRANCH   1  19
TORSDOF 3
ENDMDL
MODEL 6
REMARK VINA RESULT:      -8.9      1.417      1.549
REMARK  Name = 
REMARK  4 active torsions:
REMARK  status: ('A' for Active; 'I' for Inactive)
REMARK    1  A    between atoms: C_1  and  C_2
REMARK    2  A    between atoms: N_6  and  C_7
REMARK    3  A    between atoms: C_11  and  N_12
REMARK    4  A    between atoms: C_13  and  C_15
REMARK                            x       y       z     vdW  Elec       q    Type
REMARK                         _______ _______ _______ _____ _____    ______ ____
ROOT
ATOM      1  N   UNL     1       1.883   6.950  18.701  0.00  0.00    +0.000 N 
ATOM      2  C   UNL     1       1.926   8.271  18.287  0.00  0.00    +0.000 C 
ATOM      3  O   UNL     1       2.483   8.728  17.317  0.00  0.00    +0.000 OA
ATOM      4  H   UNL     1       1.356   6.734  19.538  0.00  0.00    +0.000 HD
ENDROOT
BRANCH   2   5
ATOM      5  C   UNL     1       1.277   9.245  19.217  0.00  0.00    +0.000 A 
ATOM      6  C   UNL     1       0.916  10.484  18.673  0.00  0.00    +0.000 A 
ATOM      7  C   UNL     1       0.431  11.483  19.509  0.00  0.00    +0.000 A 
ATOM      8  C   UNL     1       0.164  11.206  20.850  0.00  0.00    +0.000 A 
ATOM      9  C   UNL     1      -0.297  12.223  21.690  0.00  0.00    +0.000 A 
ATOM     10  C   UNL     1      -1.036  11.912  22.813  0.00  0.00    +0.000 A 
ATOM     11  C   UNL     1      -1.078  10.588  23.247  0.00  0.00    +0.000 A 
ATOM     12  C   UNL     1      -0.327   9.606  22.579  0.00  0.00    +0.000 A 
ATOM     13  C   UNL     1       0.276   9.887  21.327  0.00  0.00    +0.000 A 
ATOM     14  C   UNL     1       0.958   8.929  20.543  0.00  0.00    +0.000 A 
ENDBRANCH   2   5
BRANCH   1  19
ATOM     15  C   UNL     1       4.522   5.119  16.807  0.00  0.00    +0.000 A 
ATOM     16  C   UNL     1       4.058   3.805  16.881  0.00  0.00    +0.000 A 
ATOM     17  C   UNL     1       2.861   3.528  17.537  0.00  0.00    +0.000 A 
ATOM     18  C   UNL     1       2.131   4.555  18.137  0.00  0.00    +0.000 A 
ATOM     19  C   UNL     1       2.581   5.877  18.097  0.00  0.00    +0.000 A 
ATOM     20  C   UNL     1       3.776   6.155  17.415  0.00  0.00    +0.000 A 
BRANCH  15  26
ATOM     21  C   UNL     1       5.862   3.971  14.079  0.00  0.00    +0.000 C 
ATOM     22  C   UNL     1       6.438   4.853  15.118  0.00  0.00    +0.000 A 
ATOM     23  N   UNL     1       7.656   5.360  15.076  0.00  0.00    +0.000 NA
ATOM     24  N   UNL     1       7.721   6.297  16.066  0.00  0.00    +0.000 NA
ATOM     25  N   UNL     1       6.569   6.388  16.710  0.00  0.00    +0.000 NA
ATOM     26  N   UNL     1       5.770   5.418  16.201  0.00  0.00    +0.000 N 
ENDBRANCH  15  26
ENDBRANCH   1  19
TORSDOF 3
ENDMDL
MODEL 7
REMARK VINA RESULT:      -8.8      0.551      1.536
REMARK  Name = 
REMARK  4 active torsions:
REMARK  status: ('A' for Active; 'I' for Inactive)
REMARK    1  A    between atoms: C_1  and  C_2
REMARK    2  A    between atoms: N_6  and  C_7
REMARK    3  A    between atoms: C_11  and  N_12
REMARK    4  A    between atoms: C_13  and  C_15
REMARK                            x       y       z     vdW  Elec       q    Type
REMARK                         _______ _______ _______ _____ _____    ______ ____
ROOT
ATOM      1  N   UNL     1       2.189   7.289  19.060  0.00  0.00    +0.000 N 
ATOM      2  C   UNL     1       1.686   7.360  20.349  0.00  0.00    +0.000 C 
ATOM      3  O   UNL     1       1.648   6.484  21.181  0.00  0.00    +0.000 OA
ATOM      4  H   UNL     1       2.155   8.126  18.492  0.00  0.00    +0.000 HD
ENDROOT
BRANCH   2   5
ATOM      5  C   UNL     1       1.033   8.658  20.700  0.00  0.00    +0.000 A 
ATOM      6  C   UNL     1       0.796   8.890  22.061  0.00  0.00    +0.000 A 
ATOM      7  C   UNL     1       0.074  10.013  22.447  0.00  0.00    +0.000 A 
ATOM      8  C   UNL     1      -0.280  10.978  21.504  0.00  0.00    +0.000 A 
ATOM      9  C   UNL     1      -1.030  12.089  21.896  0.00  0.00    +0.000 A 
ATOM     10  C   UNL     1      -0.960  13.262  21.171  0.00  0.00    +0.000 A 
ATOM     11  C   UNL     1      -0.367  13.241  19.910  0.00  0.00    +0.000 A 
ATOM     12  C   UNL     1       0.094  12.027  19.371  0.00  0.00    +0.000 A 
ATOM     13  C   UNL     1       0.193  10.869  20.183  0.00  0.00    +0.000 A 
ATOM     14  C   UNL     1       0.741   9.641  19.748  0.00  0.00    +0.000 A 
ENDBRANCH   2   5
BRANCH   1  19
ATOM     15  C   UNL     1       4.608   4.852  17.607  0.00  0.00    +0.000 A 
ATOM     16  C   UNL     1       3.759   3.817  17.212  0.00  0.00    +0.000 A 
ATOM     17  C   UNL     1       2.385   3.936  17.406  0.00  0.00    +0.000 A 
ATOM     18  C   UNL     1       1.853   5.076  18.009  0.00  0.00    +0.000 A 
ATOM     19  C   UNL     1       2.680   6.118  18.433  0.00  0.00    +0.000 A 
ATOM     20  C   UNL     1       4.062   6.005  18.215  0.00  0.00    +0.000 A 
BRANCH  15  26
ATOM     21  C   UNL     1       6.482   4.789  14.954  0.00  0.00    +0.000 C 
ATOM     22  C   UNL     1       6.839   4.558  16.370  0.00  0.00    +0.000 A 
ATOM     23  N   UNL     1       8.060   4.298  16.800  0.00  0.00    +0.000 NA
ATOM     24  N   UNL     1       8.022   4.393  18.160  0.00  0.00    +0.000 NA
ATOM     25  N   UNL     1       6.809   4.715  18.580  0.00  0.00    +0.000 NA
ATOM     26  N   UNL     1       6.016   4.727  17.479  0.00  0.00    +0.000 N 
ENDBRANCH  15  26
ENDBRANCH   1  19
TORSDOF 3
ENDMDL
MODEL 8
REMARK VINA RESULT:      -8.8      1.009      1.643
REMARK  Name = 
REMARK  4 active torsions:
REMARK  status: ('A' for Active; 'I' for Inactive)
REMARK    1  A    between atoms: C_1  and  C_2
REMARK    2  A    between atoms: N_6  and  C_7
REMARK    3  A    between atoms: C_11  and  N_12
REMARK    4  A    between atoms: C_13  and  C_15
REMARK                            x       y       z     vdW  Elec       q    Type
REMARK                         _______ _______ _______ _____ _____    ______ ____
ROOT
ATOM      1  N   UNL     1       1.717   6.588  19.242  0.00  0.00    +0.000 N 
ATOM      2  C   UNL     1       1.823   7.936  18.945  0.00  0.00    +0.000 C 
ATOM      3  O   UNL     1       2.430   8.451  18.035  0.00  0.00    +0.000 OA
ATOM      4  H   UNL     1       1.155   6.322  20.041  0.00  0.00    +0.000 HD
ENDROOT
BRANCH   2   5
ATOM      5  C   UNL     1       1.180   8.853  19.934  0.00  0.00    +0.000 A 
ATOM      6  C   UNL     1       1.090   8.387  21.252  0.00  0.00    +0.000 A 
ATOM      7  C   UNL     1       0.387   9.129  22.193  0.00  0.00    +0.000 A 
ATOM      8  C   UNL     1      -0.095  10.397  21.869  0.00  0.00    +0.000 A 
ATOM      9  C   UNL     1      -0.825  11.124  22.812  0.00  0.00    +0.000 A 
ATOM     10  C   UNL     1      -0.868  12.502  22.743  0.00  0.00    +0.000 A 
ATOM     11  C   UNL     1      -0.418  13.133  21.584  0.00  0.00    +0.000 A 
ATOM     12  C   UNL     1       0.011  12.364  20.487  0.00  0.00    +0.000 A 
ATOM     13  C   UNL     1       0.230  10.970  20.625  0.00  0.00    +0.000 A 
ATOM     14  C   UNL     1       0.758  10.146  19.606  0.00  0.00    +0.000 A 
ENDBRANCH   2   5
BRANCH   1  19
ATOM     15  C   UNL     1       4.523   4.585  17.820  0.00  0.00    +0.000 A 
ATOM     16  C   UNL     1       3.841   3.498  17.272  0.00  0.00    +0.000 A 
ATOM     17  C   UNL     1       2.452   3.438  17.354  0.00  0.00    +0.000 A 
ATOM     18  C   UNL     1       1.738   4.451  17.996  0.00  0.00    +0.000 A 
ATOM     19  C   UNL     1       2.395   5.542  18.570  0.00  0.00    +0.000 A 
ATOM     20  C   UNL     1       3.793   5.609  18.466  0.00  0.00    +0.000 A 
BRANCH  15  26
ATOM     21  C   UNL     1       6.610   4.416  15.336  0.00  0.00    +0.000 C 
ATOM     22  C   UNL     1       6.871   4.431  16.791  0.00  0.00    +0.000 A 
ATOM     23  N   UNL     1       8.073   4.401  17.335  0.00  0.00    +0.000 NA
ATOM     24  N   UNL     1       7.907   4.674  18.661  0.00  0.00    +0.000 NA
ATOM     25  N   UNL     1       6.633   4.883  18.947  0.00  0.00    +0.000 NA
ATOM     26  N   UNL     1       5.942   4.636  17.806  0.00  0.00    +0.000 N 
ENDBRANCH  15  26
ENDBRANCH   1  19
TORSDOF 3
ENDMDL
MODEL 9
REMARK VINA RESULT:      -8.7      1.023      1.115
REMARK  Name = 
REMARK  4 active torsions:
REMARK  status: ('A' for Active; 'I' for Inactive)
REMARK    1  A    between atoms: C_1  and  C_2
REMARK    2  A    between atoms: N_6  and  C_7
REMARK    3  A    between atoms: C_11  and  N_12
REMARK    4  A    between atoms: C_13  and  C_15
REMARK                            x       y       z     vdW  Elec       q    Type
REMARK                         _______ _______ _______ _____ _____    ______ ____
ROOT
ATOM      1  N   UNL     1       2.537   7.186  18.872  0.00  0.00    +0.000 N 
ATOM      2  C   UNL     1       1.872   7.172  20.087  0.00  0.00    +0.000 C 
ATOM      3  O   UNL     1       1.670   6.226  20.812  0.00  0.00    +0.000 OA
ATOM      4  H   UNL     1       2.630   8.074  18.394  0.00  0.00    +0.000 HD
ENDROOT
BRANCH   2   5
ATOM      5  C   UNL     1       1.258   8.475  20.485  0.00  0.00    +0.000 A 
ATOM      6  C   UNL     1       1.222   9.475  19.505  0.00  0.00    +0.000 A 
ATOM      7  C   UNL     1       0.788  10.751  19.845  0.00  0.00    +0.000 A 
ATOM      8  C   UNL     1       0.250  10.994  21.109  0.00  0.00    +0.000 A 
ATOM      9  C   UNL     1      -0.158  12.286  21.452  0.00  0.00    +0.000 A 
ATOM     10  C   UNL     1      -1.122  12.472  22.423  0.00  0.00    +0.000 A 
ATOM     11  C   UNL     1      -1.472  11.399  23.240  0.00  0.00    +0.000 A 
ATOM     12  C   UNL     1      -0.805  10.169  23.107  0.00  0.00    +0.000 A 
ATOM     13  C   UNL     1       0.043   9.924  21.998  0.00  0.00    +0.000 A 
ATOM     14  C   UNL     1       0.667   8.683  21.737  0.00  0.00    +0.000 A 
ENDBRANCH   2   5
BRANCH   1  19
ATOM     15  C   UNL     1       4.700   5.096  16.669  0.00  0.00    +0.000 A 
ATOM     16  C   UNL     1       4.116   3.837  16.817  0.00  0.00    +0.000 A 
ATOM     17  C   UNL     1       2.994   3.684  17.628  0.00  0.00    +0.000 A 
ATOM     18  C   UNL     1       2.460   4.780  18.307  0.00  0.00    +0.000 A 
ATOM     19  C   UNL     1       3.035   6.047  18.194  0.00  0.00    +0.000 A 
ATOM     20  C   UNL     1       4.152   6.201  17.358  0.00  0.00    +0.000 A 
BRANCH  15  26
ATOM     21  C   UNL     1       5.483   3.941  13.735  0.00  0.00    +0.000 C 
ATOM     22  C   UNL     1       6.311   4.681  14.713  0.00  0.00    +0.000 A 
ATOM     23  N   UNL     1       7.569   5.027  14.515  0.00  0.00    +0.000 NA
ATOM     24  N   UNL     1       7.897   5.890  15.520  0.00  0.00    +0.000 NA
ATOM     25  N   UNL     1       6.868   6.093  16.326  0.00  0.00    +0.000 NA
ATOM     26  N   UNL     1       5.882   5.264  15.901  0.00  0.00    +0.000 N 
ENDBRANCH  15  26
ENDBRANCH   1  19
TORSDOF 3
ENDMDL
