MODEL 1
REMARK VINA RESULT:      -8.5      0.000      0.000
REMARK  Name = 
REMARK  4 active torsions:
REMARK  status: ('A' for Active; 'I' for Inactive)
REMARK    1  A    between atoms: C_1  and  C_2
REMARK    2  A    between atoms: C_7  and  C_9
REMARK    3  A    between atoms: C_13  and  S_14
REMARK    4  A    between atoms: S_14  and  N_17
REMARK                            x       y       z     vdW  Elec       q    Type
REMARK                         _______ _______ _______ _____ _____    ______ ____
ROOT
ATOM      1  C   UNL     1       1.081   9.522  20.118  0.00  0.00    +0.000 A 
ATOM      2  C   UNL     1       1.256  10.080  18.838  0.00  0.00    +0.000 A 
ATOM      3  C   UNL     1       1.806   9.342  17.798  0.00  0.00    +0.000 A 
ATOM      4  C   UNL     1       2.221   8.033  18.028  0.00  0.00    +0.000 A 
ATOM      5  C   UNL     1       2.070   7.471  19.303  0.00  0.00    +0.000 A 
ATOM      6  C   UNL     1       1.477   8.193  20.348  0.00  0.00    +0.000 A 
ENDROOT
BRANCH   1  13
ATOM      7  C   UNL     1      -3.528  14.777  22.923  0.00  0.00    +0.000 C 
ATOM      8  C   UNL     1      -2.424  13.818  22.670  0.00  0.00    +0.000 A 
ATOM      9  C   UNL     1      -1.570  13.214  23.569  0.00  0.00    +0.000 A 
ATOM     10  N   UNL     1      -0.689  12.302  23.031  0.00  0.00    +0.000 NA
ATOM     11  C   UNL     1      -0.859  12.242  21.737  0.00  0.00    +0.000 A 
ATOM     12  N   UNL     1      -0.248  11.434  20.819  0.00  0.00    +0.000 N 
ATOM     13  C   UNL     1       0.590  10.418  21.208  0.00  0.00    +0.000 C 
ATOM     14  O   UNL     1       0.956  10.155  22.348  0.00  0.00    +0.000 OA
ATOM     15  S   UNL     1      -2.045  13.284  21.082  0.00  0.00    +0.000 S 
ATOM     16  H   UNL     1      -0.474  11.606  19.852  0.00  0.00    +0.000 HD
ENDBRANCH   1  13
BRANCH   5  17
ATOM     17  S   UNL     1       2.766   5.851  19.622  0.00  0.00    +0.000 S 
ATOM     18  O   UNL     1       4.183   6.078  19.816  0.00  0.00    +0.000 OA
ATOM     19  O   UNL     1       1.948   5.234  20.645  0.00  0.00    +0.000 OA
BRANCH  17  20
ATOM     20  N   UNL     1       2.506   4.960  18.158  0.00  0.00    +0.000 N 
ATOM     21  C   UNL     1       1.588   3.790  18.249  0.00  0.00    +0.000 C 
ATOM     22  C   UNL     1       2.234   2.422  18.201  0.00  0.00    +0.000 C 
ATOM     23  C   UNL     1       3.394   2.271  17.246  0.00  0.00    +0.000 C 
ATOM     24  C   UNL     1       4.171   3.523  16.985  0.00  0.00    +0.000 A 
ATOM     25  C   UNL     1       5.380   3.388  16.274  0.00  0.00    +0.000 A 
ATOM     26  C   UNL     1       6.112   4.505  15.889  0.00  0.00    +0.000 A 
ATOM     27  C   UNL     1       5.624   5.770  16.188  0.00  0.00    +0.000 A 
ATOM     28  C   UNL     1       4.431   5.913  16.907  0.00  0.00    +0.000 A 
ATOM     29  C   UNL     1       3.706   4.795  17.346  0.00  0.00    +0.000 A 
ENDBRANCH  17  20
ENDBRANCH   5  17
TORSDOF 3
ENDMDL
MODEL 2
REMARK VINA RESULT:      -8.5      5.590      7.800
REMARK  Name = 
REMARK  4 active torsions:
REMARK  status: ('A' for Active; 'I' for Inactive)
REMARK    1  A    between atoms: C_1  and  C_2
REMARK    2  A    between atoms: C_7  and  C_9
REMARK    3  A    between atoms: C_13  and  S_14
REMARK    4  A    between atoms: S_14  and  N_17
REMARK                            x       y       z     vdW  Elec       q    Type
REMARK                         _______ _______ _______ _____ _____    ______ ____
ROOT
ATOM      1  C   UNL     1       7.655   7.699  18.016  0.00  0.00    +0.000 A 
ATOM      2  C   UNL     1       8.395   6.934  18.936  0.00  0.00    +0.000 A 
ATOM      3  C   UNL     1       8.073   5.609  19.198  0.00  0.00    +0.000 A 
ATOM      4  C   UNL     1       6.979   5.028  18.561  0.00  0.00    +0.000 A 
ATOM      5  C   UNL     1       6.222   5.784  17.656  0.00  0.00    +0.000 A 
ATOM      6  C   UNL     1       6.564   7.109  17.353  0.00  0.00    +0.000 A 
ENDROOT
BRANCH   1  13
ATOM      7  C   UNL     1      11.903  13.757  19.420  0.00  0.00    +0.000 C 
ATOM      8  C   UNL     1      10.829  12.814  19.021  0.00  0.00    +0.000 A 
ATOM      9  C   UNL     1       9.836  12.972  18.077  0.00  0.00    +0.000 A 
ATOM     10  N   UNL     1       9.025  11.876  17.878  0.00  0.00    +0.000 NA
ATOM     11  C   UNL     1       9.388  10.913  18.684  0.00  0.00    +0.000 A 
ATOM     12  N   UNL     1       8.905   9.639  18.783  0.00  0.00    +0.000 N 
ATOM     13  C   UNL     1       7.995   9.147  17.879  0.00  0.00    +0.000 C 
ATOM     14  O   UNL     1       7.455   9.758  16.964  0.00  0.00    +0.000 OA
ATOM     15  S   UNL     1      10.682  11.262  19.744  0.00  0.00    +0.000 S 
ATOM     16  H   UNL     1       9.278   9.076  19.532  0.00  0.00    +0.000 HD
ENDBRANCH   1  13
BRANCH   5  17
ATOM     17  S   UNL     1       4.721   5.075  16.981  0.00  0.00    +0.000 S 
ATOM     18  O   UNL     1       3.770   6.165  16.942  0.00  0.00    +0.000 OA
ATOM     19  O   UNL     1       5.097   4.352  15.784  0.00  0.00    +0.000 OA
BRANCH  17  20
ATOM     20  N   UNL     1       4.222   3.897  18.151  0.00  0.00    +0.000 N 
ATOM     21  C   UNL     1       4.091   2.495  17.664  0.00  0.00    +0.000 C 
ATOM     22  C   UNL     1       2.682   1.970  17.492  0.00  0.00    +0.000 C 
ATOM     23  C   UNL     1       1.685   2.393  18.545  0.00  0.00    +0.000 C 
ATOM     24  C   UNL     1       1.965   3.712  19.193  0.00  0.00    +0.000 A 
ATOM     25  C   UNL     1       0.956   4.244  20.021  0.00  0.00    +0.000 A 
ATOM     26  C   UNL     1       1.171   5.407  20.752  0.00  0.00    +0.000 A 
ATOM     27  C   UNL     1       2.408   6.033  20.682  0.00  0.00    +0.000 A 
ATOM     28  C   UNL     1       3.410   5.519  19.849  0.00  0.00    +0.000 A 
ATOM     29  C   UNL     1       3.194   4.375  19.068  0.00  0.00    +0.000 A 
ENDBRANCH  17  20
ENDBRANCH   5  17
TORSDOF 3
ENDMDL
MODEL 3
REMARK VINA RESULT:      -8.4      5.945      7.886
REMARK  Name = 
REMARK  4 active torsions:
REMARK  status: ('A' for Active; 'I' for Inactive)
REMARK    1  A    between atoms: C_1  and  C_2
REMARK    2  A    between atoms: C_7  and  C_9
REMARK    3  A    between atoms: C_13  and  S_14
REMARK    4  A    between atoms: S_14  and  N_17
REMARK                            x       y       z     vdW  Elec       q    Type
REMARK                         _______ _______ _______ _____ _____    ______ ____
ROOT
ATOM      1  C   UNL     1       7.845   7.764  17.957  0.00  0.00    +0.000 A 
ATOM      2  C   UNL     1       8.323   7.030  19.058  0.00  0.00    +0.000 A 
ATOM      3  C   UNL     1       8.022   5.683  19.213  0.00  0.00    +0.000 A 
ATOM      4  C   UNL     1       7.207   5.049  18.279  0.00  0.00    +0.000 A 
ATOM      5  C   UNL     1       6.709   5.773  17.187  0.00  0.00    +0.000 A 
ATOM      6  C   UNL     1       7.042   7.121  16.999  0.00  0.00    +0.000 A 
ENDROOT
BRANCH   1  13
ATOM      7  C   UNL     1      11.917  13.871  19.647  0.00  0.00    +0.000 C 
ATOM      8  C   UNL     1      10.861  12.916  19.226  0.00  0.00    +0.000 A 
ATOM      9  C   UNL     1       9.811  13.107  18.352  0.00  0.00    +0.000 A 
ATOM     10  N   UNL     1       9.036  11.996  18.102  0.00  0.00    +0.000 NA
ATOM     11  C   UNL     1       9.481  10.987  18.804  0.00  0.00    +0.000 A 
ATOM     12  N   UNL     1       9.057   9.689  18.820  0.00  0.00    +0.000 N 
ATOM     13  C   UNL     1       8.118   9.233  17.926  0.00  0.00    +0.000 C 
ATOM     14  O   UNL     1       7.504   9.893  17.096  0.00  0.00    +0.000 OA
ATOM     15  S   UNL     1      10.818  11.305  19.820  0.00  0.00    +0.000 S 
ATOM     16  H   UNL     1       9.493   9.083  19.498  0.00  0.00    +0.000 HD
ENDBRANCH   1  13
BRANCH   5  17
ATOM     17  S   UNL     1       5.527   4.985  16.094  0.00  0.00    +0.000 S 
ATOM     18  O   UNL     1       5.516   5.799  14.897  0.00  0.00    +0.000 OA
ATOM     19  O   UNL     1       5.863   3.578  16.053  0.00  0.00    +0.000 OA
BRANCH  17  20
ATOM     20  N   UNL     1       4.006   5.121  16.915  0.00  0.00    +0.000 N 
ATOM     21  C   UNL     1       3.614   6.487  17.362  0.00  0.00    +0.000 C 
ATOM     22  C   UNL     1       3.704   6.763  18.847  0.00  0.00    +0.000 C 
ATOM     23  C   UNL     1       3.285   5.632  19.756  0.00  0.00    +0.000 C 
ATOM     24  C   UNL     1       3.473   4.259  19.193  0.00  0.00    +0.000 A 
ATOM     25  C   UNL     1       3.297   3.176  20.077  0.00  0.00    +0.000 A 
ATOM     26  C   UNL     1       3.341   1.864  19.619  0.00  0.00    +0.000 A 
ATOM     27  C   UNL     1       3.535   1.626  18.265  0.00  0.00    +0.000 A 
ATOM     28  C   UNL     1       3.725   2.696  17.382  0.00  0.00    +0.000 A 
ATOM     29  C   UNL     1       3.732   4.023  17.835  0.00  0.00    +0.000 A 
ENDBRANCH  17  20
ENDBRANCH   5  17
TORSDOF 3
ENDMDL
MODEL 4
REMARK VINA RESULT:      -8.4      5.042      7.487
REMARK  Name = 
REMARK  4 active torsions:
REMARK  status: ('A' for Active; 'I' for Inactive)
REMARK    1  A    between atoms: C_1  and  C_2
REMARK    2  A    between atoms: C_7  and  C_9
REMARK    3  A    between atoms: C_13  and  S_14
REMARK    4  A    between atoms: S_14  and  N_17
REMARK                            x       y       z     vdW  Elec       q    Type
REMARK                         _______ _______ _______ _____ _____    ______ ____
ROOT
ATOM      1  C   UNL     1       6.825   6.088  17.117  0.00  0.00    +0.000 A 
ATOM      2  C   UNL     1       7.266   5.711  15.835  0.00  0.00    +0.000 A 
ATOM      3  C   UNL     1       6.588   4.752  15.092  0.00  0.00    +0.000 A 
ATOM      4  C   UNL     1       5.467   4.129  15.632  0.00  0.00    +0.000 A 
ATOM      5  C   UNL     1       5.028   4.483  16.916  0.00  0.00    +0.000 A 
ATOM      6  C   UNL     1       5.679   5.478  17.656  0.00  0.00    +0.000 A 
ENDROOT
BRANCH   1  13
ATOM      7  C   UNL     1       9.195  12.990  18.980  0.00  0.00    +0.000 C 
ATOM      8  C   UNL     1       9.027  11.527  18.796  0.00  0.00    +0.000 A 
ATOM      9  C   UNL     1       9.498  10.490  19.574  0.00  0.00    +0.000 A 
ATOM     10  N   UNL     1       9.109   9.228  19.183  0.00  0.00    +0.000 NA
ATOM     11  C   UNL     1       8.376   9.313  18.104  0.00  0.00    +0.000 A 
ATOM     12  N   UNL     1       7.733   8.325  17.414  0.00  0.00    +0.000 N 
ATOM     13  C   UNL     1       7.675   7.039  17.894  0.00  0.00    +0.000 C 
ATOM     14  O   UNL     1       8.221   6.599  18.899  0.00  0.00    +0.000 OA
ATOM     15  S   UNL     1       8.136  10.884  17.475  0.00  0.00    +0.000 S 
ATOM     16  H   UNL     1       7.281   8.599  16.555  0.00  0.00    +0.000 HD
ENDBRANCH   1  13
BRANCH   5  17
ATOM     17  S   UNL     1       3.691   3.549  17.659  0.00  0.00    +0.000 S 
ATOM     18  O   UNL     1       2.478   4.124  17.116  0.00  0.00    +0.000 OA
ATOM     19  O   UNL     1       4.009   2.147  17.488  0.00  0.00    +0.000 OA
BRANCH  17  20
ATOM     20  N   UNL     1       3.800   3.892  19.355  0.00  0.00    +0.000 N 
ATOM     21  C   UNL     1       3.819   2.715  20.269  0.00  0.00    +0.000 C 
ATOM     22  C   UNL     1       2.557   2.457  21.063  0.00  0.00    +0.000 C 
ATOM     23  C   UNL     1       1.843   3.681  21.587  0.00  0.00    +0.000 C 
ATOM     24  C   UNL     1       2.027   4.922  20.772  0.00  0.00    +0.000 A 
ATOM     25  C   UNL     1       1.215   6.027  21.100  0.00  0.00    +0.000 A 
ATOM     26  C   UNL     1       1.393   7.255  20.474  0.00  0.00    +0.000 A 
ATOM     27  C   UNL     1       2.404   7.396  19.532  0.00  0.00    +0.000 A 
ATOM     28  C   UNL     1       3.205   6.299  19.190  0.00  0.00    +0.000 A 
ATOM     29  C   UNL     1       3.007   5.040  19.777  0.00  0.00    +0.000 A 
ENDBRANCH  17  20
ENDBRANCH   5  17
TORSDOF 3
ENDMDL
MODEL 5
REMARK VINA RESULT:      -8.3      2.084      3.551
REMARK  Name = 
REMARK  4 active torsions:
REMARK  status: ('A' for Active; 'I' for Inactive)
REMARK    1  A    between atoms: C_1  and  C_2
REMARK    2  A    between atoms: C_7  and  C_9
REMARK    3  A    between atoms: C_13  and  S_14
REMARK    4  A    between atoms: S_14  and  N_17
REMARK                            x       y       z     vdW  Elec       q    Type
REMARK                         _______ _______ _______ _____ _____    ______ ____
ROOT
ATOM      1  C   UNL     1       2.383   7.411  19.472  0.00  0.00    +0.000 A 
ATOM      2  C   UNL     1       2.450   8.190  18.301  0.00  0.00    +0.000 A 
ATOM      3  C   UNL     1       3.293   7.845  17.252  0.00  0.00    +0.000 A 
ATOM      4  C   UNL     1       4.111   6.725  17.367  0.00  0.00    +0.000 A 
ATOM      5  C   UNL     1       4.067   5.951  18.535  0.00  0.00    +0.000 A 
ATOM      6  C   UNL     1       3.190   6.265  19.581  0.00  0.00    +0.000 A 
ENDROOT
BRANCH   1  13
ATOM      7  C   UNL     1      -1.745  12.675  22.933  0.00  0.00    +0.000 C 
ATOM      8  C   UNL     1      -0.945  11.476  22.579  0.00  0.00    +0.000 A 
ATOM      9  C   UNL     1      -0.956  10.220  23.149  0.00  0.00    +0.000 A 
ATOM     10  N   UNL     1      -0.146   9.284  22.544  0.00  0.00    +0.000 NA
ATOM     11  C   UNL     1       0.489   9.839  21.546  0.00  0.00    +0.000 A 
ATOM     12  N   UNL     1       1.341   9.273  20.639  0.00  0.00    +0.000 N 
ATOM     13  C   UNL     1       1.538   7.914  20.596  0.00  0.00    +0.000 C 
ATOM     14  O   UNL     1       1.078   7.074  21.362  0.00  0.00    +0.000 OA
ATOM     15  S   UNL     1       0.190  11.502  21.289  0.00  0.00    +0.000 S 
ATOM     16  H   UNL     1       1.786   9.902  19.989  0.00  0.00    +0.000 HD
ENDBRANCH   1  13
BRANCH   5  17
ATOM     17  S   UNL     1       5.249   4.617  18.733  0.00  0.00    +0.000 S 
ATOM     18  O   UNL     1       6.184   4.774  17.639  0.00  0.00    +0.000 OA
ATOM     19  O   UNL     1       5.684   4.640  20.114  0.00  0.00    +0.000 OA
BRANCH  17  20
ATOM     20  N   UNL     1       4.323   3.168  18.515  0.00  0.00    +0.000 N 
ATOM     21  C   UNL     1       3.994   2.797  17.111  0.00  0.00    +0.000 C 
ATOM     22  C   UNL     1       2.560   3.006  16.675  0.00  0.00    +0.000 C 
ATOM     23  C   UNL     1       1.503   2.678  17.703  0.00  0.00    +0.000 C 
ATOM     24  C   UNL     1       1.930   2.837  19.128  0.00  0.00    +0.000 A 
ATOM     25  C   UNL     1       0.922   2.749  20.111  0.00  0.00    +0.000 A 
ATOM     26  C   UNL     1       1.239   2.772  21.464  0.00  0.00    +0.000 A 
ATOM     27  C   UNL     1       2.572   2.855  21.846  0.00  0.00    +0.000 A 
ATOM     28  C   UNL     1       3.577   2.958  20.877  0.00  0.00    +0.000 A 
ATOM     29  C   UNL     1       3.271   2.986  19.508  0.00  0.00    +0.000 A 
ENDBRANCH  17  20
ENDBRANCH   5  17
TORSDOF 3
ENDMDL
MODEL 6
REMARK VINA RESULT:      -8.3      2.531      9.145
REMARK  Name = 
REMARK  4 active torsions:
REMARK  status: ('A' for Active; 'I' for Inactive)
REMARK    1  A    between atoms: C_1  and  C_2
REMARK    2  A    between atoms: C_7  and  C_9
REMARK    3  A    between atoms: C_13  and  S_14
REMARK    4  A    between atoms: S_14  and  N_17
REMARK                            x       y       z     vdW  Elec       q    Type
REMARK                         _______ _______ _______ _____ _____    ______ ____
ROOT
ATOM      1  C   UNL     1       0.791   9.252  20.822  0.00  0.00    +0.000 A 
ATOM      2  C   UNL     1       0.074   8.830  21.957  0.00  0.00    +0.000 A 
ATOM      3  C   UNL     1      -0.597   9.738  22.766  0.00  0.00    +0.000 A 
ATOM      4  C   UNL     1      -0.538  11.097  22.470  0.00  0.00    +0.000 A 
ATOM      5  C   UNL     1       0.188  11.533  21.353  0.00  0.00    +0.000 A 
ATOM      6  C   UNL     1       0.833  10.622  20.506  0.00  0.00    +0.000 A 
ENDROOT
BRANCH   1  13
ATOM      7  C   UNL     1       3.171   2.218  19.564  0.00  0.00    +0.000 C 
ATOM      8  C   UNL     1       2.975   3.689  19.583  0.00  0.00    +0.000 A 
ATOM      9  C   UNL     1       3.316   4.627  18.631  0.00  0.00    +0.000 A 
ATOM     10  N   UNL     1       2.931   5.921  18.906  0.00  0.00    +0.000 NA
ATOM     11  C   UNL     1       2.331   5.960  20.067  0.00  0.00    +0.000 A 
ATOM     12  N   UNL     1       1.737   7.015  20.700  0.00  0.00    +0.000 N 
ATOM     13  C   UNL     1       1.579   8.227  20.074  0.00  0.00    +0.000 C 
ATOM     14  O   UNL     1       1.990   8.547  18.964  0.00  0.00    +0.000 OA
ATOM     15  S   UNL     1       2.220   4.477  20.910  0.00  0.00    +0.000 S 
ATOM     16  H   UNL     1       1.397   6.843  21.633  0.00  0.00    +0.000 HD
ENDBRANCH   1  13
BRANCH   5  17
ATOM     17  S   UNL     1       0.393  13.294  21.089  0.00  0.00    +0.000 S 
ATOM     18  O   UNL     1       0.679  13.843  22.397  0.00  0.00    +0.000 OA
ATOM     19  O   UNL     1       1.313  13.450  19.982  0.00  0.00    +0.000 OA
BRANCH  17  20
ATOM     20  N   UNL     1      -1.158  13.844  20.543  0.00  0.00    +0.000 N 
ATOM     21  C   UNL     1      -2.040  14.463  21.571  0.00  0.00    +0.000 C 
ATOM     22  C   UNL     1      -3.219  13.635  22.035  0.00  0.00    +0.000 C 
ATOM     23  C   UNL     1      -3.923  12.831  20.967  0.00  0.00    +0.000 C 
ATOM     24  C   UNL     1      -3.064  12.412  19.816  0.00  0.00    +0.000 A 
ATOM     25  C   UNL     1      -3.618  11.487  18.909  0.00  0.00    +0.000 A 
ATOM     26  C   UNL     1      -2.938  11.125  17.751  0.00  0.00    +0.000 A 
ATOM     27  C   UNL     1      -1.708  11.709  17.478  0.00  0.00    +0.000 A 
ATOM     28  C   UNL     1      -1.144  12.617  18.382  0.00  0.00    +0.000 A 
ATOM     29  C   UNL     1      -1.794  12.955  19.578  0.00  0.00    +0.000 A 
ENDBRANCH  17  20
ENDBRANCH   5  17
TORSDOF 3
ENDMDL
MODEL 7
REMARK VINA RESULT:      -8.1      5.579      7.877
REMARK  Name = 
REMARK  4 active torsions:
REMARK  status: ('A' for Active; 'I' for Inactive)
REMARK    1  A    between atoms: C_1  and  C_2
REMARK    2  A    between atoms: C_7  and  C_9
REMARK    3  A    between atoms: C_13  and  S_14
REMARK    4  A    between atoms: S_14  and  N_17
REMARK                            x       y       z     vdW  Elec       q    Type
REMARK                         _______ _______ _______ _____ _____    ______ ____
ROOT
ATOM      1  C   UNL     1       7.562   7.008  18.159  0.00  0.00    +0.000 A 
ATOM      2  C   UNL     1       7.935   6.379  19.361  0.00  0.00    +0.000 A 
ATOM      3  C   UNL     1       7.394   5.154  19.732  0.00  0.00    +0.000 A 
ATOM      4  C   UNL     1       6.444   4.546  18.917  0.00  0.00    +0.000 A 
ATOM      5  C   UNL     1       6.051   5.171  17.725  0.00  0.00    +0.000 A 
ATOM      6  C   UNL     1       6.621   6.386  17.321  0.00  0.00    +0.000 A 
ENDROOT
BRANCH   1  13
ATOM      7  C   UNL     1      11.398  13.203  20.067  0.00  0.00    +0.000 C 
ATOM      8  C   UNL     1      10.521  12.196  19.420  0.00  0.00    +0.000 A 
ATOM      9  C   UNL     1      10.100  12.119  18.108  0.00  0.00    +0.000 A 
ATOM     10  N   UNL     1       9.344  11.013  17.789  0.00  0.00    +0.000 NA
ATOM     11  C   UNL     1       9.174  10.279  18.857  0.00  0.00    +0.000 A 
ATOM     12  N   UNL     1       8.548   9.071  18.988  0.00  0.00    +0.000 N 
ATOM     13  C   UNL     1       8.102   8.375  17.891  0.00  0.00    +0.000 C 
ATOM     14  O   UNL     1       8.123   8.743  16.722  0.00  0.00    +0.000 OA
ATOM     15  S   UNL     1       9.869  10.873  20.301  0.00  0.00    +0.000 S 
ATOM     16  H   UNL     1       8.462   8.710  19.926  0.00  0.00    +0.000 HD
ENDBRANCH   1  13
BRANCH   5  17
ATOM     17  S   UNL     1       4.704   4.460  16.779  0.00  0.00    +0.000 S 
ATOM     18  O   UNL     1       4.971   4.828  15.405  0.00  0.00    +0.000 OA
ATOM     19  O   UNL     1       4.589   3.075  17.187  0.00  0.00    +0.000 OA
BRANCH  17  20
ATOM     20  N   UNL     1       3.284   5.276  17.346  0.00  0.00    +0.000 N 
ATOM     21  C   UNL     1       3.453   6.704  17.736  0.00  0.00    +0.000 C 
ATOM     22  C   UNL     1       3.429   7.005  19.219  0.00  0.00    +0.000 C 
ATOM     23  C   UNL     1       2.435   6.216  20.038  0.00  0.00    +0.000 C 
ATOM     24  C   UNL     1       2.099   4.861  19.499  0.00  0.00    +0.000 A 
ATOM     25  C   UNL     1       1.346   4.010  20.333  0.00  0.00    +0.000 A 
ATOM     26  C   UNL     1       0.893   2.779  19.875  0.00  0.00    +0.000 A 
ATOM     27  C   UNL     1       1.165   2.399  18.568  0.00  0.00    +0.000 A 
ATOM     28  C   UNL     1       1.925   3.233  17.737  0.00  0.00    +0.000 A 
ATOM     29  C   UNL     1       2.432   4.456  18.199  0.00  0.00    +0.000 A 
ENDBRANCH  17  20
ENDBRANCH   5  17
TORSDOF 3
ENDMDL
MODEL 8
REMARK VINA RESULT:      -8.1      2.038      3.189
REMARK  Name = 
REMARK  4 active torsions:
REMARK  status: ('A' for Active; 'I' for Inactive)
REMARK    1  A    between atoms: C_1  and  C_2
REMARK    2  A    between atoms: C_7  and  C_9
REMARK    3  A    between atoms: C_13  and  S_14
REMARK    4  A    between atoms: S_14  and  N_17
REMARK                            x       y       z     vdW  Elec       q    Type
REMARK                         _______ _______ _______ _____ _____    ______ ____
ROOT
ATOM      1  C   UNL     1       2.154   7.441  19.424  0.00  0.00    +0.000 A 
ATOM      2  C   UNL     1       2.544   8.297  18.377  0.00  0.00    +0.000 A 
ATOM      3  C   UNL     1       3.294   7.830  17.305  0.00  0.00    +0.000 A 
ATOM      4  C   UNL     1       3.696   6.497  17.275  0.00  0.00    +0.000 A 
ATOM      5  C   UNL     1       3.330   5.639  18.322  0.00  0.00    +0.000 A 
ATOM      6  C   UNL     1       2.537   6.089  19.386  0.00  0.00    +0.000 A 
ENDROOT
BRANCH   1  13
ATOM      7  C   UNL     1      -2.157  12.688  22.681  0.00  0.00    +0.000 C 
ATOM      8  C   UNL     1      -1.233  11.565  22.386  0.00  0.00    +0.000 A 
ATOM      9  C   UNL     1      -0.917  10.469  23.162  0.00  0.00    +0.000 A 
ATOM     10  N   UNL     1      -0.075   9.549  22.576  0.00  0.00    +0.000 NA
ATOM     11  C   UNL     1       0.261   9.964  21.383  0.00  0.00    +0.000 A 
ATOM     12  N   UNL     1       1.024   9.344  20.434  0.00  0.00    +0.000 N 
ATOM     13  C   UNL     1       1.449   8.048  20.594  0.00  0.00    +0.000 C 
ATOM     14  O   UNL     1       1.292   7.333  21.577  0.00  0.00    +0.000 OA
ATOM     15  S   UNL     1      -0.372  11.477  20.902  0.00  0.00    +0.000 S 
ATOM     16  H   UNL     1       1.225   9.877  19.602  0.00  0.00    +0.000 HD
ENDBRANCH   1  13
BRANCH   5  17
ATOM     17  S   UNL     1       4.000   3.977  18.350  0.00  0.00    +0.000 S 
ATOM     18  O   UNL     1       3.735   3.484  19.685  0.00  0.00    +0.000 OA
ATOM     19  O   UNL     1       3.495   3.298  17.175  0.00  0.00    +0.000 OA
BRANCH  17  20
ATOM     20  N   UNL     1       5.706   4.183  18.125  0.00  0.00    +0.000 N 
ATOM     21  C   UNL     1       6.417   4.995  19.152  0.00  0.00    +0.000 C 
ATOM     22  C   UNL     1       6.850   6.383  18.734  0.00  0.00    +0.000 C 
ATOM     23  C   UNL     1       7.369   6.516  17.321  0.00  0.00    +0.000 C 
ATOM     24  C   UNL     1       6.811   5.531  16.343  0.00  0.00    +0.000 A 
ATOM     25  C   UNL     1       7.100   5.749  14.981  0.00  0.00    +0.000 A 
ATOM     26  C   UNL     1       6.720   4.827  14.012  0.00  0.00    +0.000 A 
ATOM     27  C   UNL     1       6.069   3.664  14.402  0.00  0.00    +0.000 A 
ATOM     28  C   UNL     1       5.765   3.447  15.752  0.00  0.00    +0.000 A 
ATOM     29  C   UNL     1       6.098   4.390  16.736  0.00  0.00    +0.000 A 
ENDBRANCH  17  20
ENDBRANCH   5  17
TORSDOF 3
ENDMDL
MODEL 9
REMARK VINA RESULT:      -8.0      3.629      9.426
REMARK  Name = 
REMARK  4 active torsions:
REMARK  status: ('A' for Active; 'I' for Inactive)
REMARK    1  A    between atoms: C_1  and  C_2
REMARK    2  A    between atoms: C_7  and  C_9
REMARK    3  A    between atoms: C_13  and  S_14
REMARK    4  A    between atoms: S_14  and  N_17
REMARK                            x       y       z     vdW  Elec       q    Type
REMARK                         _______ _______ _______ _____ _____    ______ ____
ROOT
ATOM      1  C   UNL     1       0.949   8.905  20.423  0.00  0.00    +0.000 A 
ATOM      2  C   UNL     1       1.009   9.069  21.819  0.00  0.00    +0.000 A 
ATOM      3  C   UNL     1       0.224  10.013  22.470  0.00  0.00    +0.000 A 
ATOM      4  C   UNL     1      -0.618  10.836  21.728  0.00  0.00    +0.000 A 
ATOM      5  C   UNL     1      -0.674  10.695  20.334  0.00  0.00    +0.000 A 
ATOM      6  C   UNL     1       0.081   9.717  19.673  0.00  0.00    +0.000 A 
ENDROOT
BRANCH   1  13
ATOM      7  C   UNL     1       3.927   2.060  19.425  0.00  0.00    +0.000 C 
ATOM      8  C   UNL     1       3.640   3.515  19.442  0.00  0.00    +0.000 A 
ATOM      9  C   UNL     1       4.072   4.500  18.577  0.00  0.00    +0.000 A 
ATOM     10  N   UNL     1       3.568   5.760  18.812  0.00  0.00    +0.000 NA
ATOM     11  C   UNL     1       2.789   5.730  19.861  0.00  0.00    +0.000 A 
ATOM     12  N   UNL     1       2.038   6.730  20.411  0.00  0.00    +0.000 N 
ATOM     13  C   UNL     1       1.907   7.949  19.792  0.00  0.00    +0.000 C 
ATOM     14  O   UNL     1       2.471   8.325  18.770  0.00  0.00    +0.000 OA
ATOM     15  S   UNL     1       2.635   4.219  20.645  0.00  0.00    +0.000 S 
ATOM     16  H   UNL     1       1.563   6.511  21.273  0.00  0.00    +0.000 HD
ENDBRANCH   1  13
BRANCH   5  17
ATOM     17  S   UNL     1      -1.632  11.876  19.384  0.00  0.00    +0.000 S 
ATOM     18  O   UNL     1      -2.238  12.750  20.366  0.00  0.00    +0.000 OA
ATOM     19  O   UNL     1      -0.762  12.387  18.346  0.00  0.00    +0.000 OA
BRANCH  17  20
ATOM     20  N   UNL     1      -2.855  10.928  18.602  0.00  0.00    +0.000 N 
ATOM     21  C   UNL     1      -2.397  10.038  17.498  0.00  0.00    +0.000 C 
ATOM     22  C   UNL     1      -2.750  10.473  16.092  0.00  0.00    +0.000 C 
ATOM     23  C   UNL     1      -4.119  11.087  15.913  0.00  0.00    +0.000 C 
ATOM     24  C   UNL     1      -4.666  11.783  17.119  0.00  0.00    +0.000 A 
ATOM     25  C   UNL     1      -5.836  12.549  16.939  0.00  0.00    +0.000 A 
ATOM     26  C   UNL     1      -6.478  13.139  18.021  0.00  0.00    +0.000 A 
ATOM     27  C   UNL     1      -5.970  12.945  19.298  0.00  0.00    +0.000 A 
ATOM     28  C   UNL     1      -4.799  12.199  19.484  0.00  0.00    +0.000 A 
ATOM     29  C   UNL     1      -4.112  11.638  18.398  0.00  0.00    +0.000 A 
ENDBRANCH  17  20
ENDBRANCH   5  17
TORSDOF 3
ENDMDL
