MODEL 1
REMARK VINA RESULT:      -9.6      0.000      0.000
REMARK  Name = 
REMARK  8 active torsions:
REMARK  status: ('A' for Active; 'I' for Inactive)
REMARK    1  A    between atoms: C_1  and  C_2
REMARK    2  A    between atoms: C_2  and  C_3
REMARK    3  A    between atoms: C_14  and  C_16
REMARK    4  A    between atoms: C_16  and  O_17
REMARK    5  A    between atoms: O_17  and  C_18
REMARK    6  A    between atoms: C_18  and  C_20
REMARK    7  A    between atoms: N_22  and  C_23
REMARK    8  A    between atoms: C_23  and  C_24
REMARK                            x       y       z     vdW  Elec       q    Type
REMARK                         _______ _______ _______ _____ _____    ______ ____
ROOT
ATOM      1  C   UNL     1       0.220   8.780  21.324  0.00  0.00    +0.000 C 
ATOM      2  O   UNL     1      -0.691   8.184  21.871  0.00  0.00    +0.000 OA
ENDROOT
BRANCH   1   3
ATOM      3  C   UNL     1       0.076  10.208  20.842  0.00  0.00    +0.000 A 
ATOM      4  N   UNL     1       0.519  11.143  21.631  0.00  0.00    +0.000 NA
ATOM      5  N   UNL     1       0.497  12.436  21.131  0.00  0.00    +0.000 N 
ATOM      6  C   UNL     1      -0.648  12.837  20.408  0.00  0.00    +0.000 A 
ATOM      7  O   UNL     1      -1.093  13.977  20.367  0.00  0.00    +0.000 OA
ATOM      8  C   UNL     1      -1.194  11.789  19.513  0.00  0.00    +0.000 A 
ATOM      9  C   UNL     1      -2.096  12.115  18.495  0.00  0.00    +0.000 A 
ATOM     10  C   UNL     1      -2.271  11.228  17.435  0.00  0.00    +0.000 A 
ATOM     11  C   UNL     1      -1.515  10.054  17.378  0.00  0.00    +0.000 A 
ATOM     12  C   UNL     1      -0.696   9.688  18.452  0.00  0.00    +0.000 A 
ATOM     13  C   UNL     1      -0.600  10.528  19.561  0.00  0.00    +0.000 A 
BRANCH   5  14
ATOM     14  C   UNL     1       1.785  12.693  20.463  0.00  0.00    +0.000 C 
BRANCH  14  15
ATOM     15  C   UNL     1       2.055  14.099  20.048  0.00  0.00    +0.000 A 
ATOM     16  C   UNL     1       2.252  15.090  21.014  0.00  0.00    +0.000 A 
ATOM     17  C   UNL     1       2.605  16.377  20.625  0.00  0.00    +0.000 A 
ATOM     18  C   UNL     1       2.764  16.676  19.273  0.00  0.00    +0.000 A 
ATOM     19  C   UNL     1       2.574  15.690  18.306  0.00  0.00    +0.000 A 
ATOM     20  C   UNL     1       2.222  14.403  18.692  0.00  0.00    +0.000 A 
ENDBRANCH  14  15
ENDBRANCH   5  14
ENDBRANCH   1   3
BRANCH   1  21
ATOM     21  O   UNL     1       1.481   8.338  21.119  0.00  0.00    +0.000 OA
BRANCH  21  22
ATOM     22  C   UNL     1       1.553   7.123  20.369  0.00  0.00    +0.000 C 
BRANCH  22  36
ATOM     23  C   UNL     1       2.344   4.490  21.141  0.00  0.00    +0.000 C 
ATOM     24  C   UNL     1       2.719   4.458  19.636  0.00  0.00    +0.000 C 
ATOM     25  C   UNL     1       1.512   3.934  18.822  0.00  0.00    +0.000 C 
ATOM     26  C   UNL     1       3.798   3.348  19.574  0.00  0.00    +0.000 C 
ATOM     27  O   UNL     1       3.885   2.411  20.366  0.00  0.00    +0.000 OA
ATOM     28  N   UNL     1       4.561   3.299  18.455  0.00  0.00    +0.000 N 
ATOM     29  C   UNL     1       4.663   4.352  17.561  0.00  0.00    +0.000 A 
ATOM     30  C   UNL     1       5.444   4.105  16.420  0.00  0.00    +0.000 A 
ATOM     31  C   UNL     1       5.687   5.118  15.508  0.00  0.00    +0.000 A 
ATOM     32  C   UNL     1       5.175   6.380  15.761  0.00  0.00    +0.000 A 
ATOM     33  C   UNL     1       4.386   6.619  16.902  0.00  0.00    +0.000 A 
ATOM     34  C   UNL     1       4.067   5.605  17.821  0.00  0.00    +0.000 A 
ATOM     35  N   UNL     1       3.177   5.780  18.985  0.00  0.00    +0.000 N 
ATOM     36  C   UNL     1       2.538   7.040  19.209  0.00  0.00    +0.000 C 
ATOM     37  O   UNL     1       2.722   8.064  18.546  0.00  0.00    +0.000 OA
ATOM     38  H   UNL     1       5.137   2.482  18.352  0.00  0.00    +0.000 HD
ENDBRANCH  22  36
ENDBRANCH  21  22
ENDBRANCH   1  21
TORSDOF 6
ENDMDL
MODEL 2
REMARK VINA RESULT:      -9.6      2.767      4.536
REMARK  Name = 
REMARK  8 active torsions:
REMARK  status: ('A' for Active; 'I' for Inactive)
REMARK    1  A    between atoms: C_1  and  C_2
REMARK    2  A    between atoms: C_2  and  C_3
REMARK    3  A    between atoms: C_14  and  C_16
REMARK    4  A    between atoms: C_16  and  O_17
REMARK    5  A    between atoms: O_17  and  C_18
REMARK    6  A    between atoms: C_18  and  C_20
REMARK    7  A    between atoms: N_22  and  C_23
REMARK    8  A    between atoms: C_23  and  C_24
REMARK                            x       y       z     vdW  Elec       q    Type
REMARK                         _______ _______ _______ _____ _____    ______ ____
ROOT
ATOM      1  C   UNL     1       1.238   9.970  18.349  0.00  0.00    +0.000 C 
ATOM      2  O   UNL     1       2.187  10.678  18.063  0.00  0.00    +0.000 OA
ENDROOT
BRANCH   1   3
ATOM      3  C   UNL     1      -0.061  10.537  18.884  0.00  0.00    +0.000 A 
ATOM      4  N   UNL     1      -0.800  11.204  18.046  0.00  0.00    +0.000 NA
ATOM      5  N   UNL     1      -2.041  11.614  18.507  0.00  0.00    +0.000 N 
ATOM      6  C   UNL     1      -2.113  12.129  19.820  0.00  0.00    +0.000 A 
ATOM      7  O   UNL     1      -2.901  12.985  20.199  0.00  0.00    +0.000 OA
ATOM      8  C   UNL     1      -1.267  11.405  20.799  0.00  0.00    +0.000 A 
ATOM      9  C   UNL     1      -1.471  11.559  22.174  0.00  0.00    +0.000 A 
ATOM     10  C   UNL     1      -0.972  10.593  23.046  0.00  0.00    +0.000 A 
ATOM     11  C   UNL     1      -0.319   9.468  22.536  0.00  0.00    +0.000 A 
ATOM     12  C   UNL     1      -0.028   9.377  21.170  0.00  0.00    +0.000 A 
ATOM     13  C   UNL     1      -0.438  10.395  20.310  0.00  0.00    +0.000 A 
BRANCH   5  14
ATOM     14  C   UNL     1      -3.020  10.558  18.190  0.00  0.00    +0.000 C 
BRANCH  14  15
ATOM     15  C   UNL     1      -4.438  10.987  18.029  0.00  0.00    +0.000 A 
ATOM     16  C   UNL     1      -5.445  10.381  18.786  0.00  0.00    +0.000 A 
ATOM     17  C   UNL     1      -6.750  10.854  18.709  0.00  0.00    +0.000 A 
ATOM     18  C   UNL     1      -7.051  11.933  17.880  0.00  0.00    +0.000 A 
ATOM     19  C   UNL     1      -6.050  12.545  17.128  0.00  0.00    +0.000 A 
ATOM     20  C   UNL     1      -4.745  12.075  17.203  0.00  0.00    +0.000 A 
ENDBRANCH  14  15
ENDBRANCH   5  14
ENDBRANCH   1   3
BRANCH   1  21
ATOM     21  O   UNL     1       1.137   8.632  18.188  0.00  0.00    +0.000 OA
BRANCH  21  22
ATOM     22  C   UNL     1       2.253   7.901  18.705  0.00  0.00    +0.000 C 
BRANCH  22  36
ATOM     23  C   UNL     1       2.396   5.419  20.109  0.00  0.00    +0.000 C 
ATOM     24  C   UNL     1       2.880   4.968  18.705  0.00  0.00    +0.000 C 
ATOM     25  C   UNL     1       1.660   4.508  17.872  0.00  0.00    +0.000 C 
ATOM     26  C   UNL     1       3.698   3.690  19.018  0.00  0.00    +0.000 C 
ATOM     27  O   UNL     1       3.516   2.963  19.994  0.00  0.00    +0.000 OA
ATOM     28  N   UNL     1       4.523   3.238  18.043  0.00  0.00    +0.000 N 
ATOM     29  C   UNL     1       4.922   4.016  16.968  0.00  0.00    +0.000 A 
ATOM     30  C   UNL     1       5.725   3.367  16.015  0.00  0.00    +0.000 A 
ATOM     31  C   UNL     1       6.254   4.075  14.949  0.00  0.00    +0.000 A 
ATOM     32  C   UNL     1       6.004   5.435  14.864  0.00  0.00    +0.000 A 
ATOM     33  C   UNL     1       5.192   6.078  15.817  0.00  0.00    +0.000 A 
ATOM     34  C   UNL     1       4.588   5.384  16.880  0.00  0.00    +0.000 A 
ATOM     35  N   UNL     1       3.663   5.991  17.856  0.00  0.00    +0.000 N 
ATOM     36  C   UNL     1       3.291   7.366  17.726  0.00  0.00    +0.000 C 
ATOM     37  O   UNL     1       3.744   8.154  16.892  0.00  0.00    +0.000 OA
ATOM     38  H   UNL     1       4.917   2.326  18.189  0.00  0.00    +0.000 HD
ENDBRANCH  22  36
ENDBRANCH  21  22
ENDBRANCH   1  21
TORSDOF 6
ENDMDL
MODEL 3
REMARK VINA RESULT:      -9.6      2.209      9.100
REMARK  Name = 
REMARK  8 active torsions:
REMARK  status: ('A' for Active; 'I' for Inactive)
REMARK    1  A    between atoms: C_1  and  C_2
REMARK    2  A    between atoms: C_2  and  C_3
REMARK    3  A    between atoms: C_14  and  C_16
REMARK    4  A    between atoms: C_16  and  O_17
REMARK    5  A    between atoms: O_17  and  C_18
REMARK    6  A    between atoms: C_18  and  C_20
REMARK    7  A    between atoms: N_22  and  C_23
REMARK    8  A    between atoms: C_23  and  C_24
REMARK                            x       y       z     vdW  Elec       q    Type
REMARK                         _______ _______ _______ _____ _____    ______ ____
ROOT
ATOM      1  C   UNL     1       2.080   7.539  19.867  0.00  0.00    +0.000 C 
ATOM      2  O   UNL     1       1.535   7.593  20.955  0.00  0.00    +0.000 OA
ENDROOT
BRANCH   1   3
ATOM      3  C   UNL     1       2.387   6.222  19.183  0.00  0.00    +0.000 A 
ATOM      4  N   UNL     1       2.750   6.279  17.935  0.00  0.00    +0.000 NA
ATOM      5  N   UNL     1       3.148   5.085  17.352  0.00  0.00    +0.000 N 
ATOM      6  C   UNL     1       2.388   3.931  17.643  0.00  0.00    +0.000 A 
ATOM      7  O   UNL     1       2.221   2.986  16.882  0.00  0.00    +0.000 OA
ATOM      8  C   UNL     1       1.939   3.843  19.053  0.00  0.00    +0.000 A 
ATOM      9  C   UNL     1       1.479   2.634  19.585  0.00  0.00    +0.000 A 
ATOM     10  C   UNL     1       1.459   2.466  20.968  0.00  0.00    +0.000 A 
ATOM     11  C   UNL     1       1.938   3.482  21.799  0.00  0.00    +0.000 A 
ATOM     12  C   UNL     1       2.295   4.725  21.263  0.00  0.00    +0.000 A 
ATOM     13  C   UNL     1       2.217   4.928  19.885  0.00  0.00    +0.000 A 
BRANCH   5  14
ATOM     14  C   UNL     1       4.603   4.945  17.541  0.00  0.00    +0.000 C 
BRANCH  14  15
ATOM     15  C   UNL     1       5.436   4.902  16.306  0.00  0.00    +0.000 A 
ATOM     16  C   UNL     1       6.741   5.401  16.322  0.00  0.00    +0.000 A 
ATOM     17  C   UNL     1       7.550   5.266  15.199  0.00  0.00    +0.000 A 
ATOM     18  C   UNL     1       7.058   4.631  14.060  0.00  0.00    +0.000 A 
ATOM     19  C   UNL     1       5.758   4.126  14.040  0.00  0.00    +0.000 A 
ATOM     20  C   UNL     1       4.948   4.260  15.161  0.00  0.00    +0.000 A 
ENDBRANCH  14  15
ENDBRANCH   5  14
ENDBRANCH   1   3
BRANCH   1  21
ATOM     21  O   UNL     1       2.428   8.575  19.072  0.00  0.00    +0.000 OA
BRANCH  21  22
ATOM     22  C   UNL     1       1.525   9.682  19.137  0.00  0.00    +0.000 C 
BRANCH  22  36
ATOM     23  C   UNL     1       0.086  11.318  20.982  0.00  0.00    +0.000 C 
ATOM     24  C   UNL     1      -0.684  11.639  19.674  0.00  0.00    +0.000 C 
ATOM     25  C   UNL     1      -0.032  12.863  18.989  0.00  0.00    +0.000 C 
ATOM     26  C   UNL     1      -2.062  12.118  20.195  0.00  0.00    +0.000 C 
ATOM     27  O   UNL     1      -2.256  12.628  21.297  0.00  0.00    +0.000 OA
ATOM     28  N   UNL     1      -3.074  12.164  19.294  0.00  0.00    +0.000 N 
ATOM     29  C   UNL     1      -3.034  11.504  18.077  0.00  0.00    +0.000 A 
ATOM     30  C   UNL     1      -4.140  11.716  17.237  0.00  0.00    +0.000 A 
ATOM     31  C   UNL     1      -4.246  11.033  16.037  0.00  0.00    +0.000 A 
ATOM     32  C   UNL     1      -3.262  10.117  15.703  0.00  0.00    +0.000 A 
ATOM     33  C   UNL     1      -2.152   9.916  16.545  0.00  0.00    +0.000 A 
ATOM     34  C   UNL     1      -1.978  10.631  17.742  0.00  0.00    +0.000 A 
ATOM     35  N   UNL     1      -0.795  10.520  18.617  0.00  0.00    +0.000 N 
ATOM     36  C   UNL     1       0.293   9.672  18.241  0.00  0.00    +0.000 C 
ATOM     37  O   UNL     1       0.314   8.929  17.256  0.00  0.00    +0.000 OA
ATOM     38  H   UNL     1      -3.910  12.631  19.597  0.00  0.00    +0.000 HD
ENDBRANCH  22  36
ENDBRANCH  21  22
ENDBRANCH   1  21
TORSDOF 6
ENDMDL
MODEL 4
REMARK VINA RESULT:      -9.6      2.157      4.063
REMARK  Name = 
REMARK  8 active torsions:
REMARK  status: ('A' for Active; 'I' for Inactive)
REMARK    1  A    between atoms: C_1  and  C_2
REMARK    2  A    between atoms: C_2  and  C_3
REMARK    3  A    between atoms: C_14  and  C_16
REMARK    4  A    between atoms: C_16  and  O_17
REMARK    5  A    between atoms: O_17  and  C_18
REMARK    6  A    between atoms: C_18  and  C_20
REMARK    7  A    between atoms: N_22  and  C_23
REMARK    8  A    between atoms: C_23  and  C_24
REMARK                            x       y       z     vdW  Elec       q    Type
REMARK                         _______ _______ _______ _____ _____    ______ ____
ROOT
ATOM      1  C   UNL     1       1.079   8.538  21.307  0.00  0.00    +0.000 C 
ATOM      2  O   UNL     1       1.940   8.786  22.132  0.00  0.00    +0.000 OA
ENDROOT
BRANCH   1   3
ATOM      3  C   UNL     1       0.291   9.628  20.610  0.00  0.00    +0.000 A 
ATOM      4  N   UNL     1       0.299   9.619  19.309  0.00  0.00    +0.000 NA
ATOM      5  N   UNL     1      -0.521  10.542  18.679  0.00  0.00    +0.000 N 
ATOM      6  C   UNL     1      -0.561  11.850  19.210  0.00  0.00    +0.000 A 
ATOM      7  O   UNL     1      -0.747  12.870  18.559  0.00  0.00    +0.000 OA
ATOM      8  C   UNL     1      -0.550  11.900  20.692  0.00  0.00    +0.000 A 
ATOM      9  C   UNL     1      -0.919  13.065  21.372  0.00  0.00    +0.000 A 
ATOM     10  C   UNL     1      -1.298  12.978  22.710  0.00  0.00    +0.000 A 
ATOM     11  C   UNL     1      -1.347  11.731  23.338  0.00  0.00    +0.000 A 
ATOM     12  C   UNL     1      -0.875  10.589  22.682  0.00  0.00    +0.000 A 
ATOM     13  C   UNL     1      -0.399  10.694  21.375  0.00  0.00    +0.000 A 
BRANCH   5  14
ATOM     14  C   UNL     1      -1.835   9.912  18.457  0.00  0.00    +0.000 C 
BRANCH  14  15
ATOM     15  C   UNL     1      -2.564  10.305  17.217  0.00  0.00    +0.000 A 
ATOM     16  C   UNL     1      -2.207   9.746  15.987  0.00  0.00    +0.000 A 
ATOM     17  C   UNL     1      -2.955  10.036  14.851  0.00  0.00    +0.000 A 
ATOM     18  C   UNL     1      -4.059  10.881  14.942  0.00  0.00    +0.000 A 
ATOM     19  C   UNL     1      -4.423  11.438  16.167  0.00  0.00    +0.000 A 
ATOM     20  C   UNL     1      -3.678  11.149  17.305  0.00  0.00    +0.000 A 
ENDBRANCH  14  15
ENDBRANCH   5  14
ENDBRANCH   1   3
BRANCH   1  21
ATOM     21  O   UNL     1       0.728   7.324  20.828  0.00  0.00    +0.000 OA
BRANCH  21  22
ATOM     22  C   UNL     1       1.827   6.420  20.684  0.00  0.00    +0.000 C 
BRANCH  22  36
ATOM     23  C   UNL     1       2.574   3.669  20.851  0.00  0.00    +0.000 C 
ATOM     24  C   UNL     1       2.841   3.934  19.345  0.00  0.00    +0.000 C 
ATOM     25  C   UNL     1       1.560   3.611  18.539  0.00  0.00    +0.000 C 
ATOM     26  C   UNL     1       3.871   2.837  18.980  0.00  0.00    +0.000 C 
ATOM     27  O   UNL     1       3.980   1.757  19.559  0.00  0.00    +0.000 OA
ATOM     28  N   UNL     1       4.551   2.999  17.818  0.00  0.00    +0.000 N 
ATOM     29  C   UNL     1       4.627   4.209  17.148  0.00  0.00    +0.000 A 
ATOM     30  C   UNL     1       5.316   4.180  15.924  0.00  0.00    +0.000 A 
ATOM     31  C   UNL     1       5.530   5.351  15.217  0.00  0.00    +0.000 A 
ATOM     32  C   UNL     1       5.084   6.546  15.756  0.00  0.00    +0.000 A 
ATOM     33  C   UNL     1       4.387   6.567  16.979  0.00  0.00    +0.000 A 
ATOM     34  C   UNL     1       4.098   5.395  17.698  0.00  0.00    +0.000 A 
ATOM     35  N   UNL     1       3.299   5.351  18.939  0.00  0.00    +0.000 N 
ATOM     36  C   UNL     1       2.724   6.552  19.459  0.00  0.00    +0.000 C 
ATOM     37  O   UNL     1       2.897   7.684  19.002  0.00  0.00    +0.000 OA
ATOM     38  H   UNL     1       5.088   2.207  17.510  0.00  0.00    +0.000 HD
ENDBRANCH  22  36
ENDBRANCH  21  22
ENDBRANCH   1  21
TORSDOF 6
ENDMDL
MODEL 5
REMARK VINA RESULT:      -9.6      0.846      1.142
REMARK  Name = 
REMARK  8 active torsions:
REMARK  status: ('A' for Active; 'I' for Inactive)
REMARK    1  A    between atoms: C_1  and  C_2
REMARK    2  A    between atoms: C_2  and  C_3
REMARK    3  A    between atoms: C_14  and  C_16
REMARK    4  A    between atoms: C_16  and  O_17
REMARK    5  A    between atoms: O_17  and  C_18
REMARK    6  A    between atoms: C_18  and  C_20
REMARK    7  A    between atoms: N_22  and  C_23
REMARK    8  A    between atoms: C_23  and  C_24
REMARK                            x       y       z     vdW  Elec       q    Type
REMARK                         _______ _______ _______ _____ _____    ______ ____
ROOT
ATOM      1  C   UNL     1       0.697   9.012  20.749  0.00  0.00    +0.000 C 
ATOM      2  O   UNL     1      -0.131   8.510  21.489  0.00  0.00    +0.000 OA
ENDROOT
BRANCH   1   3
ATOM      3  C   UNL     1       0.498  10.378  20.125  0.00  0.00    +0.000 A 
ATOM      4  N   UNL     1       1.113  11.377  20.688  0.00  0.00    +0.000 NA
ATOM      5  N   UNL     1       1.026  12.600  20.042  0.00  0.00    +0.000 N 
ATOM      6  C   UNL     1      -0.227  12.970  19.507  0.00  0.00    +0.000 A 
ATOM      7  O   UNL     1      -0.641  14.117  19.407  0.00  0.00    +0.000 OA
ATOM      8  C   UNL     1      -0.967  11.851  18.874  0.00  0.00    +0.000 A 
ATOM      9  C   UNL     1      -2.043  12.098  18.016  0.00  0.00    +0.000 A 
ATOM     10  C   UNL     1      -2.447  11.100  17.131  0.00  0.00    +0.000 A 
ATOM     11  C   UNL     1      -1.748   9.891  17.081  0.00  0.00    +0.000 A 
ATOM     12  C   UNL     1      -0.743   9.615  18.015  0.00  0.00    +0.000 A 
ATOM     13  C   UNL     1      -0.408  10.576  18.969  0.00  0.00    +0.000 A 
BRANCH   5  14
ATOM     14  C   UNL     1       2.164  12.709  19.111  0.00  0.00    +0.000 C 
BRANCH  14  15
ATOM     15  C   UNL     1       2.887  14.012  19.089  0.00  0.00    +0.000 A 
ATOM     16  C   UNL     1       2.934  14.768  17.914  0.00  0.00    +0.000 A 
ATOM     17  C   UNL     1       3.520  16.029  17.925  0.00  0.00    +0.000 A 
ATOM     18  C   UNL     1       4.057  16.538  19.106  0.00  0.00    +0.000 A 
ATOM     19  C   UNL     1       4.008  15.791  20.282  0.00  0.00    +0.000 A 
ATOM     20  C   UNL     1       3.422  14.530  20.275  0.00  0.00    +0.000 A 
ENDBRANCH  14  15
ENDBRANCH   5  14
ENDBRANCH   1   3
BRANCH   1  21
ATOM     21  O   UNL     1       1.909   8.515  20.419  0.00  0.00    +0.000 OA
BRANCH  21  22
ATOM     22  C   UNL     1       1.851   7.285  19.692  0.00  0.00    +0.000 C 
BRANCH  22  36
ATOM     23  C   UNL     1       2.411   4.658  20.659  0.00  0.00    +0.000 C 
ATOM     24  C   UNL     1       2.827   4.496  19.173  0.00  0.00    +0.000 C 
ATOM     25  C   UNL     1       1.607   4.012  18.354  0.00  0.00    +0.000 C 
ATOM     26  C   UNL     1       3.818   3.306  19.221  0.00  0.00    +0.000 C 
ATOM     27  O   UNL     1       3.808   2.420  20.073  0.00  0.00    +0.000 OA
ATOM     28  N   UNL     1       4.607   3.124  18.134  0.00  0.00    +0.000 N 
ATOM     29  C   UNL     1       4.817   4.105  17.178  0.00  0.00    +0.000 A 
ATOM     30  C   UNL     1       5.611   3.723  16.083  0.00  0.00    +0.000 A 
ATOM     31  C   UNL     1       5.959   4.651  15.117  0.00  0.00    +0.000 A 
ATOM     32  C   UNL     1       5.540   5.963  15.271  0.00  0.00    +0.000 A 
ATOM     33  C   UNL     1       4.738   6.337  16.365  0.00  0.00    +0.000 A 
ATOM     34  C   UNL     1       4.314   5.413  17.336  0.00  0.00    +0.000 A 
ATOM     35  N   UNL     1       3.406   5.734  18.455  0.00  0.00    +0.000 N 
ATOM     36  C   UNL     1       2.860   7.050  18.575  0.00  0.00    +0.000 C 
ATOM     37  O   UNL     1       3.143   8.010  17.854  0.00  0.00    +0.000 OA
ATOM     38  H   UNL     1       5.121   2.261  18.104  0.00  0.00    +0.000 HD
ENDBRANCH  22  36
ENDBRANCH  21  22
ENDBRANCH   1  21
TORSDOF 6
ENDMDL
MODEL 6
REMARK VINA RESULT:      -9.5      2.636      4.293
REMARK  Name = 
REMARK  8 active torsions:
REMARK  status: ('A' for Active; 'I' for Inactive)
REMARK    1  A    between atoms: C_1  and  C_2
REMARK    2  A    between atoms: C_2  and  C_3
REMARK    3  A    between atoms: C_14  and  C_16
REMARK    4  A    between atoms: C_16  and  O_17
REMARK    5  A    between atoms: O_17  and  C_18
REMARK    6  A    between atoms: C_18  and  C_20
REMARK    7  A    between atoms: N_22  and  C_23
REMARK    8  A    between atoms: C_23  and  C_24
REMARK                            x       y       z     vdW  Elec       q    Type
REMARK                         _______ _______ _______ _____ _____    ______ ____
ROOT
ATOM      1  C   UNL     1       1.378  10.130  18.435  0.00  0.00    +0.000 C 
ATOM      2  O   UNL     1       2.326  10.838  18.145  0.00  0.00    +0.000 OA
ENDROOT
BRANCH   1   3
ATOM      3  C   UNL     1       0.166  10.666  19.169  0.00  0.00    +0.000 A 
ATOM      4  N   UNL     1      -0.585  11.511  18.525  0.00  0.00    +0.000 NA
ATOM      5  N   UNL     1      -1.757  11.902  19.154  0.00  0.00    +0.000 N 
ATOM      6  C   UNL     1      -1.695  12.179  20.537  0.00  0.00    +0.000 A 
ATOM      7  O   UNL     1      -2.390  12.998  21.124  0.00  0.00    +0.000 OA
ATOM      8  C   UNL     1      -0.831  11.247  21.301  0.00  0.00    +0.000 A 
ATOM      9  C   UNL     1      -0.920  11.167  22.694  0.00  0.00    +0.000 A 
ATOM     10  C   UNL     1      -0.427  10.036  23.341  0.00  0.00    +0.000 A 
ATOM     11  C   UNL     1       0.106   8.984  22.592  0.00  0.00    +0.000 A 
ATOM     12  C   UNL     1       0.287   9.119  21.211  0.00  0.00    +0.000 A 
ATOM     13  C   UNL     1      -0.113  10.295  20.577  0.00  0.00    +0.000 A 
BRANCH   5  14
ATOM     14  C   UNL     1      -2.828  10.975  18.745  0.00  0.00    +0.000 C 
BRANCH  14  15
ATOM     15  C   UNL     1      -3.009  10.767  17.280  0.00  0.00    +0.000 A 
ATOM     16  C   UNL     1      -2.266   9.789  16.613  0.00  0.00    +0.000 A 
ATOM     17  C   UNL     1      -2.511   9.528  15.269  0.00  0.00    +0.000 A 
ATOM     18  C   UNL     1      -3.499  10.240  14.591  0.00  0.00    +0.000 A 
ATOM     19  C   UNL     1      -4.247  11.213  15.253  0.00  0.00    +0.000 A 
ATOM     20  C   UNL     1      -4.004  11.475  16.596  0.00  0.00    +0.000 A 
ENDBRANCH  14  15
ENDBRANCH   5  14
ENDBRANCH   1   3
BRANCH   1  21
ATOM     21  O   UNL     1       1.200   8.829  18.117  0.00  0.00    +0.000 OA
BRANCH  21  22
ATOM     22  C   UNL     1       2.213   7.963  18.636  0.00  0.00    +0.000 C 
BRANCH  22  36
ATOM     23  C   UNL     1       2.350   5.511  20.094  0.00  0.00    +0.000 C 
ATOM     24  C   UNL     1       2.848   5.032  18.705  0.00  0.00    +0.000 C 
ATOM     25  C   UNL     1       1.637   4.550  17.870  0.00  0.00    +0.000 C 
ATOM     26  C   UNL     1       3.666   3.763  19.052  0.00  0.00    +0.000 C 
ATOM     27  O   UNL     1       3.478   3.057  20.041  0.00  0.00    +0.000 OA
ATOM     28  N   UNL     1       4.502   3.294  18.093  0.00  0.00    +0.000 N 
ATOM     29  C   UNL     1       4.907   4.050  17.006  0.00  0.00    +0.000 A 
ATOM     30  C   UNL     1       5.721   3.383  16.074  0.00  0.00    +0.000 A 
ATOM     31  C   UNL     1       6.257   4.070  14.998  0.00  0.00    +0.000 A 
ATOM     32  C   UNL     1       6.004   5.427  14.882  0.00  0.00    +0.000 A 
ATOM     33  C   UNL     1       5.182   6.087  15.814  0.00  0.00    +0.000 A 
ATOM     34  C   UNL     1       4.571   5.414  16.886  0.00  0.00    +0.000 A 
ATOM     35  N   UNL     1       3.635   6.039  17.841  0.00  0.00    +0.000 N 
ATOM     36  C   UNL     1       3.260   7.410  17.678  0.00  0.00    +0.000 C 
ATOM     37  O   UNL     1       3.718   8.181  16.831  0.00  0.00    +0.000 OA
ATOM     38  H   UNL     1       4.897   2.386  18.262  0.00  0.00    +0.000 HD
ENDBRANCH  22  36
ENDBRANCH  21  22
ENDBRANCH   1  21
TORSDOF 6
ENDMDL
MODEL 7
REMARK VINA RESULT:      -9.4      1.773      9.297
REMARK  Name = 
REMARK  8 active torsions:
REMARK  status: ('A' for Active; 'I' for Inactive)
REMARK    1  A    between atoms: C_1  and  C_2
REMARK    2  A    between atoms: C_2  and  C_3
REMARK    3  A    between atoms: C_14  and  C_16
REMARK    4  A    between atoms: C_16  and  O_17
REMARK    5  A    between atoms: O_17  and  C_18
REMARK    6  A    between atoms: C_18  and  C_20
REMARK    7  A    between atoms: N_22  and  C_23
REMARK    8  A    between atoms: C_23  and  C_24
REMARK                            x       y       z     vdW  Elec       q    Type
REMARK                         _______ _______ _______ _____ _____    ______ ____
ROOT
ATOM      1  C   UNL     1       2.196   7.407  19.411  0.00  0.00    +0.000 C 
ATOM      2  O   UNL     1       1.805   7.611  20.546  0.00  0.00    +0.000 OA
ENDROOT
BRANCH   1   3
ATOM      3  C   UNL     1       2.492   6.012  18.897  0.00  0.00    +0.000 A 
ATOM      4  N   UNL     1       2.872   5.911  17.657  0.00  0.00    +0.000 NA
ATOM      5  N   UNL     1       3.259   4.650  17.230  0.00  0.00    +0.000 N 
ATOM      6  C   UNL     1       2.477   3.550  17.647  0.00  0.00    +0.000 A 
ATOM      7  O   UNL     1       2.305   2.522  17.005  0.00  0.00    +0.000 OA
ATOM      8  C   UNL     1       2.007   3.642  19.051  0.00  0.00    +0.000 A 
ATOM      9  C   UNL     1       1.521   2.513  19.719  0.00  0.00    +0.000 A 
ATOM     10  C   UNL     1       1.480   2.515  21.112  0.00  0.00    +0.000 A 
ATOM     11  C   UNL     1       1.963   3.618  21.820  0.00  0.00    +0.000 A 
ATOM     12  C   UNL     1       2.348   4.781  21.142  0.00  0.00    +0.000 A 
ATOM     13  C   UNL     1       2.292   4.815  19.749  0.00  0.00    +0.000 A 
BRANCH   5  14
ATOM     14  C   UNL     1       4.709   4.513  17.457  0.00  0.00    +0.000 C 
BRANCH  14  15
ATOM     15  C   UNL     1       5.577   4.509  16.246  0.00  0.00    +0.000 A 
ATOM     16  C   UNL     1       5.106   3.969  15.046  0.00  0.00    +0.000 A 
ATOM     17  C   UNL     1       5.878   4.061  13.893  0.00  0.00    +0.000 A 
ATOM     18  C   UNL     1       7.119   4.693  13.936  0.00  0.00    +0.000 A 
ATOM     19  C   UNL     1       7.592   5.239  15.128  0.00  0.00    +0.000 A 
ATOM     20  C   UNL     1       6.822   5.149  16.282  0.00  0.00    +0.000 A 
ENDBRANCH  14  15
ENDBRANCH   5  14
ENDBRANCH   1   3
BRANCH   1  21
ATOM     21  O   UNL     1       2.364   8.317  18.426  0.00  0.00    +0.000 OA
BRANCH  21  22
ATOM     22  C   UNL     1       1.282   9.245  18.306  0.00  0.00    +0.000 C 
BRANCH  22  36
ATOM     23  C   UNL     1      -1.462   9.918  18.716  0.00  0.00    +0.000 C 
ATOM     24  C   UNL     1      -0.783  11.213  19.234  0.00  0.00    +0.000 C 
ATOM     25  C   UNL     1      -0.517  11.075  20.752  0.00  0.00    +0.000 C 
ATOM     26  C   UNL     1      -1.904  12.272  19.085  0.00  0.00    +0.000 C 
ATOM     27  O   UNL     1      -3.108  12.025  19.104  0.00  0.00    +0.000 OA
ATOM     28  N   UNL     1      -1.528  13.573  19.147  0.00  0.00    +0.000 N 
ATOM     29  C   UNL     1      -0.216  13.990  18.990  0.00  0.00    +0.000 A 
ATOM     30  C   UNL     1       0.004  15.369  19.152  0.00  0.00    +0.000 A 
ATOM     31  C   UNL     1       1.261  15.905  18.926  0.00  0.00    +0.000 A 
ATOM     32  C   UNL     1       2.279  15.065  18.507  0.00  0.00    +0.000 A 
ATOM     33  C   UNL     1       2.053  13.684  18.354  0.00  0.00    +0.000 A 
ATOM     34  C   UNL     1       0.809  13.091  18.630  0.00  0.00    +0.000 A 
ATOM     35  N   UNL     1       0.542  11.641  18.568  0.00  0.00    +0.000 N 
ATOM     36  C   UNL     1       1.602  10.734  18.253  0.00  0.00    +0.000 C 
ATOM     37  O   UNL     1       2.750  11.057  17.936  0.00  0.00    +0.000 OA
ATOM     38  H   UNL     1      -2.273  14.242  19.219  0.00  0.00    +0.000 HD
ENDBRANCH  22  36
ENDBRANCH  21  22
ENDBRANCH   1  21
TORSDOF 6
ENDMDL
MODEL 8
REMARK VINA RESULT:      -9.3      1.052      1.219
REMARK  Name = 
REMARK  8 active torsions:
REMARK  status: ('A' for Active; 'I' for Inactive)
REMARK    1  A    between atoms: C_1  and  C_2
REMARK    2  A    between atoms: C_2  and  C_3
REMARK    3  A    between atoms: C_14  and  C_16
REMARK    4  A    between atoms: C_16  and  O_17
REMARK    5  A    between atoms: O_17  and  C_18
REMARK    6  A    between atoms: C_18  and  C_20
REMARK    7  A    between atoms: N_22  and  C_23
REMARK    8  A    between atoms: C_23  and  C_24
REMARK                            x       y       z     vdW  Elec       q    Type
REMARK                         _______ _______ _______ _____ _____    ______ ____
ROOT
ATOM      1  C   UNL     1       0.911   9.214  19.974  0.00  0.00    +0.000 C 
ATOM      2  O   UNL     1       0.604   8.546  20.946  0.00  0.00    +0.000 OA
ENDROOT
BRANCH   1   3
ATOM      3  C   UNL     1       0.300  10.574  19.705  0.00  0.00    +0.000 A 
ATOM      4  N   UNL     1       0.903  11.602  20.226  0.00  0.00    +0.000 NA
ATOM      5  N   UNL     1       0.412  12.851  19.874  0.00  0.00    +0.000 N 
ATOM      6  C   UNL     1      -0.990  13.012  19.828  0.00  0.00    +0.000 A 
ATOM      7  O   UNL     1      -1.589  14.051  20.074  0.00  0.00    +0.000 OA
ATOM      8  C   UNL     1      -1.713  11.849  19.259  0.00  0.00    +0.000 A 
ATOM      9  C   UNL     1      -3.039  11.969  18.833  0.00  0.00    +0.000 A 
ATOM     10  C   UNL     1      -3.555  11.025  17.947  0.00  0.00    +0.000 A 
ATOM     11  C   UNL     1      -2.733  10.005  17.463  0.00  0.00    +0.000 A 
ATOM     12  C   UNL     1      -1.442   9.833  17.975  0.00  0.00    +0.000 A 
ATOM     13  C   UNL     1      -0.961  10.718  18.940  0.00  0.00    +0.000 A 
BRANCH   5  14
ATOM     14  C   UNL     1       1.138  13.308  18.676  0.00  0.00    +0.000 C 
BRANCH  14  15
ATOM     15  C   UNL     1       1.956  14.546  18.822  0.00  0.00    +0.000 A 
ATOM     16  C   UNL     1       1.881  15.302  19.996  0.00  0.00    +0.000 A 
ATOM     17  C   UNL     1       2.720  16.397  20.170  0.00  0.00    +0.000 A 
ATOM     18  C   UNL     1       3.635  16.737  19.176  0.00  0.00    +0.000 A 
ATOM     19  C   UNL     1       3.718  15.984  18.006  0.00  0.00    +0.000 A 
ATOM     20  C   UNL     1       2.881  14.889  17.829  0.00  0.00    +0.000 A 
ENDBRANCH  14  15
ENDBRANCH   5  14
ENDBRANCH   1   3
BRANCH   1  21
ATOM     21  O   UNL     1       1.848   8.926  19.045  0.00  0.00    +0.000 OA
BRANCH  21  22
ATOM     22  C   UNL     1       2.208   7.542  18.997  0.00  0.00    +0.000 C 
BRANCH  22  36
ATOM     23  C   UNL     1       2.314   4.934  20.153  0.00  0.00    +0.000 C 
ATOM     24  C   UNL     1       2.815   4.618  18.719  0.00  0.00    +0.000 C 
ATOM     25  C   UNL     1       1.605   4.251  17.828  0.00  0.00    +0.000 C 
ATOM     26  C   UNL     1       3.620   3.309  18.917  0.00  0.00    +0.000 C 
ATOM     27  O   UNL     1       3.420   2.492  19.814  0.00  0.00    +0.000 OA
ATOM     28  N   UNL     1       4.456   2.948  17.913  0.00  0.00    +0.000 N 
ATOM     29  C   UNL     1       4.875   3.824  16.925  0.00  0.00    +0.000 A 
ATOM     30  C   UNL     1       5.688   3.264  15.924  0.00  0.00    +0.000 A 
ATOM     31  C   UNL     1       6.237   4.069  14.941  0.00  0.00    +0.000 A 
ATOM     32  C   UNL     1       5.997   5.433  14.985  0.00  0.00    +0.000 A 
ATOM     33  C   UNL     1       5.176   5.986  15.985  0.00  0.00    +0.000 A 
ATOM     34  C   UNL     1       4.553   5.197  16.967  0.00  0.00    +0.000 A 
ATOM     35  N   UNL     1       3.617   5.713  17.985  0.00  0.00    +0.000 N 
ATOM     36  C   UNL     1       3.256   7.097  17.984  0.00  0.00    +0.000 C 
ATOM     37  O   UNL     1       3.727   7.958  17.238  0.00  0.00    +0.000 OA
ATOM     38  H   UNL     1       4.842   2.022  17.975  0.00  0.00    +0.000 HD
ENDBRANCH  22  36
ENDBRANCH  21  22
ENDBRANCH   1  21
TORSDOF 6
ENDMDL
MODEL 9
REMARK VINA RESULT:      -9.3      1.321      1.350
REMARK  Name = 
REMARK  8 active torsions:
REMARK  status: ('A' for Active; 'I' for Inactive)
REMARK    1  A    between atoms: C_1  and  C_2
REMARK    2  A    between atoms: C_2  and  C_3
REMARK    3  A    between atoms: C_14  and  C_16
REMARK    4  A    between atoms: C_16  and  O_17
REMARK    5  A    between atoms: O_17  and  C_18
REMARK    6  A    between atoms: C_18  and  C_20
REMARK    7  A    between atoms: N_22  and  C_23
REMARK    8  A    between atoms: C_23  and  C_24
REMARK                            x       y       z     vdW  Elec       q    Type
REMARK                         _______ _______ _______ _____ _____    ______ ____
ROOT
ATOM      1  C   UNL     1       0.690   9.128  20.495  0.00  0.00    +0.000 C 
ATOM      2  O   UNL     1       0.462   8.443  21.476  0.00  0.00    +0.000 OA
ENDROOT
BRANCH   1   3
ATOM      3  C   UNL     1      -0.056  10.419  20.222  0.00  0.00    +0.000 A 
ATOM      4  N   UNL     1       0.107  11.384  21.079  0.00  0.00    +0.000 NA
ATOM      5  N   UNL     1      -0.478  12.600  20.759  0.00  0.00    +0.000 N 
ATOM      6  C   UNL     1      -1.780  12.575  20.214  0.00  0.00    +0.000 A 
ATOM      7  O   UNL     1      -2.626  13.446  20.368  0.00  0.00    +0.000 OA
ATOM      8  C   UNL     1      -2.009  11.473  19.247  0.00  0.00    +0.000 A 
ATOM      9  C   UNL     1      -3.103  11.499  18.378  0.00  0.00    +0.000 A 
ATOM     10  C   UNL     1      -3.078  10.706  17.233  0.00  0.00    +0.000 A 
ATOM     11  C   UNL     1      -1.949   9.934  16.946  0.00  0.00    +0.000 A 
ATOM     12  C   UNL     1      -0.906   9.834  17.875  0.00  0.00    +0.000 A 
ATOM     13  C   UNL     1      -0.979  10.550  19.070  0.00  0.00    +0.000 A 
BRANCH   5  14
ATOM     14  C   UNL     1       0.505  13.398  20.004  0.00  0.00    +0.000 C 
BRANCH  14  15
ATOM     15  C   UNL     1       0.224  14.855  19.873  0.00  0.00    +0.000 A 
ATOM     16  C   UNL     1       0.406  15.707  20.967  0.00  0.00    +0.000 A 
ATOM     17  C   UNL     1       0.242  17.079  20.812  0.00  0.00    +0.000 A 
ATOM     18  C   UNL     1      -0.102  17.603  19.568  0.00  0.00    +0.000 A 
ATOM     19  C   UNL     1      -0.280  16.759  18.472  0.00  0.00    +0.000 A 
ATOM     20  C   UNL     1      -0.116  15.387  18.623  0.00  0.00    +0.000 A 
ENDBRANCH  14  15
ENDBRANCH   5  14
ENDBRANCH   1   3
BRANCH   1  21
ATOM     21  O   UNL     1       1.641   8.926  19.557  0.00  0.00    +0.000 OA
BRANCH  21  22
ATOM     22  C   UNL     1       1.991   7.551  19.376  0.00  0.00    +0.000 C 
BRANCH  22  36
ATOM     23  C   UNL     1       2.366   4.956  20.505  0.00  0.00    +0.000 C 
ATOM     24  C   UNL     1       2.815   4.686  19.045  0.00  0.00    +0.000 C 
ATOM     25  C   UNL     1       1.593   4.226  18.215  0.00  0.00    +0.000 C 
ATOM     26  C   UNL     1       3.732   3.445  19.191  0.00  0.00    +0.000 C 
ATOM     27  O   UNL     1       3.644   2.612  20.091  0.00  0.00    +0.000 OA
ATOM     28  N   UNL     1       4.540   3.156  18.142  0.00  0.00    +0.000 N 
ATOM     29  C   UNL     1       4.835   4.066  17.140  0.00  0.00    +0.000 A 
ATOM     30  C   UNL     1       5.637   3.577  16.095  0.00  0.00    +0.000 A 
ATOM     31  C   UNL     1       6.067   4.427  15.090  0.00  0.00    +0.000 A 
ATOM     32  C   UNL     1       5.722   5.767  15.157  0.00  0.00    +0.000 A 
ATOM     33  C   UNL     1       4.912   6.249  16.202  0.00  0.00    +0.000 A 
ATOM     34  C   UNL     1       4.406   5.408  17.209  0.00  0.00    +0.000 A 
ATOM     35  N   UNL     1       3.487   5.844  18.278  0.00  0.00    +0.000 N 
ATOM     36  C   UNL     1       3.017   7.195  18.307  0.00  0.00    +0.000 C 
ATOM     37  O   UNL     1       3.377   8.094  17.544  0.00  0.00    +0.000 OA
ATOM     38  H   UNL     1       5.002   2.264  18.176  0.00  0.00    +0.000 HD
ENDBRANCH  22  36
ENDBRANCH  21  22
ENDBRANCH   1  21
TORSDOF 6
ENDMDL
