MODEL 1
REMARK VINA RESULT:      -9.0      0.000      0.000
REMARK  Name = 
REMARK  7 active torsions:
REMARK  status: ('A' for Active; 'I' for Inactive)
REMARK    1  A    between atoms: C_1  and  N_2
REMARK    2  A    between atoms: C_6  and  C_7
REMARK    3  A    between atoms: C_7  and  N_8
REMARK    4  A    between atoms: N_8  and  C_9
REMARK    5  A    between atoms: C_13  and  N_14
REMARK    6  A    between atoms: C_19  and  C_20
REMARK    7  A    between atoms: C_23  and  C_24
REMARK                            x       y       z     vdW  Elec       q    Type
REMARK                         _______ _______ _______ _____ _____    ______ ____
ROOT
ATOM      1  N   UNL     1       4.212   4.496  19.130  0.00  0.00    +0.000 N 
ATOM      2  C   UNL     1       5.557   5.105  19.277  0.00  0.00    +0.000 C 
ATOM      3  C   UNL     1       6.113   4.959  17.892  0.00  0.00    +0.000 A 
ATOM      4  C   UNL     1       5.512   3.830  17.325  0.00  0.00    +0.000 A 
ATOM      5  C   UNL     1       5.634   3.497  15.988  0.00  0.00    +0.000 A 
ATOM      6  C   UNL     1       6.369   4.363  15.172  0.00  0.00    +0.000 A 
ATOM      7  C   UNL     1       6.976   5.511  15.737  0.00  0.00    +0.000 A 
ATOM      8  C   UNL     1       6.857   5.833  17.107  0.00  0.00    +0.000 A 
ATOM      9  C   UNL     1       4.382   3.434  18.201  0.00  0.00    +0.000 C 
ATOM     10  O   UNL     1       3.649   2.490  17.983  0.00  0.00    +0.000 OA
ENDROOT
BRANCH   1  15
ATOM     11  C   UNL     1       2.097   7.464  19.645  0.00  0.00    +0.000 A 
ATOM     12  C   UNL     1       2.519   8.186  18.522  0.00  0.00    +0.000 A 
ATOM     13  C   UNL     1       3.101   7.539  17.434  0.00  0.00    +0.000 A 
ATOM     14  C   UNL     1       3.396   6.183  17.513  0.00  0.00    +0.000 A 
ATOM     15  C   UNL     1       3.250   5.522  18.741  0.00  0.00    +0.000 A 
ATOM     16  C   UNL     1       2.496   6.127  19.756  0.00  0.00    +0.000 A 
BRANCH  11  17
ATOM     17  N   UNL     1       1.454   8.158  20.692  0.00  0.00    +0.000 N 
ATOM     18  H   UNL     1       2.120   8.285  21.455  0.00  0.00    +0.000 HD
BRANCH  17  19
ATOM     19  C   UNL     1       0.893   9.461  20.304  0.00  0.00    +0.000 C 
BRANCH  19  25
ATOM     20  C   UNL     1      -1.290  11.669  20.004  0.00  0.00    +0.000 C 
ATOM     21  N   UNL     1      -0.780  11.132  21.236  0.00  0.00    +0.000 N 
ATOM     22  C   UNL     1      -1.173  11.499  22.484  0.00  0.00    +0.000 A 
ATOM     23  N   UNL     1      -0.509  10.801  23.374  0.00  0.00    +0.000 NA
ATOM     24  N   UNL     1       0.329   9.945  22.696  0.00  0.00    +0.000 NA
ATOM     25  C   UNL     1       0.174  10.162  21.403  0.00  0.00    +0.000 A 
ENDBRANCH  19  25
ENDBRANCH  17  19
ENDBRANCH  11  17
ENDBRANCH   1  15
BRANCH   8  26
ATOM     26  C   UNL     1       7.404   7.149  17.603  0.00  0.00    +0.000 C 
ATOM     27  F   UNL     1       8.147   7.053  18.739  0.00  0.00    +0.000 F 
ATOM     28  F   UNL     1       8.214   7.746  16.687  0.00  0.00    +0.000 F 
ATOM     29  F   UNL     1       6.421   8.051  17.878  0.00  0.00    +0.000 F 
ENDBRANCH   8  26
BRANCH   6  30
ATOM     30  C   UNL     1       6.404   4.128  13.684  0.00  0.00    +0.000 C 
ATOM     31  F   UNL     1       7.355   4.867  13.045  0.00  0.00    +0.000 F 
ENDBRANCH   6  30
TORSDOF 6
ENDMDL
MODEL 2
REMARK VINA RESULT:      -8.8      0.756      1.002
REMARK  Name = 
REMARK  7 active torsions:
REMARK  status: ('A' for Active; 'I' for Inactive)
REMARK    1  A    between atoms: C_1  and  N_2
REMARK    2  A    between atoms: C_6  and  C_7
REMARK    3  A    between atoms: C_7  and  N_8
REMARK    4  A    between atoms: N_8  and  C_9
REMARK    5  A    between atoms: C_13  and  N_14
REMARK    6  A    between atoms: C_19  and  C_20
REMARK    7  A    between atoms: C_23  and  C_24
REMARK                            x       y       z     vdW  Elec       q    Type
REMARK                         _______ _______ _______ _____ _____    ______ ____
ROOT
ATOM      1  N   UNL     1       3.830   4.197  19.294  0.00  0.00    +0.000 N 
ATOM      2  C   UNL     1       5.209   4.741  19.355  0.00  0.00    +0.000 C 
ATOM      3  C   UNL     1       5.629   4.674  17.916  0.00  0.00    +0.000 A 
ATOM      4  C   UNL     1       4.928   3.613  17.333  0.00  0.00    +0.000 A 
ATOM      5  C   UNL     1       4.913   3.373  15.971  0.00  0.00    +0.000 A 
ATOM      6  C   UNL     1       5.608   4.266  15.150  0.00  0.00    +0.000 A 
ATOM      7  C   UNL     1       6.315   5.346  15.733  0.00  0.00    +0.000 A 
ATOM      8  C   UNL     1       6.337   5.573  17.127  0.00  0.00    +0.000 A 
ATOM      9  C   UNL     1       3.866   3.198  18.283  0.00  0.00    +0.000 C 
ATOM     10  O   UNL     1       3.074   2.301  18.071  0.00  0.00    +0.000 OA
ENDROOT
BRANCH   1  15
ATOM     11  C   UNL     1       2.129   7.365  20.078  0.00  0.00    +0.000 A 
ATOM     12  C   UNL     1       2.326   7.989  18.840  0.00  0.00    +0.000 A 
ATOM     13  C   UNL     1       2.582   7.238  17.695  0.00  0.00    +0.000 A 
ATOM     14  C   UNL     1       2.783   5.867  17.798  0.00  0.00    +0.000 A 
ATOM     15  C   UNL     1       2.884   5.284  19.069  0.00  0.00    +0.000 A 
ATOM     16  C   UNL     1       2.440   6.005  20.186  0.00  0.00    +0.000 A 
BRANCH  11  17
ATOM     17  N   UNL     1       1.807   8.165  21.194  0.00  0.00    +0.000 N 
ATOM     18  H   UNL     1       2.198   9.097  21.050  0.00  0.00    +0.000 HD
BRANCH  17  19
ATOM     19  C   UNL     1       0.367   8.271  21.474  0.00  0.00    +0.000 C 
BRANCH  19  25
ATOM     20  C   UNL     1      -0.683  10.569  19.646  0.00  0.00    +0.000 C 
ATOM     21  N   UNL     1      -0.523  10.617  21.074  0.00  0.00    +0.000 N 
ATOM     22  C   UNL     1      -0.811  11.680  21.869  0.00  0.00    +0.000 A 
ATOM     23  N   UNL     1      -0.554  11.374  23.118  0.00  0.00    +0.000 NA
ATOM     24  N   UNL     1      -0.102  10.074  23.147  0.00  0.00    +0.000 NA
ATOM     25  C   UNL     1      -0.069   9.627  21.906  0.00  0.00    +0.000 A 
ENDBRANCH  19  25
ENDBRANCH  17  19
ENDBRANCH  11  17
ENDBRANCH   1  15
BRANCH   8  26
ATOM     26  C   UNL     1       6.985   6.828  17.657  0.00  0.00    +0.000 C 
ATOM     27  F   UNL     1       7.951   7.343  16.848  0.00  0.00    +0.000 F 
ATOM     28  F   UNL     1       6.087   7.834  17.836  0.00  0.00    +0.000 F 
ATOM     29  F   UNL     1       7.578   6.636  18.868  0.00  0.00    +0.000 F 
ENDBRANCH   8  26
BRANCH   6  30
ATOM     30  C   UNL     1       5.496   4.138  13.653  0.00  0.00    +0.000 C 
ATOM     31  F   UNL     1       6.633   3.669  13.067  0.00  0.00    +0.000 F 
ENDBRANCH   6  30
TORSDOF 6
ENDMDL
MODEL 3
REMARK VINA RESULT:      -8.7      1.021      1.113
REMARK  Name = 
REMARK  7 active torsions:
REMARK  status: ('A' for Active; 'I' for Inactive)
REMARK    1  A    between atoms: C_1  and  N_2
REMARK    2  A    between atoms: C_6  and  C_7
REMARK    3  A    between atoms: C_7  and  N_8
REMARK    4  A    between atoms: N_8  and  C_9
REMARK    5  A    between atoms: C_13  and  N_14
REMARK    6  A    between atoms: C_19  and  C_20
REMARK    7  A    between atoms: C_23  and  C_24
REMARK                            x       y       z     vdW  Elec       q    Type
REMARK                         _______ _______ _______ _____ _____    ______ ____
ROOT
ATOM      1  N   UNL     1       4.245   4.303  19.236  0.00  0.00    +0.000 N 
ATOM      2  C   UNL     1       5.589   4.928  19.321  0.00  0.00    +0.000 C 
ATOM      3  C   UNL     1       6.059   4.837  17.900  0.00  0.00    +0.000 A 
ATOM      4  C   UNL     1       5.440   3.720  17.332  0.00  0.00    +0.000 A 
ATOM      5  C   UNL     1       5.483   3.434  15.980  0.00  0.00    +0.000 A 
ATOM      6  C   UNL     1       6.154   4.338  15.150  0.00  0.00    +0.000 A 
ATOM      7  C   UNL     1       6.779   5.476  15.717  0.00  0.00    +0.000 A 
ATOM      8  C   UNL     1       6.741   5.750  17.102  0.00  0.00    +0.000 A 
ATOM      9  C   UNL     1       4.372   3.276  18.262  0.00  0.00    +0.000 C 
ATOM     10  O   UNL     1       3.639   2.328  18.057  0.00  0.00    +0.000 OA
ENDROOT
BRANCH   1  15
ATOM     11  C   UNL     1       2.214   7.290  19.938  0.00  0.00    +0.000 A 
ATOM     12  C   UNL     1       2.502   7.989  18.760  0.00  0.00    +0.000 A 
ATOM     13  C   UNL     1       2.950   7.318  17.624  0.00  0.00    +0.000 A 
ATOM     14  C   UNL     1       3.248   5.963  17.694  0.00  0.00    +0.000 A 
ATOM     15  C   UNL     1       3.246   5.326  18.944  0.00  0.00    +0.000 A 
ATOM     16  C   UNL     1       2.619   5.954  20.028  0.00  0.00    +0.000 A 
BRANCH  11  17
ATOM     17  N   UNL     1       1.701   8.008  21.040  0.00  0.00    +0.000 N 
ATOM     18  H   UNL     1       2.403   8.683  21.344  0.00  0.00    +0.000 HD
BRANCH  17  19
ATOM     19  C   UNL     1       0.430   8.701  20.777  0.00  0.00    +0.000 C 
BRANCH  19  25
ATOM     20  C   UNL     1      -0.337  10.618  18.440  0.00  0.00    +0.000 C 
ATOM     21  N   UNL     1       0.197  10.999  19.719  0.00  0.00    +0.000 N 
ATOM     22  C   UNL     1       0.452  12.271  20.125  0.00  0.00    +0.000 A 
ATOM     23  N   UNL     1       0.923  12.252  21.349  0.00  0.00    +0.000 NA
ATOM     24  N   UNL     1       0.964  10.940  21.763  0.00  0.00    +0.000 NA
ATOM     25  C   UNL     1       0.540  10.185  20.767  0.00  0.00    +0.000 A 
ENDBRANCH  19  25
ENDBRANCH  17  19
ENDBRANCH  11  17
ENDBRANCH   1  15
BRANCH   8  26
ATOM     26  C   UNL     1       7.299   7.057  17.609  0.00  0.00    +0.000 C 
ATOM     27  F   UNL     1       8.000   6.952  18.770  0.00  0.00    +0.000 F 
ATOM     28  F   UNL     1       8.153   7.630  16.718  0.00  0.00    +0.000 F 
ATOM     29  F   UNL     1       6.328   7.982  17.844  0.00  0.00    +0.000 F 
ENDBRANCH   8  26
BRANCH   6  30
ATOM     30  C   UNL     1       6.099   4.155  13.656  0.00  0.00    +0.000 C 
ATOM     31  F   UNL     1       4.836   3.954  13.185  0.00  0.00    +0.000 F 
ENDBRANCH   6  30
TORSDOF 6
ENDMDL
MODEL 4
REMARK VINA RESULT:      -8.5      0.870      1.400
REMARK  Name = 
REMARK  7 active torsions:
REMARK  status: ('A' for Active; 'I' for Inactive)
REMARK    1  A    between atoms: C_1  and  N_2
REMARK    2  A    between atoms: C_6  and  C_7
REMARK    3  A    between atoms: C_7  and  N_8
REMARK    4  A    between atoms: N_8  and  C_9
REMARK    5  A    between atoms: C_13  and  N_14
REMARK    6  A    between atoms: C_19  and  C_20
REMARK    7  A    between atoms: C_23  and  C_24
REMARK                            x       y       z     vdW  Elec       q    Type
REMARK                         _______ _______ _______ _____ _____    ______ ____
ROOT
ATOM      1  N   UNL     1       4.157   4.455  19.232  0.00  0.00    +0.000 N 
ATOM      2  C   UNL     1       5.513   5.049  19.336  0.00  0.00    +0.000 C 
ATOM      3  C   UNL     1       6.010   4.929  17.927  0.00  0.00    +0.000 A 
ATOM      4  C   UNL     1       5.376   3.818  17.361  0.00  0.00    +0.000 A 
ATOM      5  C   UNL     1       5.441   3.513  16.013  0.00  0.00    +0.000 A 
ATOM      6  C   UNL     1       6.150   4.390  15.186  0.00  0.00    +0.000 A 
ATOM      7  C   UNL     1       6.790   5.521  15.751  0.00  0.00    +0.000 A 
ATOM      8  C   UNL     1       6.730   5.814  17.132  0.00  0.00    +0.000 A 
ATOM      9  C   UNL     1       4.279   3.412  18.274  0.00  0.00    +0.000 C 
ATOM     10  O   UNL     1       3.528   2.479  18.066  0.00  0.00    +0.000 OA
ENDROOT
BRANCH   1  15
ATOM     11  C   UNL     1       2.154   7.477  19.867  0.00  0.00    +0.000 A 
ATOM     12  C   UNL     1       2.502   8.174  18.705  0.00  0.00    +0.000 A 
ATOM     13  C   UNL     1       2.981   7.500  17.584  0.00  0.00    +0.000 A 
ATOM     14  C   UNL     1       3.252   6.139  17.659  0.00  0.00    +0.000 A 
ATOM     15  C   UNL     1       3.189   5.497  18.905  0.00  0.00    +0.000 A 
ATOM     16  C   UNL     1       2.531   6.133  19.966  0.00  0.00    +0.000 A 
BRANCH  11  17
ATOM     17  N   UNL     1       1.612   8.199  20.951  0.00  0.00    +0.000 N 
ATOM     18  H   UNL     1       2.294   8.896  21.252  0.00  0.00    +0.000 HD
BRANCH  17  19
ATOM     19  C   UNL     1       0.328   8.857  20.663  0.00  0.00    +0.000 C 
BRANCH  19  25
ATOM     20  C   UNL     1      -0.894  10.449  23.051  0.00  0.00    +0.000 C 
ATOM     21  N   UNL     1      -0.203  11.002  21.918  0.00  0.00    +0.000 N 
ATOM     22  C   UNL     1       0.037  12.322  21.703  0.00  0.00    +0.000 A 
ATOM     23  N   UNL     1       0.697  12.468  20.579  0.00  0.00    +0.000 NA
ATOM     24  N   UNL     1       0.910  11.215  20.051  0.00  0.00    +0.000 NA
ATOM     25  C   UNL     1       0.347  10.333  20.856  0.00  0.00    +0.000 A 
ENDBRANCH  19  25
ENDBRANCH  17  19
ENDBRANCH  11  17
ENDBRANCH   1  15
BRANCH   8  26
ATOM     26  C   UNL     1       7.309   7.114  17.633  0.00  0.00    +0.000 C 
ATOM     27  F   UNL     1       6.379   8.068  17.914  0.00  0.00    +0.000 F 
ATOM     28  F   UNL     1       8.021   6.950  18.781  0.00  0.00    +0.000 F 
ATOM     29  F   UNL     1       8.165   7.682  16.739  0.00  0.00    +0.000 F 
ENDBRANCH   8  26
BRANCH   6  30
ATOM     30  C   UNL     1       6.122   4.188  13.694  0.00  0.00    +0.000 C 
ATOM     31  F   UNL     1       4.880   3.891  13.215  0.00  0.00    +0.000 F 
ENDBRANCH   6  30
TORSDOF 6
ENDMDL
MODEL 5
REMARK VINA RESULT:      -8.4      1.250      1.498
REMARK  Name = 
REMARK  7 active torsions:
REMARK  status: ('A' for Active; 'I' for Inactive)
REMARK    1  A    between atoms: C_1  and  N_2
REMARK    2  A    between atoms: C_6  and  C_7
REMARK    3  A    between atoms: C_7  and  N_8
REMARK    4  A    between atoms: N_8  and  C_9
REMARK    5  A    between atoms: C_13  and  N_14
REMARK    6  A    between atoms: C_19  and  C_20
REMARK    7  A    between atoms: C_23  and  C_24
REMARK                            x       y       z     vdW  Elec       q    Type
REMARK                         _______ _______ _______ _____ _____    ______ ____
ROOT
ATOM      1  N   UNL     1       3.070   3.749  19.013  0.00  0.00    +0.000 N 
ATOM      2  C   UNL     1       4.466   3.876  19.500  0.00  0.00    +0.000 C 
ATOM      3  C   UNL     1       5.235   3.934  18.213  0.00  0.00    +0.000 A 
ATOM      4  C   UNL     1       4.501   3.217  17.263  0.00  0.00    +0.000 A 
ATOM      5  C   UNL     1       4.803   3.217  15.914  0.00  0.00    +0.000 A 
ATOM      6  C   UNL     1       5.878   4.007  15.493  0.00  0.00    +0.000 A 
ATOM      7  C   UNL     1       6.623   4.741  16.448  0.00  0.00    +0.000 A 
ATOM      8  C   UNL     1       6.314   4.721  17.826  0.00  0.00    +0.000 A 
ATOM      9  C   UNL     1       3.156   2.959  17.834  0.00  0.00    +0.000 C 
ATOM     10  O   UNL     1       2.271   2.361  17.254  0.00  0.00    +0.000 OA
ENDROOT
BRANCH   1  15
ATOM     11  C   UNL     1       2.112   7.144  20.061  0.00  0.00    +0.000 A 
ATOM     12  C   UNL     1       2.687   7.836  18.989  0.00  0.00    +0.000 A 
ATOM     13  C   UNL     1       2.953   7.190  17.783  0.00  0.00    +0.000 A 
ATOM     14  C   UNL     1       2.778   5.815  17.682  0.00  0.00    +0.000 A 
ATOM     15  C   UNL     1       2.489   5.076  18.838  0.00  0.00    +0.000 A 
ATOM     16  C   UNL     1       2.043   5.749  19.984  0.00  0.00    +0.000 A 
BRANCH  11  17
ATOM     17  N   UNL     1       1.803   7.859  21.238  0.00  0.00    +0.000 N 
ATOM     18  H   UNL     1       2.521   8.568  21.386  0.00  0.00    +0.000 HD
BRANCH  17  19
ATOM     19  C   UNL     1       0.475   8.494  21.234  0.00  0.00    +0.000 C 
BRANCH  19  25
ATOM     20  C   UNL     1      -0.139  10.165  18.673  0.00  0.00    +0.000 C 
ATOM     21  N   UNL     1       0.240  10.680  19.961  0.00  0.00    +0.000 N 
ATOM     22  C   UNL     1       0.388  11.993  20.277  0.00  0.00    +0.000 A 
ATOM     23  N   UNL     1       0.731  12.102  21.539  0.00  0.00    +0.000 NA
ATOM     24  N   UNL     1       0.794  10.834  22.068  0.00  0.00    +0.000 NA
ATOM     25  C   UNL     1       0.513   9.976  21.104  0.00  0.00    +0.000 A 
ENDBRANCH  19  25
ENDBRANCH  17  19
ENDBRANCH  11  17
ENDBRANCH   1  15
BRANCH   8  26
ATOM     26  C   UNL     1       7.057   5.645  18.759  0.00  0.00    +0.000 C 
ATOM     27  F   UNL     1       8.309   5.221  19.086  0.00  0.00    +0.000 F 
ATOM     28  F   UNL     1       7.220   6.888  18.229  0.00  0.00    +0.000 F 
ATOM     29  F   UNL     1       6.406   5.826  19.941  0.00  0.00    +0.000 F 
ENDBRANCH   8  26
BRANCH   6  30
ATOM     30  C   UNL     1       6.151   4.163  14.019  0.00  0.00    +0.000 C 
ATOM     31  F   UNL     1       7.027   5.169  13.739  0.00  0.00    +0.000 F 
ENDBRANCH   6  30
TORSDOF 6
ENDMDL
MODEL 6
REMARK VINA RESULT:      -8.3      4.498      6.707
REMARK  Name = 
REMARK  7 active torsions:
REMARK  status: ('A' for Active; 'I' for Inactive)
REMARK    1  A    between atoms: C_1  and  N_2
REMARK    2  A    between atoms: C_6  and  C_7
REMARK    3  A    between atoms: C_7  and  N_8
REMARK    4  A    between atoms: N_8  and  C_9
REMARK    5  A    between atoms: C_13  and  N_14
REMARK    6  A    between atoms: C_19  and  C_20
REMARK    7  A    between atoms: C_23  and  C_24
REMARK                            x       y       z     vdW  Elec       q    Type
REMARK                         _______ _______ _______ _____ _____    ______ ____
ROOT
ATOM      1  N   UNL     1       6.060   5.351  15.573  0.00  0.00    +0.000 N 
ATOM      2  C   UNL     1       4.865   6.210  15.758  0.00  0.00    +0.000 C 
ATOM      3  C   UNL     1       4.098   5.450  16.799  0.00  0.00    +0.000 A 
ATOM      4  C   UNL     1       4.423   4.099  16.643  0.00  0.00    +0.000 A 
ATOM      5  C   UNL     1       4.057   3.122  17.551  0.00  0.00    +0.000 A 
ATOM      6  C   UNL     1       3.359   3.530  18.693  0.00  0.00    +0.000 A 
ATOM      7  C   UNL     1       3.032   4.898  18.861  0.00  0.00    +0.000 A 
ATOM      8  C   UNL     1       3.398   5.885  17.919  0.00  0.00    +0.000 A 
ATOM      9  C   UNL     1       5.590   4.019  15.731  0.00  0.00    +0.000 C 
ATOM     10  O   UNL     1       6.125   2.979  15.396  0.00  0.00    +0.000 OA
ENDROOT
BRANCH   1  15
ATOM     11  C   UNL     1       7.825   7.688  17.802  0.00  0.00    +0.000 A 
ATOM     12  C   UNL     1       7.889   6.855  18.926  0.00  0.00    +0.000 A 
ATOM     13  C   UNL     1       7.781   5.472  18.797  0.00  0.00    +0.000 A 
ATOM     14  C   UNL     1       7.467   4.916  17.563  0.00  0.00    +0.000 A 
ATOM     15  C   UNL     1       7.107   5.761  16.503  0.00  0.00    +0.000 A 
ATOM     16  C   UNL     1       7.403   7.128  16.592  0.00  0.00    +0.000 A 
BRANCH  11  17
ATOM     17  N   UNL     1       8.006   9.076  17.979  0.00  0.00    +0.000 N 
ATOM     18  H   UNL     1       7.103   9.496  18.203  0.00  0.00    +0.000 HD
BRANCH  17  19
ATOM     19  C   UNL     1       8.988   9.435  19.014  0.00  0.00    +0.000 C 
BRANCH  19  25
ATOM     20  C   UNL     1       9.114  11.558  21.296  0.00  0.00    +0.000 C 
ATOM     21  N   UNL     1       9.534  11.741  19.933  0.00  0.00    +0.000 N 
ATOM     22  C   UNL     1      10.065  12.878  19.412  0.00  0.00    +0.000 A 
ATOM     23  N   UNL     1      10.342  12.690  18.144  0.00  0.00    +0.000 NA
ATOM     24  N   UNL     1      10.001  11.395  17.828  0.00  0.00    +0.000 NA
ATOM     25  C   UNL     1       9.496  10.831  18.909  0.00  0.00    +0.000 A 
ENDBRANCH  19  25
ENDBRANCH  17  19
ENDBRANCH  11  17
ENDBRANCH   1  15
BRANCH   8  26
ATOM     26  C   UNL     1       3.145   7.337  18.241  0.00  0.00    +0.000 C 
ATOM     27  F   UNL     1       4.227   8.145  18.064  0.00  0.00    +0.000 F 
ATOM     28  F   UNL     1       2.162   7.871  17.467  0.00  0.00    +0.000 F 
ATOM     29  F   UNL     1       2.750   7.524  19.530  0.00  0.00    +0.000 F 
ENDBRANCH   8  26
BRANCH   6  30
ATOM     30  C   UNL     1       3.073   2.531  19.783  0.00  0.00    +0.000 C 
ATOM     31  F   UNL     1       1.974   1.764  19.535  0.00  0.00    +0.000 F 
ENDBRANCH   6  30
TORSDOF 6
ENDMDL
MODEL 7
REMARK VINA RESULT:      -8.1      0.910      1.525
REMARK  Name = 
REMARK  7 active torsions:
REMARK  status: ('A' for Active; 'I' for Inactive)
REMARK    1  A    between atoms: C_1  and  N_2
REMARK    2  A    between atoms: C_6  and  C_7
REMARK    3  A    between atoms: C_7  and  N_8
REMARK    4  A    between atoms: N_8  and  C_9
REMARK    5  A    between atoms: C_13  and  N_14
REMARK    6  A    between atoms: C_19  and  C_20
REMARK    7  A    between atoms: C_23  and  C_24
REMARK                            x       y       z     vdW  Elec       q    Type
REMARK                         _______ _______ _______ _____ _____    ______ ____
ROOT
ATOM      1  N   UNL     1       3.961   4.823  19.224  0.00  0.00    +0.000 N 
ATOM      2  C   UNL     1       5.340   5.354  19.362  0.00  0.00    +0.000 C 
ATOM      3  C   UNL     1       5.909   5.087  18.001  0.00  0.00    +0.000 A 
ATOM      4  C   UNL     1       5.247   3.966  17.491  0.00  0.00    +0.000 A 
ATOM      5  C   UNL     1       5.371   3.543  16.180  0.00  0.00    +0.000 A 
ATOM      6  C   UNL     1       6.174   4.308  15.329  0.00  0.00    +0.000 A 
ATOM      7  C   UNL     1       6.844   5.449  15.836  0.00  0.00    +0.000 A 
ATOM      8  C   UNL     1       6.721   5.862  17.181  0.00  0.00    +0.000 A 
ATOM      9  C   UNL     1       4.079   3.696  18.366  0.00  0.00    +0.000 C 
ATOM     10  O   UNL     1       3.290   2.789  18.190  0.00  0.00    +0.000 OA
ENDROOT
BRANCH   1  15
ATOM     11  C   UNL     1       1.887   7.845  19.561  0.00  0.00    +0.000 A 
ATOM     12  C   UNL     1       2.444   8.568  18.500  0.00  0.00    +0.000 A 
ATOM     13  C   UNL     1       3.118   7.917  17.468  0.00  0.00    +0.000 A 
ATOM     14  C   UNL     1       3.365   6.553  17.557  0.00  0.00    +0.000 A 
ATOM     15  C   UNL     1       3.073   5.881  18.753  0.00  0.00    +0.000 A 
ATOM     16  C   UNL     1       2.234   6.496  19.692  0.00  0.00    +0.000 A 
BRANCH  11  17
ATOM     17  N   UNL     1       1.158   8.544  20.546  0.00  0.00    +0.000 N 
ATOM     18  H   UNL     1       1.511   8.276  21.464  0.00  0.00    +0.000 HD
BRANCH  17  19
ATOM     19  C   UNL     1       1.199  10.009  20.409  0.00  0.00    +0.000 C 
BRANCH  19  25
ATOM     20  C   UNL     1      -0.244  12.470  21.668  0.00  0.00    +0.000 C 
ATOM     21  N   UNL     1      -0.697  11.695  20.546  0.00  0.00    +0.000 N 
ATOM     22  C   UNL     1      -1.837  11.913  19.839  0.00  0.00    +0.000 A 
ATOM     23  N   UNL     1      -1.932  11.025  18.879  0.00  0.00    +0.000 NA
ATOM     24  N   UNL     1      -0.823  10.214  18.945  0.00  0.00    +0.000 NA
ATOM     25  C   UNL     1      -0.087  10.613  19.967  0.00  0.00    +0.000 A 
ENDBRANCH  19  25
ENDBRANCH  17  19
ENDBRANCH  11  17
ENDBRANCH   1  15
BRANCH   8  26
ATOM     26  C   UNL     1       7.343   7.169  17.607  0.00  0.00    +0.000 C 
ATOM     27  F   UNL     1       8.202   7.703  16.696  0.00  0.00    +0.000 F 
ATOM     28  F   UNL     1       6.408   8.132  17.833  0.00  0.00    +0.000 F 
ATOM     29  F   UNL     1       8.051   7.057  18.764  0.00  0.00    +0.000 F 
ENDBRANCH   8  26
BRANCH   6  30
ATOM     30  C   UNL     1       6.220   3.979  13.859  0.00  0.00    +0.000 C 
ATOM     31  F   UNL     1       7.126   4.728  13.169  0.00  0.00    +0.000 F 
ENDBRANCH   6  30
TORSDOF 6
ENDMDL
MODEL 8
REMARK VINA RESULT:      -8.1      1.164      1.373
REMARK  Name = 
REMARK  7 active torsions:
REMARK  status: ('A' for Active; 'I' for Inactive)
REMARK    1  A    between atoms: C_1  and  N_2
REMARK    2  A    between atoms: C_6  and  C_7
REMARK    3  A    between atoms: C_7  and  N_8
REMARK    4  A    between atoms: N_8  and  C_9
REMARK    5  A    between atoms: C_13  and  N_14
REMARK    6  A    between atoms: C_19  and  C_20
REMARK    7  A    between atoms: C_23  and  C_24
REMARK                            x       y       z     vdW  Elec       q    Type
REMARK                         _______ _______ _______ _____ _____    ______ ____
ROOT
ATOM      1  N   UNL     1       4.147   4.590  19.184  0.00  0.00    +0.000 N 
ATOM      2  C   UNL     1       5.503   5.176  19.324  0.00  0.00    +0.000 C 
ATOM      3  C   UNL     1       6.051   5.018  17.937  0.00  0.00    +0.000 A 
ATOM      4  C   UNL     1       5.429   3.898  17.376  0.00  0.00    +0.000 A 
ATOM      5  C   UNL     1       5.541   3.560  16.039  0.00  0.00    +0.000 A 
ATOM      6  C   UNL     1       6.288   4.411  15.218  0.00  0.00    +0.000 A 
ATOM      7  C   UNL     1       6.916   5.550  15.778  0.00  0.00    +0.000 A 
ATOM      8  C   UNL     1       6.807   5.878  17.148  0.00  0.00    +0.000 A 
ATOM      9  C   UNL     1       4.296   3.523  18.257  0.00  0.00    +0.000 C 
ATOM     10  O   UNL     1       3.545   2.591  18.043  0.00  0.00    +0.000 OA
ENDROOT
BRANCH   1  15
ATOM     11  C   UNL     1       1.955   7.493  19.744  0.00  0.00    +0.000 A 
ATOM     12  C   UNL     1       2.449   8.297  18.710  0.00  0.00    +0.000 A 
ATOM     13  C   UNL     1       3.120   7.735  17.626  0.00  0.00    +0.000 A 
ATOM     14  C   UNL     1       3.429   6.380  17.632  0.00  0.00    +0.000 A 
ATOM     15  C   UNL     1       3.201   5.631  18.796  0.00  0.00    +0.000 A 
ATOM     16  C   UNL     1       2.364   6.156  19.790  0.00  0.00    +0.000 A 
BRANCH  11  17
ATOM     17  N   UNL     1       1.225   8.104  20.785  0.00  0.00    +0.000 N 
ATOM     18  H   UNL     1       1.446   7.628  21.660  0.00  0.00    +0.000 HD
BRANCH  17  19
ATOM     19  C   UNL     1       1.468   9.548  20.933  0.00  0.00    +0.000 C 
BRANCH  19  25
ATOM     20  C   UNL     1       1.529  12.650  20.619  0.00  0.00    +0.000 C 
ATOM     21  N   UNL     1       0.470  11.769  20.208  0.00  0.00    +0.000 N 
ATOM     22  C   UNL     1      -0.687  12.148  19.605  0.00  0.00    +0.000 A 
ATOM     23  N   UNL     1      -1.420  11.087  19.362  0.00  0.00    +0.000 NA
ATOM     24  N   UNL     1      -0.722   9.985  19.801  0.00  0.00    +0.000 NA
ATOM     25  C   UNL     1       0.413  10.405  20.328  0.00  0.00    +0.000 A 
ENDBRANCH  19  25
ENDBRANCH  17  19
ENDBRANCH  11  17
ENDBRANCH   1  15
BRANCH   8  26
ATOM     26  C   UNL     1       7.378   7.185  17.639  0.00  0.00    +0.000 C 
ATOM     27  F   UNL     1       8.074   7.089  18.805  0.00  0.00    +0.000 F 
ATOM     28  F   UNL     1       8.243   7.736  16.744  0.00  0.00    +0.000 F 
ATOM     29  F   UNL     1       6.417   8.124  17.858  0.00  0.00    +0.000 F 
ENDBRANCH   8  26
BRANCH   6  30
ATOM     30  C   UNL     1       6.313   4.173  13.731  0.00  0.00    +0.000 C 
ATOM     31  F   UNL     1       5.111   3.769  13.231  0.00  0.00    +0.000 F 
ENDBRANCH   6  30
TORSDOF 6
ENDMDL
MODEL 9
REMARK VINA RESULT:      -8.0      4.686      6.617
REMARK  Name = 
REMARK  7 active torsions:
REMARK  status: ('A' for Active; 'I' for Inactive)
REMARK    1  A    between atoms: C_1  and  N_2
REMARK    2  A    between atoms: C_6  and  C_7
REMARK    3  A    between atoms: C_7  and  N_8
REMARK    4  A    between atoms: N_8  and  C_9
REMARK    5  A    between atoms: C_13  and  N_14
REMARK    6  A    between atoms: C_19  and  C_20
REMARK    7  A    between atoms: C_23  and  C_24
REMARK                            x       y       z     vdW  Elec       q    Type
REMARK                         _______ _______ _______ _____ _____    ______ ____
ROOT
ATOM      1  N   UNL     1       6.021   5.817  15.704  0.00  0.00    +0.000 N 
ATOM      2  C   UNL     1       4.840   6.508  16.277  0.00  0.00    +0.000 C 
ATOM      3  C   UNL     1       4.113   5.376  16.940  0.00  0.00    +0.000 A 
ATOM      4  C   UNL     1       4.422   4.215  16.225  0.00  0.00    +0.000 A 
ATOM      5  C   UNL     1       4.089   2.945  16.660  0.00  0.00    +0.000 A 
ATOM      6  C   UNL     1       3.442   2.835  17.895  0.00  0.00    +0.000 A 
ATOM      7  C   UNL     1       3.130   4.006  18.628  0.00  0.00    +0.000 A 
ATOM      8  C   UNL     1       3.462   5.300  18.167  0.00  0.00    +0.000 A 
ATOM      9  C   UNL     1       5.550   4.534  15.314  0.00  0.00    +0.000 C 
ATOM     10  O   UNL     1       6.063   3.733  14.558  0.00  0.00    +0.000 OA
ENDROOT
BRANCH   1  15
ATOM     11  C   UNL     1       8.099   7.224  18.396  0.00  0.00    +0.000 A 
ATOM     12  C   UNL     1       8.023   6.136  19.273  0.00  0.00    +0.000 A 
ATOM     13  C   UNL     1       7.705   4.862  18.806  0.00  0.00    +0.000 A 
ATOM     14  C   UNL     1       7.323   4.688  17.481  0.00  0.00    +0.000 A 
ATOM     15  C   UNL     1       7.108   5.817  16.677  0.00  0.00    +0.000 A 
ATOM     16  C   UNL     1       7.609   7.057  17.096  0.00  0.00    +0.000 A 
BRANCH  11  17
ATOM     17  N   UNL     1       8.489   8.479  18.909  0.00  0.00    +0.000 N 
ATOM     18  H   UNL     1       9.459   8.417  19.219  0.00  0.00    +0.000 HD
BRANCH  17  19
ATOM     19  C   UNL     1       8.343   9.596  17.963  0.00  0.00    +0.000 C 
BRANCH  19  25
ATOM     20  C   UNL     1       7.711  12.540  17.152  0.00  0.00    +0.000 C 
ATOM     21  N   UNL     1       8.812  12.093  17.960  0.00  0.00    +0.000 N 
ATOM     22  C   UNL     1       9.764  12.889  18.513  0.00  0.00    +0.000 A 
ATOM     23  N   UNL     1      10.609  12.152  19.193  0.00  0.00    +0.000 NA
ATOM     24  N   UNL     1      10.194  10.843  19.099  0.00  0.00    +0.000 NA
ATOM     25  C   UNL     1       9.117  10.812  18.337  0.00  0.00    +0.000 A 
ENDBRANCH  19  25
ENDBRANCH  17  19
ENDBRANCH  11  17
ENDBRANCH   1  15
BRANCH   8  26
ATOM     26  C   UNL     1       3.233   6.484  19.072  0.00  0.00    +0.000 C 
ATOM     27  F   UNL     1       2.695   7.568  18.448  0.00  0.00    +0.000 F 
ATOM     28  F   UNL     1       2.383   6.193  20.093  0.00  0.00    +0.000 F 
ATOM     29  F   UNL     1       4.382   6.925  19.655  0.00  0.00    +0.000 F 
ENDBRANCH   8  26
BRANCH   6  30
ATOM     30  C   UNL     1       3.195   1.471  18.484  0.00  0.00    +0.000 C 
ATOM     31  F   UNL     1       2.043   1.398  19.209  0.00  0.00    +0.000 F 
ENDBRANCH   6  30
TORSDOF 6
ENDMDL
