MODEL 1
REMARK VINA RESULT:      -8.4      0.000      0.000
REMARK  Name = 
REMARK  8 active torsions:
REMARK  status: ('A' for Active; 'I' for Inactive)
REMARK    1  A    between atoms: C_1  and  C_2
REMARK    2  A    between atoms: C_2  and  C_3
REMARK    3  A    between atoms: C_2  and  C_10
REMARK    4  A    between atoms: C_3  and  C_4
REMARK    5  A    between atoms: N_8  and  C_9
REMARK    6  A    between atoms: C_14  and  N_15
REMARK    7  A    between atoms: C_16  and  C_18
REMARK    8  A    between atoms: N_24  and  C_25
REMARK                            x       y       z     vdW  Elec       q    Type
REMARK                         _______ _______ _______ _____ _____    ______ ____
ROOT
ATOM      1  C   UNL     1       4.644   4.837  17.051  0.00  0.00    +0.000 A 
ATOM      2  C   UNL     1       3.899   3.647  17.008  0.00  0.00    +0.000 A 
ATOM      3  C   UNL     1       2.589   3.614  17.476  0.00  0.00    +0.000 A 
ATOM      4  C   UNL     1       2.012   4.758  18.025  0.00  0.00    +0.000 A 
ATOM      5  C   UNL     1       2.738   5.947  18.114  0.00  0.00    +0.000 A 
ATOM      6  C   UNL     1       4.039   5.989  17.594  0.00  0.00    +0.000 A 
ENDROOT
BRANCH   5   7
ATOM      7  N   UNL     1       2.225   7.106  18.725  0.00  0.00    +0.000 N 
ATOM      8  C   UNL     1       1.758   7.215  20.028  0.00  0.00    +0.000 C 
ATOM      9  O   UNL     1       1.726   6.314  20.863  0.00  0.00    +0.000 OA
ATOM     10  H   UNL     1       2.287   7.990  18.228  0.00  0.00    +0.000 HD
BRANCH   8  11
ATOM     11  C   UNL     1       1.283   8.575  20.408  0.00  0.00    +0.000 A 
ATOM     12  C   UNL     1       1.036   9.513  19.401  0.00  0.00    +0.000 A 
ATOM     13  C   UNL     1       0.728  10.765  19.845  0.00  0.00    +0.000 A 
ATOM     14  C   UNL     1       0.708  11.051  21.183  0.00  0.00    +0.000 A 
ATOM     15  C   UNL     1       0.873  10.091  22.127  0.00  0.00    +0.000 A 
ATOM     16  N   UNL     1       1.164   8.819  21.763  0.00  0.00    +0.000 NA
ATOM     17  N   UNL     1       0.578  12.371  20.978  0.00  0.00    +0.000 N 
ATOM     18  C   UNL     1      -0.229  13.196  21.837  0.00  0.00    +0.000 C 
ATOM     19  C   UNL     1       0.331  12.174  19.558  0.00  0.00    +0.000 C 
ENDBRANCH   8  11
ENDBRANCH   5   7
BRANCH   1  21
ATOM     20  C   UNL     1       7.078   4.414  17.690  0.00  0.00    +0.000 C 
ATOM     21  C   UNL     1       6.095   4.809  16.581  0.00  0.00    +0.000 C 
BRANCH  21  22
ATOM     22  C   UNL     1       6.211   3.902  15.334  0.00  0.00    +0.000 C 
BRANCH  22  23
ATOM     23  C   UNL     1       6.961   4.541  14.216  0.00  0.00    +0.000 A 
ATOM     24  N   UNL     1       7.884   5.476  14.342  0.00  0.00    +0.000 NA
ATOM     25  N   UNL     1       8.324   5.823  13.088  0.00  0.00    +0.000 NA
ATOM     26  C   UNL     1       7.668   5.086  12.222  0.00  0.00    +0.000 A 
ATOM     27  N   UNL     1       6.810   4.262  12.881  0.00  0.00    +0.000 N 
ATOM     28  C   UNL     1       5.933   3.296  12.277  0.00  0.00    +0.000 C 
ENDBRANCH  22  23
ENDBRANCH  21  22
ENDBRANCH   1  21
TORSDOF 5
ENDMDL
MODEL 2
REMARK VINA RESULT:      -8.2      1.110      1.499
REMARK  Name = 
REMARK  8 active torsions:
REMARK  status: ('A' for Active; 'I' for Inactive)
REMARK    1  A    between atoms: C_1  and  C_2
REMARK    2  A    between atoms: C_2  and  C_3
REMARK    3  A    between atoms: C_2  and  C_10
REMARK    4  A    between atoms: C_3  and  C_4
REMARK    5  A    between atoms: N_8  and  C_9
REMARK    6  A    between atoms: C_14  and  N_15
REMARK    7  A    between atoms: C_16  and  C_18
REMARK    8  A    between atoms: N_24  and  C_25
REMARK                            x       y       z     vdW  Elec       q    Type
REMARK                         _______ _______ _______ _____ _____    ______ ____
ROOT
ATOM      1  C   UNL     1       4.771   5.787  16.991  0.00  0.00    +0.000 A 
ATOM      2  C   UNL     1       4.233   4.491  16.970  0.00  0.00    +0.000 A 
ATOM      3  C   UNL     1       2.987   4.232  17.534  0.00  0.00    +0.000 A 
ATOM      4  C   UNL     1       2.274   5.255  18.157  0.00  0.00    +0.000 A 
ATOM      5  C   UNL     1       2.798   6.547  18.226  0.00  0.00    +0.000 A 
ATOM      6  C   UNL     1       4.029   6.813  17.610  0.00  0.00    +0.000 A 
ENDROOT
BRANCH   5   7
ATOM      7  N   UNL     1       2.151   7.594  18.906  0.00  0.00    +0.000 N 
ATOM      8  C   UNL     1       1.640   7.549  20.196  0.00  0.00    +0.000 C 
ATOM      9  O   UNL     1       1.678   6.585  20.957  0.00  0.00    +0.000 OA
ATOM     10  H   UNL     1       2.134   8.518  18.482  0.00  0.00    +0.000 HD
BRANCH   8  11
ATOM     11  C   UNL     1       1.015   8.819  20.664  0.00  0.00    +0.000 A 
ATOM     12  C   UNL     1       0.354   8.836  21.897  0.00  0.00    +0.000 A 
ATOM     13  C   UNL     1      -0.293  10.001  22.185  0.00  0.00    +0.000 A 
ATOM     14  C   UNL     1      -0.301  11.039  21.293  0.00  0.00    +0.000 A 
ATOM     15  C   UNL     1       0.421  11.010  20.146  0.00  0.00    +0.000 A 
ATOM     16  N   UNL     1       1.106   9.893  19.800  0.00  0.00    +0.000 NA
ATOM     17  N   UNL     1      -1.208  11.736  21.996  0.00  0.00    +0.000 N 
ATOM     18  C   UNL     1      -1.152  13.171  22.094  0.00  0.00    +0.000 C 
ATOM     19  C   UNL     1      -1.097  10.830  23.128  0.00  0.00    +0.000 C 
ENDBRANCH   8  11
ENDBRANCH   5   7
BRANCH   1  21
ATOM     20  C   UNL     1       7.166   6.544  17.445  0.00  0.00    +0.000 C 
ATOM     21  C   UNL     1       6.166   6.009  16.413  0.00  0.00    +0.000 C 
BRANCH  21  22
ATOM     22  C   UNL     1       6.650   4.707  15.734  0.00  0.00    +0.000 C 
BRANCH  22  23
ATOM     23  C   UNL     1       7.157   4.925  14.349  0.00  0.00    +0.000 A 
ATOM     24  N   UNL     1       8.167   5.704  14.011  0.00  0.00    +0.000 NA
ATOM     25  N   UNL     1       8.312   5.659  12.647  0.00  0.00    +0.000 NA
ATOM     26  C   UNL     1       7.394   4.846  12.179  0.00  0.00    +0.000 A 
ATOM     27  N   UNL     1       6.652   4.355  13.208  0.00  0.00    +0.000 N 
ATOM     28  C   UNL     1       5.564   3.422  13.097  0.00  0.00    +0.000 C 
ENDBRANCH  22  23
ENDBRANCH  21  22
ENDBRANCH   1  21
TORSDOF 5
ENDMDL
MODEL 3
REMARK VINA RESULT:      -8.2      1.535      1.988
REMARK  Name = 
REMARK  8 active torsions:
REMARK  status: ('A' for Active; 'I' for Inactive)
REMARK    1  A    between atoms: C_1  and  C_2
REMARK    2  A    between atoms: C_2  and  C_3
REMARK    3  A    between atoms: C_2  and  C_10
REMARK    4  A    between atoms: C_3  and  C_4
REMARK    5  A    between atoms: N_8  and  C_9
REMARK    6  A    between atoms: C_14  and  N_15
REMARK    7  A    between atoms: C_16  and  C_18
REMARK    8  A    between atoms: N_24  and  C_25
REMARK                            x       y       z     vdW  Elec       q    Type
REMARK                         _______ _______ _______ _____ _____    ______ ____
ROOT
ATOM      1  C   UNL     1       4.310   4.959  17.188  0.00  0.00    +0.000 A 
ATOM      2  C   UNL     1       4.695   3.811  17.897  0.00  0.00    +0.000 A 
ATOM      3  C   UNL     1       4.292   3.622  19.216  0.00  0.00    +0.000 A 
ATOM      4  C   UNL     1       3.526   4.593  19.859  0.00  0.00    +0.000 A 
ATOM      5  C   UNL     1       3.157   5.763  19.194  0.00  0.00    +0.000 A 
ATOM      6  C   UNL     1       3.521   5.923  17.849  0.00  0.00    +0.000 A 
ENDROOT
BRANCH   5   7
ATOM      7  N   UNL     1       2.447   6.802  19.822  0.00  0.00    +0.000 N 
ATOM      8  C   UNL     1       2.026   7.987  19.234  0.00  0.00    +0.000 C 
ATOM      9  O   UNL     1       2.199   8.316  18.064  0.00  0.00    +0.000 OA
ATOM     10  H   UNL     1       2.100   6.658  20.767  0.00  0.00    +0.000 HD
BRANCH   8  11
ATOM     11  C   UNL     1       1.280   8.903  20.143  0.00  0.00    +0.000 A 
ATOM     12  C   UNL     1       1.095   8.531  21.479  0.00  0.00    +0.000 A 
ATOM     13  C   UNL     1       0.296   9.366  22.202  0.00  0.00    +0.000 A 
ATOM     14  C   UNL     1      -0.291  10.456  21.620  0.00  0.00    +0.000 A 
ATOM     15  C   UNL     1      -0.019  10.825  20.343  0.00  0.00    +0.000 A 
ATOM     16  N   UNL     1       0.781  10.056  19.567  0.00  0.00    +0.000 NA
ATOM     17  N   UNL     1      -1.059  10.711  22.691  0.00  0.00    +0.000 N 
ATOM     18  C   UNL     1      -1.360  12.056  23.105  0.00  0.00    +0.000 C 
ATOM     19  C   UNL     1      -0.333   9.745  23.500  0.00  0.00    +0.000 C 
ENDBRANCH   8  11
ENDBRANCH   5   7
BRANCH   1  21
ATOM     20  C   UNL     1       5.087   6.618  15.411  0.00  0.00    +0.000 C 
ATOM     21  C   UNL     1       4.826   5.149  15.765  0.00  0.00    +0.000 C 
BRANCH  21  22
ATOM     22  C   UNL     1       6.070   4.256  15.550  0.00  0.00    +0.000 C 
BRANCH  22  23
ATOM     23  C   UNL     1       6.902   4.685  14.390  0.00  0.00    +0.000 A 
ATOM     24  N   UNL     1       7.913   5.532  14.437  0.00  0.00    +0.000 NA
ATOM     25  N   UNL     1       8.408   5.687  13.166  0.00  0.00    +0.000 NA
ATOM     26  C   UNL     1       7.696   4.925  12.369  0.00  0.00    +0.000 A 
ATOM     27  N   UNL     1       6.747   4.271  13.091  0.00  0.00    +0.000 N 
ATOM     28  C   UNL     1       5.787   3.334  12.574  0.00  0.00    +0.000 C 
ENDBRANCH  22  23
ENDBRANCH  21  22
ENDBRANCH   1  21
TORSDOF 5
ENDMDL
MODEL 4
REMARK VINA RESULT:      -8.1      1.326      1.429
REMARK  Name = 
REMARK  8 active torsions:
REMARK  status: ('A' for Active; 'I' for Inactive)
REMARK    1  A    between atoms: C_1  and  C_2
REMARK    2  A    between atoms: C_2  and  C_3
REMARK    3  A    between atoms: C_2  and  C_10
REMARK    4  A    between atoms: C_3  and  C_4
REMARK    5  A    between atoms: N_8  and  C_9
REMARK    6  A    between atoms: C_14  and  N_15
REMARK    7  A    between atoms: C_16  and  C_18
REMARK    8  A    between atoms: N_24  and  C_25
REMARK                            x       y       z     vdW  Elec       q    Type
REMARK                         _______ _______ _______ _____ _____    ______ ____
ROOT
ATOM      1  C   UNL     1       4.673   5.750  17.035  0.00  0.00    +0.000 A 
ATOM      2  C   UNL     1       4.058   4.488  17.011  0.00  0.00    +0.000 A 
ATOM      3  C   UNL     1       2.791   4.306  17.559  0.00  0.00    +0.000 A 
ATOM      4  C   UNL     1       2.133   5.372  18.170  0.00  0.00    +0.000 A 
ATOM      5  C   UNL     1       2.733   6.630  18.243  0.00  0.00    +0.000 A 
ATOM      6  C   UNL     1       3.986   6.820  17.643  0.00  0.00    +0.000 A 
ENDROOT
BRANCH   5   7
ATOM      7  N   UNL     1       2.141   7.716  18.912  0.00  0.00    +0.000 N 
ATOM      8  C   UNL     1       1.754   8.923  18.346  0.00  0.00    +0.000 C 
ATOM      9  O   UNL     1       1.860   9.235  17.162  0.00  0.00    +0.000 OA
ATOM     10  H   UNL     1       1.856   7.599  19.881  0.00  0.00    +0.000 HD
BRANCH   8  11
ATOM     11  C   UNL     1       1.139   9.890  19.299  0.00  0.00    +0.000 A 
ATOM     12  C   UNL     1       1.228  11.259  19.029  0.00  0.00    +0.000 A 
ATOM     13  C   UNL     1       0.749  12.071  20.015  0.00  0.00    +0.000 A 
ATOM     14  C   UNL     1       0.260  11.548  21.180  0.00  0.00    +0.000 A 
ATOM     15  C   UNL     1       0.116  10.212  21.366  0.00  0.00    +0.000 A 
ATOM     16  N   UNL     1       0.551   9.342  20.423  0.00  0.00    +0.000 NA
ATOM     17  N   UNL     1       0.171  12.749  21.772  0.00  0.00    +0.000 N 
ATOM     18  C   UNL     1      -0.907  13.076  22.668  0.00  0.00    +0.000 C 
ATOM     19  C   UNL     1       0.436  13.439  20.519  0.00  0.00    +0.000 C 
ENDBRANCH   8  11
ENDBRANCH   5   7
BRANCH   1  21
ATOM     20  C   UNL     1       7.123   6.253  17.544  0.00  0.00    +0.000 C 
ATOM     21  C   UNL     1       6.086   5.886  16.475  0.00  0.00    +0.000 C 
BRANCH  21  22
ATOM     22  C   UNL     1       6.456   4.597  15.705  0.00  0.00    +0.000 C 
BRANCH  22  23
ATOM     23  C   UNL     1       7.058   4.870  14.369  0.00  0.00    +0.000 A 
ATOM     24  N   UNL     1       8.074   5.678  14.131  0.00  0.00    +0.000 NA
ATOM     25  N   UNL     1       8.320   5.680  12.780  0.00  0.00    +0.000 NA
ATOM     26  C   UNL     1       7.456   4.865  12.220  0.00  0.00    +0.000 A 
ATOM     27  N   UNL     1       6.652   4.327  13.176  0.00  0.00    +0.000 N 
ATOM     28  C   UNL     1       5.595   3.377  12.955  0.00  0.00    +0.000 C 
ENDBRANCH  22  23
ENDBRANCH  21  22
ENDBRANCH   1  21
TORSDOF 5
ENDMDL
MODEL 5
REMARK VINA RESULT:      -8.1      6.168      7.828
REMARK  Name = 
REMARK  8 active torsions:
REMARK  status: ('A' for Active; 'I' for Inactive)
REMARK    1  A    between atoms: C_1  and  C_2
REMARK    2  A    between atoms: C_2  and  C_3
REMARK    3  A    between atoms: C_2  and  C_10
REMARK    4  A    between atoms: C_3  and  C_4
REMARK    5  A    between atoms: N_8  and  C_9
REMARK    6  A    between atoms: C_14  and  N_15
REMARK    7  A    between atoms: C_16  and  C_18
REMARK    8  A    between atoms: N_24  and  C_25
REMARK                            x       y       z     vdW  Elec       q    Type
REMARK                         _______ _______ _______ _____ _____    ______ ____
ROOT
ATOM      1  C   UNL     1       6.224   6.183  17.415  0.00  0.00    +0.000 A 
ATOM      2  C   UNL     1       6.863   5.312  18.312  0.00  0.00    +0.000 A 
ATOM      3  C   UNL     1       7.940   5.748  19.078  0.00  0.00    +0.000 A 
ATOM      4  C   UNL     1       8.419   7.049  18.936  0.00  0.00    +0.000 A 
ATOM      5  C   UNL     1       7.830   7.928  18.026  0.00  0.00    +0.000 A 
ATOM      6  C   UNL     1       6.712   7.500  17.296  0.00  0.00    +0.000 A 
ENDROOT
BRANCH   5   7
ATOM      7  N   UNL     1       8.322   9.225  17.794  0.00  0.00    +0.000 N 
ATOM      8  C   UNL     1       8.965  10.041  18.716  0.00  0.00    +0.000 C 
ATOM      9  O   UNL     1       9.214   9.756  19.885  0.00  0.00    +0.000 OA
ATOM     10  H   UNL     1       8.321   9.588  16.845  0.00  0.00    +0.000 HD
BRANCH   8  11
ATOM     11  C   UNL     1       9.391  11.366  18.184  0.00  0.00    +0.000 A 
ATOM     12  C   UNL     1      10.738  11.567  17.863  0.00  0.00    +0.000 A 
ATOM     13  C   UNL     1      11.058  12.843  17.505  0.00  0.00    +0.000 A 
ATOM     14  C   UNL     1      10.113  13.832  17.507  0.00  0.00    +0.000 A 
ATOM     15  C   UNL     1       8.802  13.576  17.745  0.00  0.00    +0.000 A 
ATOM     16  N   UNL     1       8.403  12.328  18.089  0.00  0.00    +0.000 NA
ATOM     17  N   UNL     1      11.017  14.803  17.305  0.00  0.00    +0.000 N 
ATOM     18  C   UNL     1      10.731  15.947  16.481  0.00  0.00    +0.000 C 
ATOM     19  C   UNL     1      12.067  13.834  17.031  0.00  0.00    +0.000 C 
ENDBRANCH   8  11
ENDBRANCH   5   7
BRANCH   1  21
ATOM     20  C   UNL     1       5.231   6.001  15.071  0.00  0.00    +0.000 C 
ATOM     21  C   UNL     1       5.086   5.642  16.555  0.00  0.00    +0.000 C 
BRANCH  21  22
ATOM     22  C   UNL     1       4.951   4.119  16.787  0.00  0.00    +0.000 C 
BRANCH  22  23
ATOM     23  C   UNL     1       3.643   3.735  17.391  0.00  0.00    +0.000 A 
ATOM     24  N   UNL     1       2.465   3.825  16.802  0.00  0.00    +0.000 NA
ATOM     25  N   UNL     1       1.505   3.399  17.686  0.00  0.00    +0.000 NA
ATOM     26  C   UNL     1       2.115   3.048  18.794  0.00  0.00    +0.000 A 
ATOM     27  N   UNL     1       3.455   3.232  18.654  0.00  0.00    +0.000 N 
ATOM     28  C   UNL     1       4.457   2.946  19.645  0.00  0.00    +0.000 C 
ENDBRANCH  22  23
ENDBRANCH  21  22
ENDBRANCH   1  21
TORSDOF 5
ENDMDL
MODEL 6
REMARK VINA RESULT:      -8.0      3.871      5.484
REMARK  Name = 
REMARK  8 active torsions:
REMARK  status: ('A' for Active; 'I' for Inactive)
REMARK    1  A    between atoms: C_1  and  C_2
REMARK    2  A    between atoms: C_2  and  C_3
REMARK    3  A    between atoms: C_2  and  C_10
REMARK    4  A    between atoms: C_3  and  C_4
REMARK    5  A    between atoms: N_8  and  C_9
REMARK    6  A    between atoms: C_14  and  N_15
REMARK    7  A    between atoms: C_16  and  C_18
REMARK    8  A    between atoms: N_24  and  C_25
REMARK                            x       y       z     vdW  Elec       q    Type
REMARK                         _______ _______ _______ _____ _____    ______ ____
ROOT
ATOM      1  C   UNL     1       2.198   7.223  19.681  0.00  0.00    +0.000 A 
ATOM      2  C   UNL     1       2.376   7.489  18.314  0.00  0.00    +0.000 A 
ATOM      3  C   UNL     1       1.927   8.684  17.759  0.00  0.00    +0.000 A 
ATOM      4  C   UNL     1       1.263   9.618  18.552  0.00  0.00    +0.000 A 
ATOM      5  C   UNL     1       1.038   9.368  19.907  0.00  0.00    +0.000 A 
ATOM      6  C   UNL     1       1.539   8.187  20.472  0.00  0.00    +0.000 A 
ENDROOT
BRANCH   5   7
ATOM      7  N   UNL     1       0.310  10.246  20.730  0.00  0.00    +0.000 N 
ATOM      8  C   UNL     1       0.714  11.503  21.158  0.00  0.00    +0.000 C 
ATOM      9  O   UNL     1       1.774  12.056  20.878  0.00  0.00    +0.000 OA
ATOM     10  H   UNL     1      -0.652  10.014  20.964  0.00  0.00    +0.000 HD
BRANCH   8  11
ATOM     11  C   UNL     1      -0.273  12.217  22.016  0.00  0.00    +0.000 A 
ATOM     12  C   UNL     1      -1.411  11.532  22.455  0.00  0.00    +0.000 A 
ATOM     13  C   UNL     1      -2.318  12.297  23.127  0.00  0.00    +0.000 A 
ATOM     14  C   UNL     1      -2.111  13.637  23.307  0.00  0.00    +0.000 A 
ATOM     15  C   UNL     1      -0.955  14.244  22.937  0.00  0.00    +0.000 A 
ATOM     16  N   UNL     1       0.002  13.545  22.281  0.00  0.00    +0.000 NA
ATOM     17  N   UNL     1      -3.347  13.842  23.789  0.00  0.00    +0.000 N 
ATOM     18  C   UNL     1      -3.603  14.785  24.845  0.00  0.00    +0.000 C 
ATOM     19  C   UNL     1      -3.598  12.413  23.884  0.00  0.00    +0.000 C 
ENDBRANCH   8  11
ENDBRANCH   5   7
BRANCH   1  21
ATOM     20  C   UNL     1       1.492   4.910  20.495  0.00  0.00    +0.000 C 
ATOM     21  C   UNL     1       2.654   5.875  20.230  0.00  0.00    +0.000 C 
BRANCH  21  22
ATOM     22  C   UNL     1       3.722   5.274  19.287  0.00  0.00    +0.000 C 
BRANCH  22  23
ATOM     23  C   UNL     1       3.263   4.034  18.601  0.00  0.00    +0.000 A 
ATOM     24  N   UNL     1       2.495   3.984  17.528  0.00  0.00    +0.000 NA
ATOM     25  N   UNL     1       2.275   2.666  17.213  0.00  0.00    +0.000 NA
ATOM     26  C   UNL     1       2.920   1.936  18.093  0.00  0.00    +0.000 A 
ATOM     27  N   UNL     1       3.561   2.748  18.976  0.00  0.00    +0.000 N 
ATOM     28  C   UNL     1       4.384   2.320  20.075  0.00  0.00    +0.000 C 
ENDBRANCH  22  23
ENDBRANCH  21  22
ENDBRANCH   1  21
TORSDOF 5
ENDMDL
MODEL 7
REMARK VINA RESULT:      -8.0      5.307      7.325
REMARK  Name = 
REMARK  8 active torsions:
REMARK  status: ('A' for Active; 'I' for Inactive)
REMARK    1  A    between atoms: C_1  and  C_2
REMARK    2  A    between atoms: C_2  and  C_3
REMARK    3  A    between atoms: C_2  and  C_10
REMARK    4  A    between atoms: C_3  and  C_4
REMARK    5  A    between atoms: N_8  and  C_9
REMARK    6  A    between atoms: C_14  and  N_15
REMARK    7  A    between atoms: C_16  and  C_18
REMARK    8  A    between atoms: N_24  and  C_25
REMARK                            x       y       z     vdW  Elec       q    Type
REMARK                         _______ _______ _______ _____ _____    ______ ____
ROOT
ATOM      1  C   UNL     1       4.440   5.454  17.185  0.00  0.00    +0.000 A 
ATOM      2  C   UNL     1       4.971   4.570  16.232  0.00  0.00    +0.000 A 
ATOM      3  C   UNL     1       6.216   4.810  15.658  0.00  0.00    +0.000 A 
ATOM      4  C   UNL     1       6.936   5.953  16.001  0.00  0.00    +0.000 A 
ATOM      5  C   UNL     1       6.420   6.870  16.919  0.00  0.00    +0.000 A 
ATOM      6  C   UNL     1       5.189   6.596  17.532  0.00  0.00    +0.000 A 
ENDROOT
BRANCH   5   7
ATOM      7  N   UNL     1       7.075   8.072  17.242  0.00  0.00    +0.000 N 
ATOM      8  C   UNL     1       8.062   8.242  18.203  0.00  0.00    +0.000 C 
ATOM      9  O   UNL     1       8.529   7.364  18.924  0.00  0.00    +0.000 OA
ATOM     10  H   UNL     1       6.911   8.891  16.662  0.00  0.00    +0.000 HD
BRANCH   8  11
ATOM     11  C   UNL     1       8.586   9.632  18.319  0.00  0.00    +0.000 A 
ATOM     12  C   UNL     1       9.528   9.921  19.312  0.00  0.00    +0.000 A 
ATOM     13  C   UNL     1       9.856  11.240  19.425  0.00  0.00    +0.000 A 
ATOM     14  C   UNL     1       9.260  12.183  18.633  0.00  0.00    +0.000 A 
ATOM     15  C   UNL     1       8.413  11.849  17.627  0.00  0.00    +0.000 A 
ATOM     16  N   UNL     1       8.054  10.556  17.439  0.00  0.00    +0.000 NA
ATOM     17  N   UNL     1       9.787  13.207  19.322  0.00  0.00    +0.000 N 
ATOM     18  C   UNL     1      10.215  14.418  18.673  0.00  0.00    +0.000 C 
ATOM     19  C   UNL     1      10.666  12.317  20.063  0.00  0.00    +0.000 C 
ENDBRANCH   8  11
ENDBRANCH   5   7
BRANCH   1  21
ATOM     20  C   UNL     1       2.415   3.899  17.178  0.00  0.00    +0.000 C 
ATOM     21  C   UNL     1       3.046   5.179  17.740  0.00  0.00    +0.000 C 
BRANCH  21  22
ATOM     22  C   UNL     1       3.102   5.185  19.286  0.00  0.00    +0.000 C 
BRANCH  22  23
ATOM     23  C   UNL     1       3.606   3.903  19.855  0.00  0.00    +0.000 A 
ATOM     24  N   UNL     1       4.824   3.417  19.704  0.00  0.00    +0.000 NA
ATOM     25  N   UNL     1       4.895   2.211  20.356  0.00  0.00    +0.000 NA
ATOM     26  C   UNL     1       3.722   1.988  20.901  0.00  0.00    +0.000 A 
ATOM     27  N   UNL     1       2.885   3.023  20.623  0.00  0.00    +0.000 N 
ATOM     28  C   UNL     1       1.521   3.150  21.060  0.00  0.00    +0.000 C 
ENDBRANCH  22  23
ENDBRANCH  21  22
ENDBRANCH   1  21
TORSDOF 5
ENDMDL
MODEL 8
REMARK VINA RESULT:      -8.0      2.764      4.972
REMARK  Name = 
REMARK  8 active torsions:
REMARK  status: ('A' for Active; 'I' for Inactive)
REMARK    1  A    between atoms: C_1  and  C_2
REMARK    2  A    between atoms: C_2  and  C_3
REMARK    3  A    between atoms: C_2  and  C_10
REMARK    4  A    between atoms: C_3  and  C_4
REMARK    5  A    between atoms: N_8  and  C_9
REMARK    6  A    between atoms: C_14  and  N_15
REMARK    7  A    between atoms: C_16  and  C_18
REMARK    8  A    between atoms: N_24  and  C_25
REMARK                            x       y       z     vdW  Elec       q    Type
REMARK                         _______ _______ _______ _____ _____    ______ ____
ROOT
ATOM      1  C   UNL     1       2.253   7.396  19.415  0.00  0.00    +0.000 A 
ATOM      2  C   UNL     1       2.409   7.732  18.061  0.00  0.00    +0.000 A 
ATOM      3  C   UNL     1       1.944   8.950  17.574  0.00  0.00    +0.000 A 
ATOM      4  C   UNL     1       1.285   9.838  18.423  0.00  0.00    +0.000 A 
ATOM      5  C   UNL     1       1.082   9.518  19.766  0.00  0.00    +0.000 A 
ATOM      6  C   UNL     1       1.599   8.313  20.263  0.00  0.00    +0.000 A 
ENDROOT
BRANCH   5   7
ATOM      7  N   UNL     1       0.360  10.348  20.644  0.00  0.00    +0.000 N 
ATOM      8  C   UNL     1       0.736  11.609  21.084  0.00  0.00    +0.000 C 
ATOM      9  O   UNL     1       1.761  12.210  20.770  0.00  0.00    +0.000 OA
ATOM     10  H   UNL     1      -0.581  10.074  20.915  0.00  0.00    +0.000 HD
BRANCH   8  11
ATOM     11  C   UNL     1      -0.236  12.264  22.003  0.00  0.00    +0.000 A 
ATOM     12  C   UNL     1      -1.398  11.575  22.365  0.00  0.00    +0.000 A 
ATOM     13  C   UNL     1      -2.287  12.297  23.106  0.00  0.00    +0.000 A 
ATOM     14  C   UNL     1      -2.041  13.605  23.419  0.00  0.00    +0.000 A 
ATOM     15  C   UNL     1      -0.865  14.210  23.118  0.00  0.00    +0.000 A 
ATOM     16  N   UNL     1       0.076  13.551  22.401  0.00  0.00    +0.000 NA
ATOM     17  N   UNL     1      -3.275  13.799  23.912  0.00  0.00    +0.000 N 
ATOM     18  C   UNL     1      -3.512  14.640  25.055  0.00  0.00    +0.000 C 
ATOM     19  C   UNL     1      -3.570  12.376  23.863  0.00  0.00    +0.000 C 
ENDBRANCH   8  11
ENDBRANCH   5   7
BRANCH   1  21
ATOM     20  C   UNL     1       1.679   5.286  20.732  0.00  0.00    +0.000 C 
ATOM     21  C   UNL     1       2.725   6.025  19.889  0.00  0.00    +0.000 C 
BRANCH  21  22
ATOM     22  C   UNL     1       3.198   5.199  18.670  0.00  0.00    +0.000 C 
BRANCH  22  23
ATOM     23  C   UNL     1       4.679   5.039  18.613  0.00  0.00    +0.000 A 
ATOM     24  N   UNL     1       5.514   5.225  19.617  0.00  0.00    +0.000 NA
ATOM     25  N   UNL     1       6.791   5.003  19.166  0.00  0.00    +0.000 NA
ATOM     26  C   UNL     1       6.711   4.676  17.897  0.00  0.00    +0.000 A 
ATOM     27  N   UNL     1       5.407   4.676  17.508  0.00  0.00    +0.000 N 
ATOM     28  C   UNL     1       4.916   4.352  16.196  0.00  0.00    +0.000 C 
ENDBRANCH  22  23
ENDBRANCH  21  22
ENDBRANCH   1  21
TORSDOF 5
ENDMDL
MODEL 9
REMARK VINA RESULT:      -8.0      4.019      5.556
REMARK  Name = 
REMARK  8 active torsions:
REMARK  status: ('A' for Active; 'I' for Inactive)
REMARK    1  A    between atoms: C_1  and  C_2
REMARK    2  A    between atoms: C_2  and  C_3
REMARK    3  A    between atoms: C_2  and  C_10
REMARK    4  A    between atoms: C_3  and  C_4
REMARK    5  A    between atoms: N_8  and  C_9
REMARK    6  A    between atoms: C_14  and  N_15
REMARK    7  A    between atoms: C_16  and  C_18
REMARK    8  A    between atoms: N_24  and  C_25
REMARK                            x       y       z     vdW  Elec       q    Type
REMARK                         _______ _______ _______ _____ _____    ______ ____
ROOT
ATOM      1  C   UNL     1       2.168   7.454  19.434  0.00  0.00    +0.000 A 
ATOM      2  C   UNL     1       2.308   7.778  18.075  0.00  0.00    +0.000 A 
ATOM      3  C   UNL     1       1.834   8.990  17.583  0.00  0.00    +0.000 A 
ATOM      4  C   UNL     1       1.183   9.884  18.431  0.00  0.00    +0.000 A 
ATOM      5  C   UNL     1       0.995   9.576  19.779  0.00  0.00    +0.000 A 
ATOM      6  C   UNL     1       1.521   8.377  20.281  0.00  0.00    +0.000 A 
ENDROOT
BRANCH   5   7
ATOM      7  N   UNL     1       0.281  10.412  20.657  0.00  0.00    +0.000 N 
ATOM      8  C   UNL     1       0.706  11.633  21.163  0.00  0.00    +0.000 C 
ATOM      9  O   UNL     1       1.775  12.186  20.917  0.00  0.00    +0.000 OA
ATOM     10  H   UNL     1      -0.684  10.181  20.878  0.00  0.00    +0.000 HD
BRANCH   8  11
ATOM     11  C   UNL     1      -0.269  12.306  22.066  0.00  0.00    +0.000 A 
ATOM     12  C   UNL     1      -1.431  11.623  22.440  0.00  0.00    +0.000 A 
ATOM     13  C   UNL     1      -2.323  12.360  23.163  0.00  0.00    +0.000 A 
ATOM     14  C   UNL     1      -2.079  13.676  23.448  0.00  0.00    +0.000 A 
ATOM     15  C   UNL     1      -0.903  14.276  23.135  0.00  0.00    +0.000 A 
ATOM     16  N   UNL     1       0.041  13.602  22.435  0.00  0.00    +0.000 NA
ATOM     17  N   UNL     1      -3.314  13.879  23.933  0.00  0.00    +0.000 N 
ATOM     18  C   UNL     1      -3.554  14.745  25.057  0.00  0.00    +0.000 C 
ATOM     19  C   UNL     1      -3.607  12.455  23.915  0.00  0.00    +0.000 C 
ENDBRANCH   8  11
ENDBRANCH   5   7
BRANCH   1  21
ATOM     20  C   UNL     1       1.581   5.314  20.696  0.00  0.00    +0.000 C 
ATOM     21  C   UNL     1       2.649   6.088  19.914  0.00  0.00    +0.000 C 
BRANCH  21  22
ATOM     22  C   UNL     1       3.201   5.289  18.710  0.00  0.00    +0.000 C 
BRANCH  22  23
ATOM     23  C   UNL     1       3.719   3.944  19.091  0.00  0.00    +0.000 A 
ATOM     24  N   UNL     1       4.856   3.704  19.718  0.00  0.00    +0.000 NA
ATOM     25  N   UNL     1       4.989   2.347  19.868  0.00  0.00    +0.000 NA
ATOM     26  C   UNL     1       3.928   1.784  19.340  0.00  0.00    +0.000 A 
ATOM     27  N   UNL     1       3.099   2.744  18.849  0.00  0.00    +0.000 N 
ATOM     28  C   UNL     1       1.830   2.521  18.211  0.00  0.00    +0.000 C 
ENDBRANCH  22  23
ENDBRANCH  21  22
ENDBRANCH   1  21
TORSDOF 5
ENDMDL
