MODEL 1
REMARK VINA RESULT:      -8.2      0.000      0.000
REMARK  Name = 
REMARK  9 active torsions:
REMARK  status: ('A' for Active; 'I' for Inactive)
REMARK    1  A    between atoms: C_1  and  C_2
REMARK    2  A    between atoms: C_9  and  C_10
REMARK    3  A    between atoms: N_12  and  C_13
REMARK    4  A    between atoms: C_15  and  C_16
REMARK    5  A    between atoms: N_18  and  C_19
REMARK    6  A    between atoms: N_18  and  C_20
REMARK    7  A    between atoms: C_20  and  C_21
REMARK    8  A    between atoms: C_20  and  C_22
REMARK    9  A    between atoms: C_29  and  C_30
REMARK                            x       y       z     vdW  Elec       q    Type
REMARK                         _______ _______ _______ _____ _____    ______ ____
ROOT
ATOM      1  C   UNL     1       2.381   8.110  18.285  0.00  0.00    +0.000 C 
ATOM      2  O   UNL     1       2.162   8.911  17.377  0.00  0.00    +0.000 OA
ATOM      3  N   UNL     1       1.746   8.121  19.519  0.00  0.00    +0.000 N 
ATOM      4  H   UNL     1       2.136   7.517  20.249  0.00  0.00    +0.000 HD
ENDROOT
BRANCH   1  13
ATOM      5  C   UNL     1       3.076   1.582  18.854  0.00  0.00    +0.000 C 
ATOM      6  C   UNL     1       3.140   3.065  18.672  0.00  0.00    +0.000 A 
ATOM      7  N   UNL     1       4.278   3.560  18.128  0.00  0.00    +0.000 NA
ATOM      8  C   UNL     1       4.358   4.883  17.925  0.00  0.00    +0.000 A 
ATOM      9  C   UNL     1       5.517   5.386  17.357  0.00  0.00    +0.000 A 
ATOM     10  C   UNL     1       5.657   6.744  17.129  0.00  0.00    +0.000 A 
ATOM     11  F   UNL     1       6.780   7.221  16.581  0.00  0.00    +0.000 F 
ATOM     12  C   UNL     1       4.634   7.609  17.454  0.00  0.00    +0.000 A 
ATOM     13  C   UNL     1       3.446   7.109  18.016  0.00  0.00    +0.000 A 
ATOM     14  C   UNL     1       3.291   5.746  18.276  0.00  0.00    +0.000 A 
ATOM     15  N   UNL     1       2.168   5.242  18.841  0.00  0.00    +0.000 NA
ATOM     16  C   UNL     1       2.091   3.903  19.031  0.00  0.00    +0.000 A 
ATOM     17  C   UNL     1       0.827   3.383  19.638  0.00  0.00    +0.000 C 
ENDBRANCH   1  13
BRANCH   3  18
ATOM     18  C   UNL     1       0.790   9.096  19.926  0.00  0.00    +0.000 A 
ATOM     19  C   UNL     1      -0.166   9.561  19.018  0.00  0.00    +0.000 A 
ATOM     20  C   UNL     1      -0.862  10.745  19.239  0.00  0.00    +0.000 A 
ATOM     21  C   UNL     1      -0.804  11.323  20.512  0.00  0.00    +0.000 A 
ATOM     22  C   UNL     1       0.008  10.761  21.506  0.00  0.00    +0.000 A 
ATOM     23  C   UNL     1       0.828   9.669  21.203  0.00  0.00    +0.000 A 
ATOM     24 CL   UNL     1       1.916   9.110  22.418  0.00  0.00    +0.000 Cl
BRANCH  20  25
ATOM     25  C   UNL     1      -1.658  11.414  18.161  0.00  0.00    +0.000 C 
ATOM     26  O   UNL     1      -1.225  12.495  17.758  0.00  0.00    +0.000 OA
ATOM     27  N   UNL     1      -2.812  10.817  17.610  0.00  0.00    +0.000 N 
ATOM     28  C   UNL     1      -3.284   9.461  17.896  0.00  0.00    +0.000 C 
BRANCH  27  29
ATOM     29  C   UNL     1      -3.500  11.536  16.521  0.00  0.00    +0.000 C 
ATOM     30  C   UNL     1      -3.364  10.758  15.207  0.00  0.00    +0.000 C 
ATOM     31  C   UNL     1      -4.978  11.830  16.811  0.00  0.00    +0.000 C 
ENDBRANCH  27  29
ENDBRANCH  20  25
ENDBRANCH   3  18
TORSDOF 4
ENDMDL
MODEL 2
REMARK VINA RESULT:      -7.9      3.327      4.766
REMARK  Name = 
REMARK  9 active torsions:
REMARK  status: ('A' for Active; 'I' for Inactive)
REMARK    1  A    between atoms: C_1  and  C_2
REMARK    2  A    between atoms: C_9  and  C_10
REMARK    3  A    between atoms: N_12  and  C_13
REMARK    4  A    between atoms: C_15  and  C_16
REMARK    5  A    between atoms: N_18  and  C_19
REMARK    6  A    between atoms: N_18  and  C_20
REMARK    7  A    between atoms: C_20  and  C_21
REMARK    8  A    between atoms: C_20  and  C_22
REMARK    9  A    between atoms: C_29  and  C_30
REMARK                            x       y       z     vdW  Elec       q    Type
REMARK                         _______ _______ _______ _____ _____    ______ ____
ROOT
ATOM      1  C   UNL     1       1.569   6.390  20.420  0.00  0.00    +0.000 C 
ATOM      2  O   UNL     1       0.360   6.234  20.585  0.00  0.00    +0.000 OA
ATOM      3  N   UNL     1       2.188   7.616  20.216  0.00  0.00    +0.000 N 
ATOM      4  H   UNL     1       3.168   7.599  19.919  0.00  0.00    +0.000 HD
ENDROOT
BRANCH   1  13
ATOM      5  C   UNL     1       7.120   4.345  17.518  0.00  0.00    +0.000 C 
ATOM      6  C   UNL     1       5.839   4.594  18.247  0.00  0.00    +0.000 A 
ATOM      7  N   UNL     1       5.390   3.592  19.042  0.00  0.00    +0.000 NA
ATOM      8  C   UNL     1       4.257   3.792  19.731  0.00  0.00    +0.000 A 
ATOM      9  C   UNL     1       3.806   2.771  20.553  0.00  0.00    +0.000 A 
ATOM     10  C   UNL     1       2.642   2.921  21.284  0.00  0.00    +0.000 A 
ATOM     11  F   UNL     1       2.213   1.929  22.074  0.00  0.00    +0.000 F 
ATOM     12  C   UNL     1       1.924   4.095  21.212  0.00  0.00    +0.000 A 
ATOM     13  C   UNL     1       2.380   5.145  20.394  0.00  0.00    +0.000 A 
ATOM     14  C   UNL     1       3.540   5.009  19.630  0.00  0.00    +0.000 A 
ATOM     15  N   UNL     1       3.986   5.993  18.814  0.00  0.00    +0.000 NA
ATOM     16  C   UNL     1       5.138   5.787  18.131  0.00  0.00    +0.000 A 
ATOM     17  C   UNL     1       5.609   6.907  17.257  0.00  0.00    +0.000 C 
ENDBRANCH   1  13
BRANCH   3  18
ATOM     18  C   UNL     1       1.500   8.859  20.114  0.00  0.00    +0.000 A 
ATOM     19  C   UNL     1       1.036   9.499  21.268  0.00  0.00    +0.000 A 
ATOM     20  C   UNL     1       0.064  10.492  21.207  0.00  0.00    +0.000 A 
ATOM     21  C   UNL     1      -0.245  11.045  19.958  0.00  0.00    +0.000 A 
ATOM     22  C   UNL     1       0.356  10.543  18.797  0.00  0.00    +0.000 A 
ATOM     23  C   UNL     1       1.202   9.430  18.872  0.00  0.00    +0.000 A 
ATOM     24 CL   UNL     1       1.795   8.762  17.397  0.00  0.00    +0.000 Cl
BRANCH  20  25
ATOM     25  C   UNL     1      -0.660  10.974  22.426  0.00  0.00    +0.000 C 
ATOM     26  O   UNL     1      -0.620  10.234  23.410  0.00  0.00    +0.000 OA
ATOM     27  N   UNL     1      -1.312  12.226  22.456  0.00  0.00    +0.000 N 
ATOM     28  C   UNL     1      -1.250  13.241  21.403  0.00  0.00    +0.000 C 
BRANCH  27  29
ATOM     29  C   UNL     1      -1.958  12.630  23.720  0.00  0.00    +0.000 C 
ATOM     30  C   UNL     1      -1.678  14.108  24.007  0.00  0.00    +0.000 C 
ATOM     31  C   UNL     1      -3.469  12.360  23.756  0.00  0.00    +0.000 C 
ENDBRANCH  27  29
ENDBRANCH  20  25
ENDBRANCH   3  18
TORSDOF 4
ENDMDL
MODEL 3
REMARK VINA RESULT:      -7.9      2.465      3.344
REMARK  Name = 
REMARK  9 active torsions:
REMARK  status: ('A' for Active; 'I' for Inactive)
REMARK    1  A    between atoms: C_1  and  C_2
REMARK    2  A    between atoms: C_9  and  C_10
REMARK    3  A    between atoms: N_12  and  C_13
REMARK    4  A    between atoms: C_15  and  C_16
REMARK    5  A    between atoms: N_18  and  C_19
REMARK    6  A    between atoms: N_18  and  C_20
REMARK    7  A    between atoms: C_20  and  C_21
REMARK    8  A    between atoms: C_20  and  C_22
REMARK    9  A    between atoms: C_29  and  C_30
REMARK                            x       y       z     vdW  Elec       q    Type
REMARK                         _______ _______ _______ _____ _____    ______ ____
ROOT
ATOM      1  C   UNL     1       2.357   8.229  18.133  0.00  0.00    +0.000 C 
ATOM      2  O   UNL     1       2.110   8.916  17.144  0.00  0.00    +0.000 OA
ATOM      3  N   UNL     1       1.822   8.440  19.396  0.00  0.00    +0.000 N 
ATOM      4  H   UNL     1       2.235   7.913  20.172  0.00  0.00    +0.000 HD
ENDROOT
BRANCH   1  13
ATOM      5  C   UNL     1       2.789   1.817  19.588  0.00  0.00    +0.000 C 
ATOM      6  C   UNL     1       2.907   3.253  19.187  0.00  0.00    +0.000 A 
ATOM      7  N   UNL     1       4.015   3.597  18.486  0.00  0.00    +0.000 NA
ATOM      8  C   UNL     1       4.139   4.872  18.088  0.00  0.00    +0.000 A 
ATOM      9  C   UNL     1       5.266   5.220  17.361  0.00  0.00    +0.000 A 
ATOM     10  C   UNL     1       5.449   6.520  16.927  0.00  0.00    +0.000 A 
ATOM     11  F   UNL     1       6.541   6.848  16.227  0.00  0.00    +0.000 F 
ATOM     12  C   UNL     1       4.502   7.482  17.204  0.00  0.00    +0.000 A 
ATOM     13  C   UNL     1       3.345   7.138  17.928  0.00  0.00    +0.000 A 
ATOM     14  C   UNL     1       3.150   5.837  18.394  0.00  0.00    +0.000 A 
ATOM     15  N   UNL     1       2.059   5.486  19.116  0.00  0.00    +0.000 NA
ATOM     16  C   UNL     1       1.936   4.193  19.504  0.00  0.00    +0.000 A 
ATOM     17  C   UNL     1       0.707   3.840  20.280  0.00  0.00    +0.000 C 
ENDBRANCH   1  13
BRANCH   3  18
ATOM     18  C   UNL     1       0.951   9.516  19.734  0.00  0.00    +0.000 A 
ATOM     19  C   UNL     1       0.987  10.703  18.997  0.00  0.00    +0.000 A 
ATOM     20  C   UNL     1       0.447  11.885  19.496  0.00  0.00    +0.000 A 
ATOM     21  C   UNL     1      -0.383  11.814  20.621  0.00  0.00    +0.000 A 
ATOM     22  C   UNL     1      -0.589  10.589  21.270  0.00  0.00    +0.000 A 
ATOM     23  C   UNL     1       0.104   9.449  20.847  0.00  0.00    +0.000 A 
ATOM     24 CL   UNL     1      -0.071   8.004  21.771  0.00  0.00    +0.000 Cl
BRANCH  20  25
ATOM     25  C   UNL     1       0.733  13.216  18.874  0.00  0.00    +0.000 C 
ATOM     26  O   UNL     1      -0.101  13.629  18.066  0.00  0.00    +0.000 OA
ATOM     27  N   UNL     1       1.872  13.972  19.227  0.00  0.00    +0.000 N 
ATOM     28  C   UNL     1       2.806  13.645  20.305  0.00  0.00    +0.000 C 
BRANCH  27  29
ATOM     29  C   UNL     1       2.040  15.293  18.589  0.00  0.00    +0.000 C 
ATOM     30  C   UNL     1       1.970  16.400  19.645  0.00  0.00    +0.000 C 
ATOM     31  C   UNL     1       3.330  15.423  17.769  0.00  0.00    +0.000 C 
ENDBRANCH  27  29
ENDBRANCH  20  25
ENDBRANCH   3  18
TORSDOF 4
ENDMDL
MODEL 4
REMARK VINA RESULT:      -7.7      2.558      3.275
REMARK  Name = 
REMARK  9 active torsions:
REMARK  status: ('A' for Active; 'I' for Inactive)
REMARK    1  A    between atoms: C_1  and  C_2
REMARK    2  A    between atoms: C_9  and  C_10
REMARK    3  A    between atoms: N_12  and  C_13
REMARK    4  A    between atoms: C_15  and  C_16
REMARK    5  A    between atoms: N_18  and  C_19
REMARK    6  A    between atoms: N_18  and  C_20
REMARK    7  A    between atoms: C_20  and  C_21
REMARK    8  A    between atoms: C_20  and  C_22
REMARK    9  A    between atoms: C_29  and  C_30
REMARK                            x       y       z     vdW  Elec       q    Type
REMARK                         _______ _______ _______ _____ _____    ______ ____
ROOT
ATOM      1  C   UNL     1       2.107   8.283  18.340  0.00  0.00    +0.000 C 
ATOM      2  O   UNL     1       1.631   8.953  17.425  0.00  0.00    +0.000 OA
ATOM      3  N   UNL     1       1.871   8.506  19.689  0.00  0.00    +0.000 N 
ATOM      4  H   UNL     1       2.458   7.996  20.356  0.00  0.00    +0.000 HD
ENDROOT
BRANCH   1  13
ATOM      5  C   UNL     1       2.608   1.780  19.283  0.00  0.00    +0.000 C 
ATOM      6  C   UNL     1       2.698   3.239  18.968  0.00  0.00    +0.000 A 
ATOM      7  N   UNL     1       3.706   3.621  18.147  0.00  0.00    +0.000 NA
ATOM      8  C   UNL     1       3.800   4.919  17.823  0.00  0.00    +0.000 A 
ATOM      9  C   UNL     1       4.824   5.305  16.973  0.00  0.00    +0.000 A 
ATOM     10  C   UNL     1       4.972   6.631  16.608  0.00  0.00    +0.000 A 
ATOM     11  F   UNL     1       5.964   6.996  15.788  0.00  0.00    +0.000 F 
ATOM     12  C   UNL     1       4.090   7.581  17.077  0.00  0.00    +0.000 A 
ATOM     13  C   UNL     1       3.036   7.199  17.927  0.00  0.00    +0.000 A 
ATOM     14  C   UNL     1       2.881   5.871  18.327  0.00  0.00    +0.000 A 
ATOM     15  N   UNL     1       1.892   5.481  19.166  0.00  0.00    +0.000 NA
ATOM     16  C   UNL     1       1.797   4.165  19.479  0.00  0.00    +0.000 A 
ATOM     17  C   UNL     1       0.679   3.771  20.391  0.00  0.00    +0.000 C 
ENDBRANCH   1  13
BRANCH   3  18
ATOM     18  C   UNL     1       1.087   9.578  20.204  0.00  0.00    +0.000 A 
ATOM     19  C   UNL     1       1.413  10.900  19.886  0.00  0.00    +0.000 A 
ATOM     20  C   UNL     1       0.930  11.969  20.636  0.00  0.00    +0.000 A 
ATOM     21  C   UNL     1      -0.111  11.730  21.540  0.00  0.00    +0.000 A 
ATOM     22  C   UNL     1      -0.589  10.427  21.738  0.00  0.00    +0.000 A 
ATOM     23  C   UNL     1       0.032   9.350  21.096  0.00  0.00    +0.000 A 
ATOM     24 CL   UNL     1      -0.498   7.757  21.489  0.00  0.00    +0.000 Cl
BRANCH  20  25
ATOM     25  C   UNL     1       1.494  13.350  20.508  0.00  0.00    +0.000 C 
ATOM     26  O   UNL     1       2.473  13.605  21.212  0.00  0.00    +0.000 OA
ATOM     27  N   UNL     1       0.958  14.290  19.602  0.00  0.00    +0.000 N 
ATOM     28  C   UNL     1      -0.076  14.012  18.604  0.00  0.00    +0.000 C 
BRANCH  27  29
ATOM     29  C   UNL     1       1.613  15.610  19.519  0.00  0.00    +0.000 C 
ATOM     30  C   UNL     1       2.585  15.643  18.335  0.00  0.00    +0.000 C 
ATOM     31  C   UNL     1       0.628  16.784  19.429  0.00  0.00    +0.000 C 
ENDBRANCH  27  29
ENDBRANCH  20  25
ENDBRANCH   3  18
TORSDOF 4
ENDMDL
MODEL 5
REMARK VINA RESULT:      -7.5      1.854      2.186
REMARK  Name = 
REMARK  9 active torsions:
REMARK  status: ('A' for Active; 'I' for Inactive)
REMARK    1  A    between atoms: C_1  and  C_2
REMARK    2  A    between atoms: C_9  and  C_10
REMARK    3  A    between atoms: N_12  and  C_13
REMARK    4  A    between atoms: C_15  and  C_16
REMARK    5  A    between atoms: N_18  and  C_19
REMARK    6  A    between atoms: N_18  and  C_20
REMARK    7  A    between atoms: C_20  and  C_21
REMARK    8  A    between atoms: C_20  and  C_22
REMARK    9  A    between atoms: C_29  and  C_30
REMARK                            x       y       z     vdW  Elec       q    Type
REMARK                         _______ _______ _______ _____ _____    ______ ____
ROOT
ATOM      1  C   UNL     1       2.016   8.315  18.633  0.00  0.00    +0.000 C 
ATOM      2  O   UNL     1       1.826   8.275  19.847  0.00  0.00    +0.000 OA
ATOM      3  N   UNL     1       1.435   9.234  17.771  0.00  0.00    +0.000 N 
ATOM      4  H   UNL     1       1.532   9.058  16.766  0.00  0.00    +0.000 HD
ENDROOT
BRANCH   1  13
ATOM      5  C   UNL     1       2.492   1.760  19.114  0.00  0.00    +0.000 C 
ATOM      6  C   UNL     1       2.580   3.236  18.889  0.00  0.00    +0.000 A 
ATOM      7  N   UNL     1       3.533   3.661  18.025  0.00  0.00    +0.000 NA
ATOM      8  C   UNL     1       3.622   4.976  17.780  0.00  0.00    +0.000 A 
ATOM      9  C   UNL     1       4.589   5.409  16.886  0.00  0.00    +0.000 A 
ATOM     10  C   UNL     1       4.728   6.754  16.597  0.00  0.00    +0.000 A 
ATOM     11  F   UNL     1       5.666   7.162  15.734  0.00  0.00    +0.000 F 
ATOM     12  C   UNL     1       3.895   7.679  17.189  0.00  0.00    +0.000 A 
ATOM     13  C   UNL     1       2.899   7.252  18.085  0.00  0.00    +0.000 A 
ATOM     14  C   UNL     1       2.754   5.902  18.408  0.00  0.00    +0.000 A 
ATOM     15  N   UNL     1       1.821   5.467  19.289  0.00  0.00    +0.000 NA
ATOM     16  C   UNL     1       1.730   4.135  19.521  0.00  0.00    +0.000 A 
ATOM     17  C   UNL     1       0.674   3.692  20.483  0.00  0.00    +0.000 C 
ENDBRANCH   1  13
BRANCH   3  18
ATOM     18  C   UNL     1       0.493  10.227  18.166  0.00  0.00    +0.000 A 
ATOM     19  C   UNL     1      -0.878   9.956  18.105  0.00  0.00    +0.000 A 
ATOM     20  C   UNL     1      -1.822  10.978  18.120  0.00  0.00    +0.000 A 
ATOM     21  C   UNL     1      -1.404  12.264  18.481  0.00  0.00    +0.000 A 
ATOM     22  C   UNL     1      -0.051  12.521  18.735  0.00  0.00    +0.000 A 
ATOM     23  C   UNL     1       0.900  11.511  18.546  0.00  0.00    +0.000 A 
ATOM     24 CL   UNL     1       2.565  11.921  18.729  0.00  0.00    +0.000 Cl
BRANCH  20  25
ATOM     25  C   UNL     1      -3.255  10.743  17.757  0.00  0.00    +0.000 C 
ATOM     26  O   UNL     1      -3.462   9.918  16.865  0.00  0.00    +0.000 OA
ATOM     27  N   UNL     1      -4.310  11.399  18.429  0.00  0.00    +0.000 N 
ATOM     28  C   UNL     1      -4.163  12.244  19.615  0.00  0.00    +0.000 C 
BRANCH  27  29
ATOM     29  C   UNL     1      -5.690  11.065  18.027  0.00  0.00    +0.000 C 
ATOM     30  C   UNL     1      -6.510  10.648  19.252  0.00  0.00    +0.000 C 
ATOM     31  C   UNL     1      -6.403  12.194  17.271  0.00  0.00    +0.000 C 
ENDBRANCH  27  29
ENDBRANCH  20  25
ENDBRANCH   3  18
TORSDOF 4
ENDMDL
MODEL 6
REMARK VINA RESULT:      -7.5      3.799      5.254
REMARK  Name = 
REMARK  9 active torsions:
REMARK  status: ('A' for Active; 'I' for Inactive)
REMARK    1  A    between atoms: C_1  and  C_2
REMARK    2  A    between atoms: C_9  and  C_10
REMARK    3  A    between atoms: N_12  and  C_13
REMARK    4  A    between atoms: C_15  and  C_16
REMARK    5  A    between atoms: N_18  and  C_19
REMARK    6  A    between atoms: N_18  and  C_20
REMARK    7  A    between atoms: C_20  and  C_21
REMARK    8  A    between atoms: C_20  and  C_22
REMARK    9  A    between atoms: C_29  and  C_30
REMARK                            x       y       z     vdW  Elec       q    Type
REMARK                         _______ _______ _______ _____ _____    ______ ____
ROOT
ATOM      1  C   UNL     1       1.776   8.073  19.801  0.00  0.00    +0.000 C 
ATOM      2  O   UNL     1       1.712   8.525  20.943  0.00  0.00    +0.000 OA
ATOM      3  N   UNL     1       1.540   8.805  18.646  0.00  0.00    +0.000 N 
ATOM      4  H   UNL     1       1.453   8.280  17.770  0.00  0.00    +0.000 HD
ENDROOT
BRANCH   1  13
ATOM      5  C   UNL     1       5.604   4.227  16.061  0.00  0.00    +0.000 C 
ATOM      6  C   UNL     1       4.653   4.905  16.995  0.00  0.00    +0.000 A 
ATOM      7  N   UNL     1       4.043   4.118  17.915  0.00  0.00    +0.000 NA
ATOM      8  C   UNL     1       3.205   4.699  18.786  0.00  0.00    +0.000 A 
ATOM      9  C   UNL     1       2.592   3.896  19.734  0.00  0.00    +0.000 A 
ATOM     10  C   UNL     1       1.715   4.439  20.656  0.00  0.00    +0.000 A 
ATOM     11  F   UNL     1       1.126   3.655  21.567  0.00  0.00    +0.000 F 
ATOM     12  C   UNL     1       1.453   5.793  20.647  0.00  0.00    +0.000 A 
ATOM     13  C   UNL     1       2.081   6.621  19.700  0.00  0.00    +0.000 A 
ATOM     14  C   UNL     1       2.952   6.092  18.747  0.00  0.00    +0.000 A 
ATOM     15  N   UNL     1       3.550   6.863  17.807  0.00  0.00    +0.000 NA
ATOM     16  C   UNL     1       4.405   6.270  16.939  0.00  0.00    +0.000 A 
ATOM     17  C   UNL     1       5.061   7.160  15.931  0.00  0.00    +0.000 C 
ENDBRANCH   1  13
BRANCH   3  18
ATOM     18  C   UNL     1       1.137  10.171  18.625  0.00  0.00    +0.000 A 
ATOM     19  C   UNL     1       2.027  11.170  19.032  0.00  0.00    +0.000 A 
ATOM     20  C   UNL     1       1.581  12.442  19.379  0.00  0.00    +0.000 A 
ATOM     21  C   UNL     1       0.269  12.801  19.050  0.00  0.00    +0.000 A 
ATOM     22  C   UNL     1      -0.591  11.865  18.461  0.00  0.00    +0.000 A 
ATOM     23  C   UNL     1      -0.168  10.543  18.281  0.00  0.00    +0.000 A 
ATOM     24 CL   UNL     1      -1.315   9.398  17.691  0.00  0.00    +0.000 Cl
BRANCH  20  25
ATOM     25  C   UNL     1       2.456  13.424  20.096  0.00  0.00    +0.000 C 
ATOM     26  O   UNL     1       2.568  13.266  21.313  0.00  0.00    +0.000 OA
ATOM     27  N   UNL     1       3.147  14.444  19.407  0.00  0.00    +0.000 N 
ATOM     28  C   UNL     1       3.219  14.586  17.952  0.00  0.00    +0.000 C 
BRANCH  27  29
ATOM     29  C   UNL     1       4.020  15.333  20.198  0.00  0.00    +0.000 C 
ATOM     30  C   UNL     1       5.476  15.178  19.748  0.00  0.00    +0.000 C 
ATOM     31  C   UNL     1       3.605  16.810  20.149  0.00  0.00    +0.000 C 
ENDBRANCH  27  29
ENDBRANCH  20  25
ENDBRANCH   3  18
TORSDOF 4
ENDMDL
MODEL 7
REMARK VINA RESULT:      -7.3      3.654      5.266
REMARK  Name = 
REMARK  9 active torsions:
REMARK  status: ('A' for Active; 'I' for Inactive)
REMARK    1  A    between atoms: C_1  and  C_2
REMARK    2  A    between atoms: C_9  and  C_10
REMARK    3  A    between atoms: N_12  and  C_13
REMARK    4  A    between atoms: C_15  and  C_16
REMARK    5  A    between atoms: N_18  and  C_19
REMARK    6  A    between atoms: N_18  and  C_20
REMARK    7  A    between atoms: C_20  and  C_21
REMARK    8  A    between atoms: C_20  and  C_22
REMARK    9  A    between atoms: C_29  and  C_30
REMARK                            x       y       z     vdW  Elec       q    Type
REMARK                         _______ _______ _______ _____ _____    ______ ____
ROOT
ATOM      1  C   UNL     1       2.042   7.865  18.726  0.00  0.00    +0.000 C 
ATOM      2  O   UNL     1       2.022   8.034  19.945  0.00  0.00    +0.000 OA
ATOM      3  N   UNL     1       1.685   8.825  17.789  0.00  0.00    +0.000 N 
ATOM      4  H   UNL     1       1.576   8.511  16.820  0.00  0.00    +0.000 HD
ENDROOT
BRANCH   1  13
ATOM      5  C   UNL     1       7.537   4.922  16.591  0.00  0.00    +0.000 C 
ATOM      6  C   UNL     1       6.185   5.394  17.021  0.00  0.00    +0.000 A 
ATOM      7  N   UNL     1       5.205   4.460  17.076  0.00  0.00    +0.000 NA
ATOM      8  C   UNL     1       3.987   4.845  17.484  0.00  0.00    +0.000 A 
ATOM      9  C   UNL     1       2.989   3.886  17.551  0.00  0.00    +0.000 A 
ATOM     10  C   UNL     1       1.713   4.226  17.961  0.00  0.00    +0.000 A 
ATOM     11  F   UNL     1       0.756   3.293  18.022  0.00  0.00    +0.000 F 
ATOM     12  C   UNL     1       1.425   5.526  18.320  0.00  0.00    +0.000 A 
ATOM     13  C   UNL     1       2.433   6.505  18.272  0.00  0.00    +0.000 A 
ATOM     14  C   UNL     1       3.722   6.189  17.840  0.00  0.00    +0.000 A 
ATOM     15  N   UNL     1       4.704   7.119  17.759  0.00  0.00    +0.000 NA
ATOM     16  C   UNL     1       5.935   6.719  17.357  0.00  0.00    +0.000 A 
ATOM     17  C   UNL     1       6.997   7.770  17.301  0.00  0.00    +0.000 C 
ENDBRANCH   1  13
BRANCH   3  18
ATOM     18  C   UNL     1       1.193  10.122  18.111  0.00  0.00    +0.000 A 
ATOM     19  C   UNL     1       2.060  11.093  18.623  0.00  0.00    +0.000 A 
ATOM     20  C   UNL     1       1.580  12.219  19.285  0.00  0.00    +0.000 A 
ATOM     21  C   UNL     1       0.216  12.516  19.189  0.00  0.00    +0.000 A 
ATOM     22  C   UNL     1      -0.649  11.648  18.511  0.00  0.00    +0.000 A 
ATOM     23  C   UNL     1      -0.166  10.437  18.002  0.00  0.00    +0.000 A 
ATOM     24 CL   UNL     1      -1.301   9.339  17.309  0.00  0.00    +0.000 Cl
BRANCH  20  25
ATOM     25  C   UNL     1       2.473  13.106  20.096  0.00  0.00    +0.000 C 
ATOM     26  O   UNL     1       2.539  12.857  21.301  0.00  0.00    +0.000 OA
ATOM     27  N   UNL     1       3.229  14.141  19.502  0.00  0.00    +0.000 N 
ATOM     28  C   UNL     1       3.353  14.383  18.064  0.00  0.00    +0.000 C 
BRANCH  27  29
ATOM     29  C   UNL     1       4.114  14.931  20.381  0.00  0.00    +0.000 C 
ATOM     30  C   UNL     1       5.442  15.216  19.672  0.00  0.00    +0.000 C 
ATOM     31  C   UNL     1       3.485  16.241  20.873  0.00  0.00    +0.000 C 
ENDBRANCH  27  29
ENDBRANCH  20  25
ENDBRANCH   3  18
TORSDOF 4
ENDMDL
MODEL 8
REMARK VINA RESULT:      -7.3      3.685      5.261
REMARK  Name = 
REMARK  9 active torsions:
REMARK  status: ('A' for Active; 'I' for Inactive)
REMARK    1  A    between atoms: C_1  and  C_2
REMARK    2  A    between atoms: C_9  and  C_10
REMARK    3  A    between atoms: N_12  and  C_13
REMARK    4  A    between atoms: C_15  and  C_16
REMARK    5  A    between atoms: N_18  and  C_19
REMARK    6  A    between atoms: N_18  and  C_20
REMARK    7  A    between atoms: C_20  and  C_21
REMARK    8  A    between atoms: C_20  and  C_22
REMARK    9  A    between atoms: C_29  and  C_30
REMARK                            x       y       z     vdW  Elec       q    Type
REMARK                         _______ _______ _______ _____ _____    ______ ____
ROOT
ATOM      1  C   UNL     1       1.877   8.086  19.674  0.00  0.00    +0.000 C 
ATOM      2  O   UNL     1       1.793   8.579  20.798  0.00  0.00    +0.000 OA
ATOM      3  N   UNL     1       1.669   8.777  18.489  0.00  0.00    +0.000 N 
ATOM      4  H   UNL     1       1.595   8.221  17.632  0.00  0.00    +0.000 HD
ENDROOT
BRANCH   1  13
ATOM      5  C   UNL     1       5.656   4.067  16.070  0.00  0.00    +0.000 C 
ATOM      6  C   UNL     1       4.716   4.788  16.983  0.00  0.00    +0.000 A 
ATOM      7  N   UNL     1       4.110   4.044  17.940  0.00  0.00    +0.000 NA
ATOM      8  C   UNL     1       3.281   4.665  18.792  0.00  0.00    +0.000 A 
ATOM      9  C   UNL     1       2.672   3.905  19.778  0.00  0.00    +0.000 A 
ATOM     10  C   UNL     1       1.805   4.492  20.682  0.00  0.00    +0.000 A 
ATOM     11  F   UNL     1       1.220   3.750  21.630  0.00  0.00    +0.000 F 
ATOM     12  C   UNL     1       1.549   5.845  20.618  0.00  0.00    +0.000 A 
ATOM     13  C   UNL     1       2.174   6.630  19.632  0.00  0.00    +0.000 A 
ATOM     14  C   UNL     1       3.035   6.056  18.696  0.00  0.00    +0.000 A 
ATOM     15  N   UNL     1       3.628   6.784  17.720  0.00  0.00    +0.000 NA
ATOM     16  C   UNL     1       4.473   6.151  16.871  0.00  0.00    +0.000 A 
ATOM     17  C   UNL     1       5.126   6.994  15.821  0.00  0.00    +0.000 C 
ENDBRANCH   1  13
BRANCH   3  18
ATOM     18  C   UNL     1       1.275  10.144  18.411  0.00  0.00    +0.000 A 
ATOM     19  C   UNL     1       2.244  11.147  18.317  0.00  0.00    +0.000 A 
ATOM     20  C   UNL     1       1.945  12.475  18.607  0.00  0.00    +0.000 A 
ATOM     21  C   UNL     1       0.600  12.845  18.721  0.00  0.00    +0.000 A 
ATOM     22  C   UNL     1      -0.408  11.876  18.627  0.00  0.00    +0.000 A 
ATOM     23  C   UNL     1      -0.069  10.524  18.506  0.00  0.00    +0.000 A 
ATOM     24 CL   UNL     1      -1.343   9.362  18.546  0.00  0.00    +0.000 Cl
BRANCH  20  25
ATOM     25  C   UNL     1       3.012  13.506  18.806  0.00  0.00    +0.000 C 
ATOM     26  O   UNL     1       3.673  13.805  17.809  0.00  0.00    +0.000 OA
ATOM     27  N   UNL     1       3.219  14.130  20.056  0.00  0.00    +0.000 N 
ATOM     28  C   UNL     1       2.365  13.972  21.234  0.00  0.00    +0.000 C 
BRANCH  27  29
ATOM     29  C   UNL     1       4.267  15.166  20.138  0.00  0.00    +0.000 C 
ATOM     30  C   UNL     1       3.633  16.561  20.101  0.00  0.00    +0.000 C 
ATOM     31  C   UNL     1       5.176  15.029  21.366  0.00  0.00    +0.000 C 
ENDBRANCH  27  29
ENDBRANCH  20  25
ENDBRANCH   3  18
TORSDOF 4
ENDMDL
MODEL 9
REMARK VINA RESULT:      -7.3      2.645      8.323
REMARK  Name = 
REMARK  9 active torsions:
REMARK  status: ('A' for Active; 'I' for Inactive)
REMARK    1  A    between atoms: C_1  and  C_2
REMARK    2  A    between atoms: C_9  and  C_10
REMARK    3  A    between atoms: N_12  and  C_13
REMARK    4  A    between atoms: C_15  and  C_16
REMARK    5  A    between atoms: N_18  and  C_19
REMARK    6  A    between atoms: N_18  and  C_20
REMARK    7  A    between atoms: C_20  and  C_21
REMARK    8  A    between atoms: C_20  and  C_22
REMARK    9  A    between atoms: C_29  and  C_30
REMARK                            x       y       z     vdW  Elec       q    Type
REMARK                         _______ _______ _______ _____ _____    ______ ____
ROOT
ATOM      1  C   UNL     1       1.519   9.163  18.485  0.00  0.00    +0.000 C 
ATOM      2  O   UNL     1       1.803   9.181  17.288  0.00  0.00    +0.000 OA
ATOM      3  N   UNL     1       1.902   8.169  19.374  0.00  0.00    +0.000 N 
ATOM      4  H   UNL     1       1.461   8.175  20.299  0.00  0.00    +0.000 HD
ENDROOT
BRANCH   1  13
ATOM      5  C   UNL     1      -4.409  11.615  16.977  0.00  0.00    +0.000 C 
ATOM      6  C   UNL     1      -3.043  11.239  17.456  0.00  0.00    +0.000 A 
ATOM      7  N   UNL     1      -2.550  11.952  18.498  0.00  0.00    +0.000 NA
ATOM      8  C   UNL     1      -1.338  11.624  18.970  0.00  0.00    +0.000 A 
ATOM      9  C   UNL     1      -0.840  12.345  20.043  0.00  0.00    +0.000 A 
ATOM     10  C   UNL     1       0.406  12.053  20.569  0.00  0.00    +0.000 A 
ATOM     11  F   UNL     1       0.879  12.756  21.604  0.00  0.00    +0.000 F 
ATOM     12  C   UNL     1       1.159  11.029  20.037  0.00  0.00    +0.000 A 
ATOM     13  C   UNL     1       0.658  10.279  18.958  0.00  0.00    +0.000 A 
ATOM     14  C   UNL     1      -0.587  10.570  18.397  0.00  0.00    +0.000 A 
ATOM     15  N   UNL     1      -1.081   9.880  17.341  0.00  0.00    +0.000 NA
ATOM     16  C   UNL     1      -2.311  10.211  16.878  0.00  0.00    +0.000 A 
ATOM     17  C   UNL     1      -2.831   9.412  15.725  0.00  0.00    +0.000 C 
ENDBRANCH   1  13
BRANCH   3  18
ATOM     18  C   UNL     1       2.634   7.002  19.013  0.00  0.00    +0.000 A 
ATOM     19  C   UNL     1       3.584   7.060  17.987  0.00  0.00    +0.000 A 
ATOM     20  C   UNL     1       4.044   5.908  17.358  0.00  0.00    +0.000 A 
ATOM     21  C   UNL     1       3.763   4.670  17.947  0.00  0.00    +0.000 A 
ATOM     22  C   UNL     1       2.964   4.601  19.095  0.00  0.00    +0.000 A 
ATOM     23  C   UNL     1       2.374   5.762  19.607  0.00  0.00    +0.000 A 
ATOM     24 CL   UNL     1       1.281   5.600  20.931  0.00  0.00    +0.000 Cl
BRANCH  20  25
ATOM     25  C   UNL     1       4.818   5.956  16.077  0.00  0.00    +0.000 C 
ATOM     26  O   UNL     1       4.899   7.059  15.532  0.00  0.00    +0.000 OA
ATOM     27  N   UNL     1       5.453   4.811  15.549  0.00  0.00    +0.000 N 
ATOM     28  C   UNL     1       5.564   3.516  16.222  0.00  0.00    +0.000 C 
BRANCH  27  29
ATOM     29  C   UNL     1       6.229   4.973  14.304  0.00  0.00    +0.000 C 
ATOM     30  C   UNL     1       7.722   5.094  14.625  0.00  0.00    +0.000 C 
ATOM     31  C   UNL     1       5.996   3.853  13.281  0.00  0.00    +0.000 C 
ENDBRANCH  27  29
ENDBRANCH  20  25
ENDBRANCH   3  18
TORSDOF 4
ENDMDL
