MODEL 1
REMARK VINA RESULT:      -8.1      0.000      0.000
REMARK  Name = 
REMARK  3 active torsions:
REMARK  status: ('A' for Active; 'I' for Inactive)
REMARK    1  A    between atoms: C_8  and  C_9
REMARK    2  A    between atoms: N_11  and  C_12
REMARK    3  A    between atoms: N_11  and  C_15
REMARK                            x       y       z     vdW  Elec       q    Type
REMARK                         _______ _______ _______ _____ _____    ______ ____
ROOT
ATOM      1  C   UNL     1       1.952   5.149  19.956  0.00  0.00    +0.000 C 
ATOM      2  O   UNL     1       1.119   4.701  20.748  0.00  0.00    +0.000 OA
ATOM      3  N   UNL     1       2.973   4.349  19.393  0.00  0.00    +0.000 N 
ENDROOT
BRANCH   1  11
ATOM      4  O   UNL     1       0.670  11.993  21.678  0.00  0.00    +0.000 OA
ATOM      5  C   UNL     1       0.972  11.167  20.820  0.00  0.00    +0.000 C 
ATOM      6  C   UNL     1       1.545  11.549  19.455  0.00  0.00    +0.000 C 
ATOM      7  O   UNL     1       1.679  10.584  18.423  0.00  0.00    +0.000 OA
ATOM      8  C   UNL     1       1.688   9.288  18.847  0.00  0.00    +0.000 A 
ATOM      9  C   UNL     1       2.116   8.331  17.927  0.00  0.00    +0.000 A 
ATOM     10  C   UNL     1       2.186   6.984  18.300  0.00  0.00    +0.000 A 
ATOM     11  C   UNL     1       1.794   6.584  19.585  0.00  0.00    +0.000 A 
ATOM     12  C   UNL     1       1.257   7.535  20.459  0.00  0.00    +0.000 A 
ATOM     13  C   UNL     1       1.269   8.883  20.117  0.00  0.00    +0.000 A 
ATOM     14  N   UNL     1       0.868   9.825  21.059  0.00  0.00    +0.000 N 
ATOM     15  H   UNL     1       0.556   9.550  21.982  0.00  0.00    +0.000 HD
ENDBRANCH   1  11
BRANCH   3  16
ATOM     16  C   UNL     1       3.712   4.728  18.180  0.00  0.00    +0.000 C 
ATOM     17  C   UNL     1       3.667   3.735  16.998  0.00  0.00    +0.000 C 
ATOM     18  C   UNL     1       4.856   4.133  16.104  0.00  0.00    +0.000 C 
ATOM     19  C   UNL     1       5.845   4.601  17.130  0.00  0.00    +0.000 A 
ATOM     20  C   UNL     1       7.208   4.784  16.972  0.00  0.00    +0.000 A 
ATOM     21  C   UNL     1       7.939   5.284  18.051  0.00  0.00    +0.000 A 
ATOM     22  C   UNL     1       7.304   5.593  19.263  0.00  0.00    +0.000 A 
ATOM     23  C   UNL     1       5.927   5.408  19.412  0.00  0.00    +0.000 A 
ATOM     24  C   UNL     1       5.201   4.916  18.336  0.00  0.00    +0.000 A 
ENDBRANCH   3  16
BRANCH   3  25
ATOM     25  C   UNL     1       2.982   2.949  19.790  0.00  0.00    +0.000 C 
ATOM     26  C   UNL     1       3.429   2.563  21.181  0.00  0.00    +0.000 C 
ATOM     27  C   UNL     1       4.216   2.108  19.993  0.00  0.00    +0.000 C 
ENDBRANCH   3  25
TORSDOF 3
ENDMDL
MODEL 2
REMARK VINA RESULT:      -7.5      1.973      3.803
REMARK  Name = 
REMARK  3 active torsions:
REMARK  status: ('A' for Active; 'I' for Inactive)
REMARK    1  A    between atoms: C_8  and  C_9
REMARK    2  A    between atoms: N_11  and  C_12
REMARK    3  A    between atoms: N_11  and  C_15
REMARK                            x       y       z     vdW  Elec       q    Type
REMARK                         _______ _______ _______ _____ _____    ______ ____
ROOT
ATOM      1  C   UNL     1       4.545   6.245  17.759  0.00  0.00    +0.000 C 
ATOM      2  O   UNL     1       5.659   6.769  17.841  0.00  0.00    +0.000 OA
ATOM      3  N   UNL     1       4.359   4.927  17.284  0.00  0.00    +0.000 N 
ENDROOT
BRANCH   1  11
ATOM      4  O   UNL     1       0.525   8.971  23.036  0.00  0.00    +0.000 OA
ATOM      5  C   UNL     1       0.771   8.903  21.835  0.00  0.00    +0.000 C 
ATOM      6  C   UNL     1       0.202   9.882  20.807  0.00  0.00    +0.000 C 
ATOM      7  O   UNL     1       0.339   9.640  19.415  0.00  0.00    +0.000 OA
ATOM      8  C   UNL     1       1.337   8.774  19.078  0.00  0.00    +0.000 A 
ATOM      9  C   UNL     1       1.708   8.738  17.734  0.00  0.00    +0.000 A 
ATOM     10  C   UNL     1       2.748   7.900  17.318  0.00  0.00    +0.000 A 
ATOM     11  C   UNL     1       3.399   7.069  18.239  0.00  0.00    +0.000 A 
ATOM     12  C   UNL     1       2.941   7.027  19.560  0.00  0.00    +0.000 A 
ATOM     13  C   UNL     1       1.966   7.922  19.989  0.00  0.00    +0.000 A 
ATOM     14  N   UNL     1       1.632   7.965  21.339  0.00  0.00    +0.000 N 
ATOM     15  H   UNL     1       2.074   7.352  22.013  0.00  0.00    +0.000 HD
ENDBRANCH   1  11
BRANCH   3  16
ATOM     16  C   UNL     1       3.139   4.146  17.540  0.00  0.00    +0.000 C 
ATOM     17  C   UNL     1       1.791   4.860  17.298  0.00  0.00    +0.000 C 
ATOM     18  C   UNL     1       0.757   4.020  18.070  0.00  0.00    +0.000 C 
ATOM     19  C   UNL     1       1.577   3.551  19.235  0.00  0.00    +0.000 A 
ATOM     20  C   UNL     1       1.125   3.025  20.434  0.00  0.00    +0.000 A 
ATOM     21  C   UNL     1       2.070   2.599  21.369  0.00  0.00    +0.000 A 
ATOM     22  C   UNL     1       3.443   2.701  21.095  0.00  0.00    +0.000 A 
ATOM     23  C   UNL     1       3.889   3.231  19.882  0.00  0.00    +0.000 A 
ATOM     24  C   UNL     1       2.948   3.650  18.952  0.00  0.00    +0.000 A 
ENDBRANCH   3  16
BRANCH   3  25
ATOM     25  C   UNL     1       5.565   4.206  16.903  0.00  0.00    +0.000 C 
ATOM     26  C   UNL     1       6.297   4.579  15.635  0.00  0.00    +0.000 C 
ATOM     27  C   UNL     1       5.672   3.227  15.763  0.00  0.00    +0.000 C 
ENDBRANCH   3  25
TORSDOF 3
ENDMDL
MODEL 3
REMARK VINA RESULT:      -7.4      2.017      4.166
REMARK  Name = 
REMARK  3 active torsions:
REMARK  status: ('A' for Active; 'I' for Inactive)
REMARK    1  A    between atoms: C_8  and  C_9
REMARK    2  A    between atoms: N_11  and  C_12
REMARK    3  A    between atoms: N_11  and  C_15
REMARK                            x       y       z     vdW  Elec       q    Type
REMARK                         _______ _______ _______ _____ _____    ______ ____
ROOT
ATOM      1  C   UNL     1       4.108   6.926  17.337  0.00  0.00    +0.000 C 
ATOM      2  O   UNL     1       4.693   7.625  16.505  0.00  0.00    +0.000 OA
ATOM      3  N   UNL     1       4.401   5.555  17.518  0.00  0.00    +0.000 N 
ENDROOT
BRANCH   1  11
ATOM      4  O   UNL     1      -1.136  11.744  18.192  0.00  0.00    +0.000 OA
ATOM      5  C   UNL     1      -0.451  10.845  18.672  0.00  0.00    +0.000 C 
ATOM      6  C   UNL     1      -0.796  10.140  19.984  0.00  0.00    +0.000 C 
ATOM      7  O   UNL     1       0.130   9.261  20.606  0.00  0.00    +0.000 OA
ATOM      8  C   UNL     1       1.097   8.769  19.780  0.00  0.00    +0.000 A 
ATOM      9  C   UNL     1       1.834   7.684  20.256  0.00  0.00    +0.000 A 
ATOM     10  C   UNL     1       2.819   7.101  19.452  0.00  0.00    +0.000 A 
ATOM     11  C   UNL     1       3.097   7.624  18.182  0.00  0.00    +0.000 A 
ATOM     12  C   UNL     1       2.434   8.782  17.763  0.00  0.00    +0.000 A 
ATOM     13  C   UNL     1       1.396   9.307  18.527  0.00  0.00    +0.000 A 
ATOM     14  N   UNL     1       0.652  10.368  18.021  0.00  0.00    +0.000 N 
ATOM     15  H   UNL     1       0.857  10.775  17.116  0.00  0.00    +0.000 HD
ENDBRANCH   1  11
BRANCH   3  16
ATOM     16  C   UNL     1       4.029   4.808  18.728  0.00  0.00    +0.000 C 
ATOM     17  C   UNL     1       5.061   3.791  19.264  0.00  0.00    +0.000 C 
ATOM     18  C   UNL     1       4.255   2.862  20.189  0.00  0.00    +0.000 C 
ATOM     19  C   UNL     1       2.927   2.841  19.491  0.00  0.00    +0.000 A 
ATOM     20  C   UNL     1       1.892   1.937  19.664  0.00  0.00    +0.000 A 
ATOM     21  C   UNL     1       0.711   2.136  18.946  0.00  0.00    +0.000 A 
ATOM     22  C   UNL     1       0.581   3.227  18.073  0.00  0.00    +0.000 A 
ATOM     23  C   UNL     1       1.630   4.135  17.908  0.00  0.00    +0.000 A 
ATOM     24  C   UNL     1       2.801   3.938  18.626  0.00  0.00    +0.000 A 
ENDBRANCH   3  16
BRANCH   3  25
ATOM     25  C   UNL     1       5.452   5.007  16.672  0.00  0.00    +0.000 C 
ATOM     26  C   UNL     1       5.209   4.826  15.191  0.00  0.00    +0.000 C 
ATOM     27  C   UNL     1       5.448   3.631  16.058  0.00  0.00    +0.000 C 
ENDBRANCH   3  25
TORSDOF 3
ENDMDL
MODEL 4
REMARK VINA RESULT:      -7.4      3.280      6.549
REMARK  Name = 
REMARK  3 active torsions:
REMARK  status: ('A' for Active; 'I' for Inactive)
REMARK    1  A    between atoms: C_8  and  C_9
REMARK    2  A    between atoms: N_11  and  C_12
REMARK    3  A    between atoms: N_11  and  C_15
REMARK                            x       y       z     vdW  Elec       q    Type
REMARK                         _______ _______ _______ _____ _____    ______ ____
ROOT
ATOM      1  C   UNL     1       3.286   7.274  17.906  0.00  0.00    +0.000 C 
ATOM      2  O   UNL     1       2.660   8.162  17.322  0.00  0.00    +0.000 OA
ATOM      3  N   UNL     1       2.911   6.793  19.181  0.00  0.00    +0.000 N 
ENDROOT
BRANCH   1  11
ATOM      4  O   UNL     1       6.013   3.203  12.668  0.00  0.00    +0.000 OA
ATOM      5  C   UNL     1       6.206   3.982  13.598  0.00  0.00    +0.000 C 
ATOM      6  C   UNL     1       7.543   4.683  13.838  0.00  0.00    +0.000 C 
ATOM      7  O   UNL     1       7.785   5.404  15.037  0.00  0.00    +0.000 OA
ATOM      8  C   UNL     1       6.663   5.785  15.713  0.00  0.00    +0.000 A 
ATOM      9  C   UNL     1       6.831   6.741  16.716  0.00  0.00    +0.000 A 
ATOM     10  C   UNL     1       5.722   7.208  17.429  0.00  0.00    +0.000 A 
ATOM     11  C   UNL     1       4.445   6.695  17.167  0.00  0.00    +0.000 A 
ATOM     12  C   UNL     1       4.305   5.655  16.242  0.00  0.00    +0.000 A 
ATOM     13  C   UNL     1       5.394   5.253  15.475  0.00  0.00    +0.000 A 
ATOM     14  N   UNL     1       5.201   4.322  14.459  0.00  0.00    +0.000 N 
ATOM     15  H   UNL     1       4.289   3.922  14.274  0.00  0.00    +0.000 HD
ENDBRANCH   1  11
BRANCH   3  16
ATOM     16  C   UNL     1       3.368   5.503  19.720  0.00  0.00    +0.000 C 
ATOM     17  C   UNL     1       4.852   5.140  19.492  0.00  0.00    +0.000 C 
ATOM     18  C   UNL     1       4.923   3.618  19.714  0.00  0.00    +0.000 C 
ATOM     19  C   UNL     1       3.579   3.189  19.204  0.00  0.00    +0.000 A 
ATOM     20  C   UNL     1       3.175   1.912  18.850  0.00  0.00    +0.000 A 
ATOM     21  C   UNL     1       1.851   1.725  18.449  0.00  0.00    +0.000 A 
ATOM     22  C   UNL     1       0.956   2.805  18.409  0.00  0.00    +0.000 A 
ATOM     23  C   UNL     1       1.372   4.088  18.771  0.00  0.00    +0.000 A 
ATOM     24  C   UNL     1       2.688   4.272  19.174  0.00  0.00    +0.000 A 
ENDBRANCH   3  16
BRANCH   3  25
ATOM     25  C   UNL     1       1.725   7.398  19.771  0.00  0.00    +0.000 C 
ATOM     26  C   UNL     1       1.870   8.506  20.787  0.00  0.00    +0.000 C 
ATOM     27  C   UNL     1       1.260   7.202  21.191  0.00  0.00    +0.000 C 
ENDBRANCH   3  25
TORSDOF 3
ENDMDL
MODEL 5
REMARK VINA RESULT:      -7.3      7.437     10.384
REMARK  Name = 
REMARK  3 active torsions:
REMARK  status: ('A' for Active; 'I' for Inactive)
REMARK    1  A    between atoms: C_8  and  C_9
REMARK    2  A    between atoms: N_11  and  C_12
REMARK    3  A    between atoms: N_11  and  C_15
REMARK                            x       y       z     vdW  Elec       q    Type
REMARK                         _______ _______ _______ _____ _____    ______ ____
ROOT
ATOM      1  C   UNL     1       8.015  16.908  18.638  0.00  0.00    +0.000 C 
ATOM      2  O   UNL     1       8.236  18.010  18.130  0.00  0.00    +0.000 OA
ATOM      3  N   UNL     1       9.052  16.030  19.028  0.00  0.00    +0.000 N 
ENDROOT
BRANCH   1  11
ATOM      4  O   UNL     1       2.401  12.504  17.919  0.00  0.00    +0.000 OA
ATOM      5  C   UNL     1       2.867  13.540  18.386  0.00  0.00    +0.000 C 
ATOM      6  C   UNL     1       2.175  14.348  19.484  0.00  0.00    +0.000 C 
ATOM      7  O   UNL     1       2.639  15.641  19.841  0.00  0.00    +0.000 OA
ATOM      8  C   UNL     1       3.926  15.909  19.480  0.00  0.00    +0.000 A 
ATOM      9  C   UNL     1       4.520  17.028  20.065  0.00  0.00    +0.000 A 
ATOM     10  C   UNL     1       5.850  17.347  19.772  0.00  0.00    +0.000 A 
ATOM     11  C   UNL     1       6.582  16.568  18.866  0.00  0.00    +0.000 A 
ATOM     12  C   UNL     1       5.941  15.519  18.198  0.00  0.00    +0.000 A 
ATOM     13  C   UNL     1       4.647  15.152  18.555  0.00  0.00    +0.000 A 
ATOM     14  N   UNL     1       4.084  14.015  17.985  0.00  0.00    +0.000 N 
ATOM     15  H   UNL     1       4.589  13.456  17.308  0.00  0.00    +0.000 HD
ENDBRANCH   1  11
BRANCH   3  16
ATOM     16  C   UNL     1       8.853  14.921  19.973  0.00  0.00    +0.000 C 
ATOM     17  C   UNL     1       9.711  14.938  21.257  0.00  0.00    +0.000 C 
ATOM     18  C   UNL     1       9.652  13.494  21.788  0.00  0.00    +0.000 C 
ATOM     19  C   UNL     1       9.577  12.717  20.507  0.00  0.00    +0.000 A 
ATOM     20  C   UNL     1       9.820  11.367  20.318  0.00  0.00    +0.000 A 
ATOM     21  C   UNL     1       9.638  10.833  19.041  0.00  0.00    +0.000 A 
ATOM     22  C   UNL     1       9.218  11.649  17.979  0.00  0.00    +0.000 A 
ATOM     23  C   UNL     1       8.972  13.009  18.180  0.00  0.00    +0.000 A 
ATOM     24  C   UNL     1       9.149  13.536  19.452  0.00  0.00    +0.000 A 
ENDBRANCH   3  16
BRANCH   3  25
ATOM     25  C   UNL     1      10.411  16.505  18.808  0.00  0.00    +0.000 C 
ATOM     26  C   UNL     1      11.061  16.329  17.455  0.00  0.00    +0.000 C 
ATOM     27  C   UNL     1      11.626  15.627  18.648  0.00  0.00    +0.000 C 
ENDBRANCH   3  25
TORSDOF 3
ENDMDL
MODEL 6
REMARK VINA RESULT:      -7.3      1.969      4.050
REMARK  Name = 
REMARK  3 active torsions:
REMARK  status: ('A' for Active; 'I' for Inactive)
REMARK    1  A    between atoms: C_8  and  C_9
REMARK    2  A    between atoms: N_11  and  C_12
REMARK    3  A    between atoms: N_11  and  C_15
REMARK                            x       y       z     vdW  Elec       q    Type
REMARK                         _______ _______ _______ _____ _____    ______ ____
ROOT
ATOM      1  C   UNL     1       3.953   7.057  17.436  0.00  0.00    +0.000 C 
ATOM      2  O   UNL     1       4.579   7.735  16.617  0.00  0.00    +0.000 OA
ATOM      3  N   UNL     1       4.269   5.706  17.704  0.00  0.00    +0.000 N 
ENDROOT
BRANCH   1  11
ATOM      4  O   UNL     1       0.884   9.296  23.519  0.00  0.00    +0.000 OA
ATOM      5  C   UNL     1       0.882   9.273  22.291  0.00  0.00    +0.000 C 
ATOM      6  C   UNL     1       0.030  10.214  21.439  0.00  0.00    +0.000 C 
ATOM      7  O   UNL     1      -0.102  10.013  20.039  0.00  0.00    +0.000 OA
ATOM      8  C   UNL     1       0.877   9.250  19.474  0.00  0.00    +0.000 A 
ATOM      9  C   UNL     1       0.964   9.275  18.082  0.00  0.00    +0.000 A 
ATOM     10  C   UNL     1       1.966   8.546  17.432  0.00  0.00    +0.000 A 
ATOM     11  C   UNL     1       2.862   7.761  18.169  0.00  0.00    +0.000 A 
ATOM     12  C   UNL     1       2.692   7.652  19.553  0.00  0.00    +0.000 A 
ATOM     13  C   UNL     1       1.751   8.443  20.205  0.00  0.00    +0.000 A 
ATOM     14  N   UNL     1       1.701   8.429  21.595  0.00  0.00    +0.000 N 
ATOM     15  H   UNL     1       2.324   7.847  22.142  0.00  0.00    +0.000 HD
ENDBRANCH   1  11
BRANCH   3  16
ATOM     16  C   UNL     1       3.827   5.004  18.918  0.00  0.00    +0.000 C 
ATOM     17  C   UNL     1       4.846   4.051  19.582  0.00  0.00    +0.000 C 
ATOM     18  C   UNL     1       3.999   3.138  20.488  0.00  0.00    +0.000 C 
ATOM     19  C   UNL     1       2.732   3.037  19.692  0.00  0.00    +0.000 A 
ATOM     20  C   UNL     1       1.716   2.105  19.830  0.00  0.00    +0.000 A 
ATOM     21  C   UNL     1       0.590   2.227  19.014  0.00  0.00    +0.000 A 
ATOM     22  C   UNL     1       0.494   3.270  18.079  0.00  0.00    +0.000 A 
ATOM     23  C   UNL     1       1.522   4.207  17.950  0.00  0.00    +0.000 A 
ATOM     24  C   UNL     1       2.639   4.086  18.765  0.00  0.00    +0.000 A 
ENDBRANCH   3  16
BRANCH   3  25
ATOM     25  C   UNL     1       5.395   5.152  16.966  0.00  0.00    +0.000 C 
ATOM     26  C   UNL     1       5.299   4.974  15.468  0.00  0.00    +0.000 C 
ATOM     27  C   UNL     1       5.443   3.776  16.352  0.00  0.00    +0.000 C 
ENDBRANCH   3  25
TORSDOF 3
ENDMDL
MODEL 7
REMARK VINA RESULT:      -7.3      2.094      3.944
REMARK  Name = 
REMARK  3 active torsions:
REMARK  status: ('A' for Active; 'I' for Inactive)
REMARK    1  A    between atoms: C_8  and  C_9
REMARK    2  A    between atoms: N_11  and  C_12
REMARK    3  A    between atoms: N_11  and  C_15
REMARK                            x       y       z     vdW  Elec       q    Type
REMARK                         _______ _______ _______ _____ _____    ______ ____
ROOT
ATOM      1  C   UNL     1       4.568   6.376  17.507  0.00  0.00    +0.000 C 
ATOM      2  O   UNL     1       5.659   6.945  17.417  0.00  0.00    +0.000 OA
ATOM      3  N   UNL     1       4.328   5.100  16.950  0.00  0.00    +0.000 N 
ENDROOT
BRANCH   1  11
ATOM      4  O   UNL     1      -0.847  11.060  17.938  0.00  0.00    +0.000 OA
ATOM      5  C   UNL     1      -0.142  10.219  18.491  0.00  0.00    +0.000 C 
ATOM      6  C   UNL     1      -0.489   9.595  19.842  0.00  0.00    +0.000 C 
ATOM      7  O   UNL     1       0.453   8.793  20.539  0.00  0.00    +0.000 OA
ATOM      8  C   UNL     1       1.452   8.279  19.766  0.00  0.00    +0.000 A 
ATOM      9  C   UNL     1       2.214   7.254  20.328  0.00  0.00    +0.000 A 
ATOM     10  C   UNL     1       3.234   6.652  19.583  0.00  0.00    +0.000 A 
ATOM     11  C   UNL     1       3.518   7.095  18.285  0.00  0.00    +0.000 A 
ATOM     12  C   UNL     1       2.826   8.199  17.775  0.00  0.00    +0.000 A 
ATOM     13  C   UNL     1       1.757   8.739  18.483  0.00  0.00    +0.000 A 
ATOM     14  N   UNL     1       0.989   9.737  17.893  0.00  0.00    +0.000 N 
ATOM     15  H   UNL     1       1.198  10.087  16.966  0.00  0.00    +0.000 HD
ENDBRANCH   1  11
BRANCH   3  16
ATOM     16  C   UNL     1       3.210   4.239  17.366  0.00  0.00    +0.000 C 
ATOM     17  C   UNL     1       1.817   4.900  17.450  0.00  0.00    +0.000 C 
ATOM     18  C   UNL     1       0.983   3.949  18.329  0.00  0.00    +0.000 C 
ATOM     19  C   UNL     1       2.031   3.432  19.270  0.00  0.00    +0.000 A 
ATOM     20  C   UNL     1       1.840   2.789  20.482  0.00  0.00    +0.000 A 
ATOM     21  C   UNL     1       2.964   2.339  21.177  0.00  0.00    +0.000 A 
ATOM     22  C   UNL     1       4.253   2.533  20.655  0.00  0.00    +0.000 A 
ATOM     23  C   UNL     1       4.435   3.180  19.430  0.00  0.00    +0.000 A 
ATOM     24  C   UNL     1       3.316   3.623  18.739  0.00  0.00    +0.000 A 
ENDBRANCH   3  16
BRANCH   3  25
ATOM     25  C   UNL     1       5.453   4.477  16.267  0.00  0.00    +0.000 C 
ATOM     26  C   UNL     1       5.609   4.636  14.772  0.00  0.00    +0.000 C 
ATOM     27  C   UNL     1       5.365   3.280  15.355  0.00  0.00    +0.000 C 
ENDBRANCH   3  25
TORSDOF 3
ENDMDL
MODEL 8
REMARK VINA RESULT:      -7.2      6.699     10.354
REMARK  Name = 
REMARK  3 active torsions:
REMARK  status: ('A' for Active; 'I' for Inactive)
REMARK    1  A    between atoms: C_8  and  C_9
REMARK    2  A    between atoms: N_11  and  C_12
REMARK    3  A    between atoms: N_11  and  C_15
REMARK                            x       y       z     vdW  Elec       q    Type
REMARK                         _______ _______ _______ _____ _____    ______ ____
ROOT
ATOM      1  C   UNL     1       0.386  13.896  21.200  0.00  0.00    +0.000 C 
ATOM      2  O   UNL     1       0.290  13.630  22.401  0.00  0.00    +0.000 OA
ATOM      3  N   UNL     1       0.962  15.099  20.732  0.00  0.00    +0.000 N 
ENDROOT
BRANCH   1  11
ATOM      4  O   UNL     1      -4.420  11.403  16.497  0.00  0.00    +0.000 OA
ATOM      5  C   UNL     1      -3.345  11.258  17.073  0.00  0.00    +0.000 C 
ATOM      6  C   UNL     1      -2.292  10.241  16.635  0.00  0.00    +0.000 C 
ATOM      7  O   UNL     1      -1.164   9.960  17.450  0.00  0.00    +0.000 OA
ATOM      8  C   UNL     1      -0.868  10.921  18.371  0.00  0.00    +0.000 A 
ATOM      9  C   UNL     1       0.386  10.841  18.978  0.00  0.00    +0.000 A 
ATOM     10  C   UNL     1       0.775  11.812  19.907  0.00  0.00    +0.000 A 
ATOM     11  C   UNL     1      -0.100  12.848  20.258  0.00  0.00    +0.000 A 
ATOM     12  C   UNL     1      -1.396  12.852  19.731  0.00  0.00    +0.000 A 
ATOM     13  C   UNL     1      -1.751  11.937  18.745  0.00  0.00    +0.000 A 
ATOM     14  N   UNL     1      -2.992  12.052  18.128  0.00  0.00    +0.000 N 
ATOM     15  H   UNL     1      -3.648  12.778  18.389  0.00  0.00    +0.000 HD
ENDBRANCH   1  11
BRANCH   3  16
ATOM     16  C   UNL     1       1.448  15.273  19.355  0.00  0.00    +0.000 C 
ATOM     17  C   UNL     1       2.957  15.556  19.179  0.00  0.00    +0.000 C 
ATOM     18  C   UNL     1       3.084  16.147  17.763  0.00  0.00    +0.000 C 
ATOM     19  C   UNL     1       1.788  16.893  17.644  0.00  0.00    +0.000 A 
ATOM     20  C   UNL     1       1.458  17.881  16.730  0.00  0.00    +0.000 A 
ATOM     21  C   UNL     1       0.166  18.408  16.762  0.00  0.00    +0.000 A 
ATOM     22  C   UNL     1      -0.773  17.945  17.697  0.00  0.00    +0.000 A 
ATOM     23  C   UNL     1      -0.432  16.946  18.612  0.00  0.00    +0.000 A 
ATOM     24  C   UNL     1       0.852  16.420  18.576  0.00  0.00    +0.000 A 
ENDBRANCH   3  16
BRANCH   3  25
ATOM     25  C   UNL     1       1.455  16.013  21.752  0.00  0.00    +0.000 C 
ATOM     26  C   UNL     1       0.533  17.059  22.335  0.00  0.00    +0.000 C 
ATOM     27  C   UNL     1       1.732  17.481  21.547  0.00  0.00    +0.000 C 
ENDBRANCH   3  25
TORSDOF 3
ENDMDL
MODEL 9
REMARK VINA RESULT:      -7.2      4.367      7.657
REMARK  Name = 
REMARK  3 active torsions:
REMARK  status: ('A' for Active; 'I' for Inactive)
REMARK    1  A    between atoms: C_8  and  C_9
REMARK    2  A    between atoms: N_11  and  C_12
REMARK    3  A    between atoms: N_11  and  C_15
REMARK                            x       y       z     vdW  Elec       q    Type
REMARK                         _______ _______ _______ _____ _____    ______ ____
ROOT
ATOM      1  C   UNL     1      -0.569  12.588  18.587  0.00  0.00    +0.000 C 
ATOM      2  O   UNL     1      -0.397  13.787  18.349  0.00  0.00    +0.000 OA
ATOM      3  N   UNL     1       0.483  11.736  18.995  0.00  0.00    +0.000 N 
ENDROOT
BRANCH   1  11
ATOM      4  O   UNL     1      -7.421  12.496  20.705  0.00  0.00    +0.000 OA
ATOM      5  C   UNL     1      -6.564  12.115  19.911  0.00  0.00    +0.000 C 
ATOM      6  C   UNL     1      -6.898  11.435  18.583  0.00  0.00    +0.000 C 
ATOM      7  O   UNL     1      -5.882  10.824  17.800  0.00  0.00    +0.000 OA
ATOM      8  C   UNL     1      -4.616  11.252  18.069  0.00  0.00    +0.000 A 
ATOM      9  C   UNL     1      -3.631  10.918  17.138  0.00  0.00    +0.000 A 
ATOM     10  C   UNL     1      -2.315  11.352  17.327  0.00  0.00    +0.000 A 
ATOM     11  C   UNL     1      -1.970  12.092  18.466  0.00  0.00    +0.000 A 
ATOM     12  C   UNL     1      -2.939  12.321  19.448  0.00  0.00    +0.000 A 
ATOM     13  C   UNL     1      -4.263  11.963  19.218  0.00  0.00    +0.000 A 
ATOM     14  N   UNL     1      -5.235  12.333  20.142  0.00  0.00    +0.000 N 
ATOM     15  H   UNL     1      -4.998  12.845  20.984  0.00  0.00    +0.000 HD
ENDBRANCH   1  11
BRANCH   3  16
ATOM     16  C   UNL     1       0.257  10.443  19.656  0.00  0.00    +0.000 C 
ATOM     17  C   UNL     1       0.417  10.408  21.193  0.00  0.00    +0.000 C 
ATOM     18  C   UNL     1       0.596   8.918  21.536  0.00  0.00    +0.000 C 
ATOM     19  C   UNL     1       1.337   8.430  20.327  0.00  0.00    +0.000 A 
ATOM     20  C   UNL     1       2.055   7.253  20.189  0.00  0.00    +0.000 A 
ATOM     21  C   UNL     1       2.626   6.967  18.948  0.00  0.00    +0.000 A 
ATOM     22  C   UNL     1       2.474   7.852  17.870  0.00  0.00    +0.000 A 
ATOM     23  C   UNL     1       1.746   9.035  18.018  0.00  0.00    +0.000 A 
ATOM     24  C   UNL     1       1.175   9.315  19.251  0.00  0.00    +0.000 A 
ENDBRANCH   3  16
BRANCH   3  25
ATOM     25  C   UNL     1       1.793  12.357  19.135  0.00  0.00    +0.000 C 
ATOM     26  C   UNL     1       2.128  13.134  20.386  0.00  0.00    +0.000 C 
ATOM     27  C   UNL     1       2.068  13.837  19.067  0.00  0.00    +0.000 C 
ENDBRANCH   3  25
TORSDOF 3
ENDMDL
