MODEL 1
REMARK VINA RESULT:      -8.5      0.000      0.000
REMARK  Name = 
REMARK  6 active torsions:
REMARK  status: ('A' for Active; 'I' for Inactive)
REMARK    1  A    between atoms: C_1  and  N_2
REMARK    2  A    between atoms: N_2  and  C_3
REMARK    3  A    between atoms: C_3  and  C_4
REMARK    4  A    between atoms: C_15  and  C_17
REMARK    5  A    between atoms: C_21  and  S_22
REMARK    6  A    between atoms: S_22  and  N_25
REMARK                            x       y       z     vdW  Elec       q    Type
REMARK                         _______ _______ _______ _____ _____    ______ ____
ROOT
ATOM      1  C   UNL     1       3.784   2.497  20.031  0.00  0.00    +0.000 C 
ATOM      2  N   UNL     1       3.700   3.916  19.714  0.00  0.00    +0.000 N 
ATOM      3  C   UNL     1       2.419   4.500  19.760  0.00  0.00    +0.000 C 
ATOM      4  O   UNL     1       1.421   3.858  20.087  0.00  0.00    +0.000 OA
ENDROOT
BRANCH   3   5
ATOM      5  C   UNL     1       2.218   5.951  19.456  0.00  0.00    +0.000 A 
ATOM      6  C   UNL     1       2.359   6.483  18.170  0.00  0.00    +0.000 A 
ATOM      7  C   UNL     1       2.333   7.859  17.954  0.00  0.00    +0.000 A 
ATOM      8  C   UNL     1       1.945   8.705  18.983  0.00  0.00    +0.000 A 
ATOM      9  C   UNL     1       1.564   8.158  20.210  0.00  0.00    +0.000 A 
ATOM     10  C   UNL     1       1.790   6.804  20.484  0.00  0.00    +0.000 A 
BRANCH   9  11
ATOM     11  S   UNL     1       0.715   9.188  21.390  0.00  0.00    +0.000 S 
ATOM     12  O   UNL     1      -0.540   8.534  21.700  0.00  0.00    +0.000 OA
ATOM     13  O   UNL     1       1.667   9.516  22.429  0.00  0.00    +0.000 OA
BRANCH  11  14
ATOM     14  N   UNL     1       0.398  10.619  20.545  0.00  0.00    +0.000 NA
ATOM     15  C   UNL     1       1.138  11.850  20.854  0.00  0.00    +0.000 C 
ATOM     16  C   UNL     1       0.086  12.804  21.385  0.00  0.00    +0.000 C 
ATOM     17  C   UNL     1      -1.180  12.426  20.638  0.00  0.00    +0.000 C 
ATOM     18  C   UNL     1      -0.992  10.974  20.194  0.00  0.00    +0.000 C 
ENDBRANCH  11  14
ENDBRANCH   9  11
ENDBRANCH   3   5
BRANCH   2  19
ATOM     19  C   UNL     1       4.941   4.688  19.553  0.00  0.00    +0.000 C 
BRANCH  19  20
ATOM     20  C   UNL     1       5.564   4.908  18.185  0.00  0.00    +0.000 A 
ATOM     21  N   UNL     1       5.284   4.081  17.227  0.00  0.00    +0.000 NA
ATOM     22  C   UNL     1       5.855   4.320  15.967  0.00  0.00    +0.000 A 
ATOM     23  C   UNL     1       5.524   3.474  14.907  0.00  0.00    +0.000 A 
ATOM     24  C   UNL     1       6.099   3.668  13.646  0.00  0.00    +0.000 A 
ATOM     25  C   UNL     1       7.022   4.691  13.442  0.00  0.00    +0.000 A 
ATOM     26  C   UNL     1       7.353   5.543  14.495  0.00  0.00    +0.000 A 
ATOM     27  C   UNL     1       6.759   5.355  15.745  0.00  0.00    +0.000 A 
ATOM     28  C   UNL     1       7.054   6.254  16.874  0.00  0.00    +0.000 A 
ATOM     29  O   UNL     1       7.870   7.163  16.794  0.00  0.00    +0.000 OA
ATOM     30  N   UNL     1       6.366   6.000  18.033  0.00  0.00    +0.000 N 
ATOM     31  H   UNL     1       6.565   6.609  18.815  0.00  0.00    +0.000 HD
ENDBRANCH  19  20
ENDBRANCH   2  19
TORSDOF 5
ENDMDL
MODEL 2
REMARK VINA RESULT:      -8.4      3.193      8.450
REMARK  Name = 
REMARK  6 active torsions:
REMARK  status: ('A' for Active; 'I' for Inactive)
REMARK    1  A    between atoms: C_1  and  N_2
REMARK    2  A    between atoms: N_2  and  C_3
REMARK    3  A    between atoms: C_3  and  C_4
REMARK    4  A    between atoms: C_15  and  C_17
REMARK    5  A    between atoms: C_21  and  S_22
REMARK    6  A    between atoms: S_22  and  N_25
REMARK                            x       y       z     vdW  Elec       q    Type
REMARK                         _______ _______ _______ _____ _____    ______ ____
ROOT
ATOM      1  C   UNL     1       1.939   9.312  17.694  0.00  0.00    +0.000 C 
ATOM      2  N   UNL     1       2.452   8.089  18.298  0.00  0.00    +0.000 N 
ATOM      3  C   UNL     1       3.426   7.383  17.565  0.00  0.00    +0.000 C 
ATOM      4  O   UNL     1       3.853   7.791  16.485  0.00  0.00    +0.000 OA
ENDROOT
BRANCH   3   5
ATOM      5  C   UNL     1       4.024   6.116  18.093  0.00  0.00    +0.000 A 
ATOM      6  C   UNL     1       5.154   6.097  18.916  0.00  0.00    +0.000 A 
ATOM      7  C   UNL     1       5.782   4.898  19.247  0.00  0.00    +0.000 A 
ATOM      8  C   UNL     1       5.163   3.695  18.942  0.00  0.00    +0.000 A 
ATOM      9  C   UNL     1       3.908   3.709  18.331  0.00  0.00    +0.000 A 
ATOM     10  C   UNL     1       3.382   4.900  17.818  0.00  0.00    +0.000 A 
BRANCH   9  11
ATOM     11  S   UNL     1       2.951   2.206  18.284  0.00  0.00    +0.000 S 
ATOM     12  O   UNL     1       2.101   2.280  17.114  0.00  0.00    +0.000 OA
ATOM     13  O   UNL     1       3.877   1.110  18.472  0.00  0.00    +0.000 OA
BRANCH  11  14
ATOM     14  N   UNL     1       1.989   2.280  19.673  0.00  0.00    +0.000 NA
ATOM     15  C   UNL     1       0.770   3.099  19.695  0.00  0.00    +0.000 C 
ATOM     16  C   UNL     1       1.049   4.171  20.731  0.00  0.00    +0.000 C 
ATOM     17  C   UNL     1       1.951   3.492  21.746  0.00  0.00    +0.000 C 
ATOM     18  C   UNL     1       2.624   2.335  21.006  0.00  0.00    +0.000 C 
ENDBRANCH  11  14
ENDBRANCH   9  11
ENDBRANCH   3   5
BRANCH   2  19
ATOM     19  C   UNL     1       2.083   7.765  19.683  0.00  0.00    +0.000 C 
BRANCH  19  20
ATOM     20  C   UNL     1       1.229   8.708  20.515  0.00  0.00    +0.000 A 
ATOM     21  N   UNL     1       0.461   9.558  19.911  0.00  0.00    +0.000 NA
ATOM     22  C   UNL     1      -0.334  10.402  20.702  0.00  0.00    +0.000 A 
ATOM     23  C   UNL     1      -1.211  11.287  20.072  0.00  0.00    +0.000 A 
ATOM     24  C   UNL     1      -1.995  12.161  20.833  0.00  0.00    +0.000 A 
ATOM     25  C   UNL     1      -1.893  12.172  22.222  0.00  0.00    +0.000 A 
ATOM     26  C   UNL     1      -1.024  11.287  22.859  0.00  0.00    +0.000 A 
ATOM     27  C   UNL     1      -0.261  10.404  22.093  0.00  0.00    +0.000 A 
ATOM     28  C   UNL     1       0.643   9.428  22.726  0.00  0.00    +0.000 A 
ATOM     29  O   UNL     1       0.815   9.383  23.938  0.00  0.00    +0.000 OA
ATOM     30  N   UNL     1       1.298   8.579  21.871  0.00  0.00    +0.000 N 
ATOM     31  H   UNL     1       1.923   7.908  22.296  0.00  0.00    +0.000 HD
ENDBRANCH  19  20
ENDBRANCH   2  19
TORSDOF 5
ENDMDL
MODEL 3
REMARK VINA RESULT:      -8.2      2.856      8.191
REMARK  Name = 
REMARK  6 active torsions:
REMARK  status: ('A' for Active; 'I' for Inactive)
REMARK    1  A    between atoms: C_1  and  N_2
REMARK    2  A    between atoms: N_2  and  C_3
REMARK    3  A    between atoms: C_3  and  C_4
REMARK    4  A    between atoms: C_15  and  C_17
REMARK    5  A    between atoms: C_21  and  S_22
REMARK    6  A    between atoms: S_22  and  N_25
REMARK                            x       y       z     vdW  Elec       q    Type
REMARK                         _______ _______ _______ _____ _____    ______ ____
ROOT
ATOM      1  C   UNL     1       1.588   7.995  21.111  0.00  0.00    +0.000 C 
ATOM      2  N   UNL     1       2.048   7.360  19.882  0.00  0.00    +0.000 N 
ATOM      3  C   UNL     1       2.386   5.996  19.964  0.00  0.00    +0.000 C 
ATOM      4  O   UNL     1       2.268   5.355  21.009  0.00  0.00    +0.000 OA
ENDROOT
BRANCH   3   5
ATOM      5  C   UNL     1       2.867   5.244  18.762  0.00  0.00    +0.000 A 
ATOM      6  C   UNL     1       2.226   4.099  18.278  0.00  0.00    +0.000 A 
ATOM      7  C   UNL     1       2.796   3.330  17.266  0.00  0.00    +0.000 A 
ATOM      8  C   UNL     1       3.898   3.815  16.577  0.00  0.00    +0.000 A 
ATOM      9  C   UNL     1       4.400   5.078  16.895  0.00  0.00    +0.000 A 
ATOM     10  C   UNL     1       3.958   5.749  18.040  0.00  0.00    +0.000 A 
BRANCH   9  11
ATOM     11  S   UNL     1       5.552   5.857  15.780  0.00  0.00    +0.000 S 
ATOM     12  O   UNL     1       5.653   5.008  14.611  0.00  0.00    +0.000 OA
ATOM     13  O   UNL     1       5.160   7.245  15.669  0.00  0.00    +0.000 OA
BRANCH  11  14
ATOM     14  N   UNL     1       7.024   5.828  16.614  0.00  0.00    +0.000 NA
ATOM     15  C   UNL     1       7.433   4.635  17.368  0.00  0.00    +0.000 C 
ATOM     16  C   UNL     1       7.472   5.092  18.813  0.00  0.00    +0.000 C 
ATOM     17  C   UNL     1       7.877   6.553  18.738  0.00  0.00    +0.000 C 
ATOM     18  C   UNL     1       7.482   7.030  17.340  0.00  0.00    +0.000 C 
ENDBRANCH  11  14
ENDBRANCH   9  11
ENDBRANCH   3   5
BRANCH   2  19
ATOM     19  C   UNL     1       1.956   8.102  18.616  0.00  0.00    +0.000 C 
BRANCH  19  20
ATOM     20  C   UNL     1       1.352   9.495  18.558  0.00  0.00    +0.000 A 
ATOM     21  N   UNL     1       2.133  10.523  18.661  0.00  0.00    +0.000 NA
ATOM     22  C   UNL     1       1.552  11.799  18.581  0.00  0.00    +0.000 A 
ATOM     23  C   UNL     1       2.382  12.920  18.634  0.00  0.00    +0.000 A 
ATOM     24  C   UNL     1       1.830  14.206  18.586  0.00  0.00    +0.000 A 
ATOM     25  C   UNL     1       0.450  14.378  18.508  0.00  0.00    +0.000 A 
ATOM     26  C   UNL     1      -0.384  13.263  18.449  0.00  0.00    +0.000 A 
ATOM     27  C   UNL     1       0.176  11.984  18.476  0.00  0.00    +0.000 A 
ATOM     28  C   UNL     1      -0.666  10.779  18.381  0.00  0.00    +0.000 A 
ATOM     29  O   UNL     1      -1.888  10.834  18.335  0.00  0.00    +0.000 OA
ATOM     30  N   UNL     1       0.005   9.582  18.363  0.00  0.00    +0.000 N 
ATOM     31  H   UNL     1      -0.565   8.750  18.301  0.00  0.00    +0.000 HD
ENDBRANCH  19  20
ENDBRANCH   2  19
TORSDOF 5
ENDMDL
MODEL 4
REMARK VINA RESULT:      -7.9      3.093      8.522
REMARK  Name = 
REMARK  6 active torsions:
REMARK  status: ('A' for Active; 'I' for Inactive)
REMARK    1  A    between atoms: C_1  and  N_2
REMARK    2  A    between atoms: N_2  and  C_3
REMARK    3  A    between atoms: C_3  and  C_4
REMARK    4  A    between atoms: C_15  and  C_17
REMARK    5  A    between atoms: C_21  and  S_22
REMARK    6  A    between atoms: S_22  and  N_25
REMARK                            x       y       z     vdW  Elec       q    Type
REMARK                         _______ _______ _______ _____ _____    ______ ____
ROOT
ATOM      1  C   UNL     1       0.039   8.887  21.921  0.00  0.00    +0.000 C 
ATOM      2  N   UNL     1       0.882   8.733  20.742  0.00  0.00    +0.000 N 
ATOM      3  C   UNL     1       1.503   7.481  20.568  0.00  0.00    +0.000 C 
ATOM      4  O   UNL     1       1.319   6.547  21.349  0.00  0.00    +0.000 OA
ENDROOT
BRANCH   3   5
ATOM      5  C   UNL     1       2.387   7.212  19.391  0.00  0.00    +0.000 A 
ATOM      6  C   UNL     1       2.625   8.158  18.389  0.00  0.00    +0.000 A 
ATOM      7  C   UNL     1       3.312   7.817  17.226  0.00  0.00    +0.000 A 
ATOM      8  C   UNL     1       3.959   6.592  17.149  0.00  0.00    +0.000 A 
ATOM      9  C   UNL     1       3.929   5.733  18.250  0.00  0.00    +0.000 A 
ATOM     10  C   UNL     1       3.072   5.990  19.326  0.00  0.00    +0.000 A 
BRANCH   9  11
ATOM     11  S   UNL     1       5.055   4.353  18.301  0.00  0.00    +0.000 S 
ATOM     12  O   UNL     1       5.743   4.317  17.027  0.00  0.00    +0.000 OA
ATOM     13  O   UNL     1       5.784   4.447  19.546  0.00  0.00    +0.000 OA
BRANCH  11  14
ATOM     14  N   UNL     1       4.048   2.998  18.423  0.00  0.00    +0.000 NA
ATOM     15  C   UNL     1       2.961   2.785  17.458  0.00  0.00    +0.000 C 
ATOM     16  C   UNL     1       1.693   2.879  18.284  0.00  0.00    +0.000 C 
ATOM     17  C   UNL     1       2.089   2.345  19.649  0.00  0.00    +0.000 C 
ATOM     18  C   UNL     1       3.604   2.529  19.752  0.00  0.00    +0.000 C 
ENDBRANCH  11  14
ENDBRANCH   9  11
ENDBRANCH   3   5
BRANCH   2  19
ATOM     19  C   UNL     1       0.890   9.793  19.724  0.00  0.00    +0.000 C 
BRANCH  19  20
ATOM     20  C   UNL     1      -0.398  10.279  19.078  0.00  0.00    +0.000 A 
ATOM     21  N   UNL     1      -0.713   9.843  17.900  0.00  0.00    +0.000 NA
ATOM     22  C   UNL     1      -1.919  10.290  17.336  0.00  0.00    +0.000 A 
ATOM     23  C   UNL     1      -2.306   9.790  16.091  0.00  0.00    +0.000 A 
ATOM     24  C   UNL     1      -3.488  10.238  15.491  0.00  0.00    +0.000 A 
ATOM     25  C   UNL     1      -4.276  11.200  16.117  0.00  0.00    +0.000 A 
ATOM     26  C   UNL     1      -3.899  11.700  17.362  0.00  0.00    +0.000 A 
ATOM     27  C   UNL     1      -2.729  11.232  17.965  0.00  0.00    +0.000 A 
ATOM     28  C   UNL     1      -2.312  11.706  19.296  0.00  0.00    +0.000 A 
ATOM     29  O   UNL     1      -2.929  12.569  19.908  0.00  0.00    +0.000 OA
ATOM     30  N   UNL     1      -1.175  11.132  19.804  0.00  0.00    +0.000 N 
ATOM     31  H   UNL     1      -0.879  11.455  20.716  0.00  0.00    +0.000 HD
ENDBRANCH  19  20
ENDBRANCH   2  19
TORSDOF 5
ENDMDL
MODEL 5
REMARK VINA RESULT:      -7.8      2.791      8.106
REMARK  Name = 
REMARK  6 active torsions:
REMARK  status: ('A' for Active; 'I' for Inactive)
REMARK    1  A    between atoms: C_1  and  N_2
REMARK    2  A    between atoms: N_2  and  C_3
REMARK    3  A    between atoms: C_3  and  C_4
REMARK    4  A    between atoms: C_15  and  C_17
REMARK    5  A    between atoms: C_21  and  S_22
REMARK    6  A    between atoms: S_22  and  N_25
REMARK                            x       y       z     vdW  Elec       q    Type
REMARK                         _______ _______ _______ _____ _____    ______ ____
ROOT
ATOM      1  C   UNL     1       1.614   7.818  21.171  0.00  0.00    +0.000 C 
ATOM      2  N   UNL     1       2.060   7.216  19.921  0.00  0.00    +0.000 N 
ATOM      3  C   UNL     1       2.445   5.862  19.974  0.00  0.00    +0.000 C 
ATOM      4  O   UNL     1       2.377   5.204  21.013  0.00  0.00    +0.000 OA
ENDROOT
BRANCH   3   5
ATOM      5  C   UNL     1       2.916   5.142  18.749  0.00  0.00    +0.000 A 
ATOM      6  C   UNL     1       2.268   4.014  18.237  0.00  0.00    +0.000 A 
ATOM      7  C   UNL     1       2.829   3.272  17.200  0.00  0.00    +0.000 A 
ATOM      8  C   UNL     1       3.929   3.772  16.518  0.00  0.00    +0.000 A 
ATOM      9  C   UNL     1       4.438   5.024  16.868  0.00  0.00    +0.000 A 
ATOM     10  C   UNL     1       4.004   5.664  18.035  0.00  0.00    +0.000 A 
BRANCH   9  11
ATOM     11  S   UNL     1       5.586   5.830  15.770  0.00  0.00    +0.000 S 
ATOM     12  O   UNL     1       5.707   4.994  14.593  0.00  0.00    +0.000 OA
ATOM     13  O   UNL     1       5.175   7.214  15.669  0.00  0.00    +0.000 OA
BRANCH  11  14
ATOM     14  N   UNL     1       7.052   5.814  16.613  0.00  0.00    +0.000 NA
ATOM     15  C   UNL     1       7.468   4.623  17.366  0.00  0.00    +0.000 C 
ATOM     16  C   UNL     1       7.493   5.077  18.813  0.00  0.00    +0.000 C 
ATOM     17  C   UNL     1       7.885   6.542  18.744  0.00  0.00    +0.000 C 
ATOM     18  C   UNL     1       7.494   7.019  17.344  0.00  0.00    +0.000 C 
ENDBRANCH  11  14
ENDBRANCH   9  11
ENDBRANCH   3   5
BRANCH   2  19
ATOM     19  C   UNL     1       1.908   7.970  18.669  0.00  0.00    +0.000 C 
BRANCH  19  20
ATOM     20  C   UNL     1       1.496   9.433  18.673  0.00  0.00    +0.000 A 
ATOM     21  N   UNL     1       0.302   9.749  19.064  0.00  0.00    +0.000 NA
ATOM     22  C   UNL     1      -0.045  11.109  19.079  0.00  0.00    +0.000 A 
ATOM     23  C   UNL     1      -1.307  11.476  19.549  0.00  0.00    +0.000 A 
ATOM     24  C   UNL     1      -1.693  12.822  19.550  0.00  0.00    +0.000 A 
ATOM     25  C   UNL     1      -0.832  13.802  19.062  0.00  0.00    +0.000 A 
ATOM     26  C   UNL     1       0.432  13.443  18.596  0.00  0.00    +0.000 A 
ATOM     27  C   UNL     1       0.817  12.101  18.618  0.00  0.00    +0.000 A 
ATOM     28  C   UNL     1       2.156  11.683  18.169  0.00  0.00    +0.000 A 
ATOM     29  O   UNL     1       2.967  12.472  17.701  0.00  0.00    +0.000 OA
ATOM     30  N   UNL     1       2.435  10.345  18.290  0.00  0.00    +0.000 N 
ATOM     31  H   UNL     1       3.350  10.049  17.980  0.00  0.00    +0.000 HD
ENDBRANCH  19  20
ENDBRANCH   2  19
TORSDOF 5
ENDMDL
MODEL 6
REMARK VINA RESULT:      -7.7      3.290      5.179
REMARK  Name = 
REMARK  6 active torsions:
REMARK  status: ('A' for Active; 'I' for Inactive)
REMARK    1  A    between atoms: C_1  and  N_2
REMARK    2  A    between atoms: N_2  and  C_3
REMARK    3  A    between atoms: C_3  and  C_4
REMARK    4  A    between atoms: C_15  and  C_17
REMARK    5  A    between atoms: C_21  and  S_22
REMARK    6  A    between atoms: S_22  and  N_25
REMARK                            x       y       z     vdW  Elec       q    Type
REMARK                         _______ _______ _______ _____ _____    ______ ____
ROOT
ATOM      1  C   UNL     1       2.011   7.615  21.062  0.00  0.00    +0.000 C 
ATOM      2  N   UNL     1       1.483   8.564  20.089  0.00  0.00    +0.000 N 
ATOM      3  C   UNL     1       0.690   9.611  20.595  0.00  0.00    +0.000 C 
ATOM      4  O   UNL     1       0.479   9.747  21.801  0.00  0.00    +0.000 OA
ENDROOT
BRANCH   3   5
ATOM      5  C   UNL     1       0.099  10.644  19.687  0.00  0.00    +0.000 A 
ATOM      6  C   UNL     1       0.767  11.822  19.342  0.00  0.00    +0.000 A 
ATOM      7  C   UNL     1       0.122  12.835  18.636  0.00  0.00    +0.000 A 
ATOM      8  C   UNL     1      -1.124  12.591  18.076  0.00  0.00    +0.000 A 
ATOM      9  C   UNL     1      -1.697  11.325  18.211  0.00  0.00    +0.000 A 
ATOM     10  C   UNL     1      -1.144  10.386  19.090  0.00  0.00    +0.000 A 
BRANCH   9  11
ATOM     11  S   UNL     1      -3.093  10.894  17.191  0.00  0.00    +0.000 S 
ATOM     12  O   UNL     1      -2.759  11.271  15.833  0.00  0.00    +0.000 OA
ATOM     13  O   UNL     1      -3.457   9.534  17.525  0.00  0.00    +0.000 OA
BRANCH  11  14
ATOM     14  N   UNL     1      -4.341  11.889  17.750  0.00  0.00    +0.000 NA
ATOM     15  C   UNL     1      -4.665  11.949  19.182  0.00  0.00    +0.000 C 
ATOM     16  C   UNL     1      -6.070  11.386  19.279  0.00  0.00    +0.000 C 
ATOM     17  C   UNL     1      -6.730  11.787  17.972  0.00  0.00    +0.000 C 
ATOM     18  C   UNL     1      -5.593  12.006  16.973  0.00  0.00    +0.000 C 
ENDBRANCH  11  14
ENDBRANCH   9  11
ENDBRANCH   3   5
BRANCH   2  19
ATOM     19  C   UNL     1       1.946   8.494  18.696  0.00  0.00    +0.000 C 
BRANCH  19  20
ATOM     20  C   UNL     1       2.709   7.286  18.176  0.00  0.00    +0.000 A 
ATOM     21  N   UNL     1       3.897   7.455  17.688  0.00  0.00    +0.000 NA
ATOM     22  C   UNL     1       4.588   6.320  17.236  0.00  0.00    +0.000 A 
ATOM     23  C   UNL     1       5.891   6.472  16.758  0.00  0.00    +0.000 A 
ATOM     24  C   UNL     1       6.595   5.364  16.274  0.00  0.00    +0.000 A 
ATOM     25  C   UNL     1       5.997   4.106  16.243  0.00  0.00    +0.000 A 
ATOM     26  C   UNL     1       4.698   3.947  16.724  0.00  0.00    +0.000 A 
ATOM     27  C   UNL     1       4.010   5.054  17.225  0.00  0.00    +0.000 A 
ATOM     28  C   UNL     1       2.650   4.923  17.776  0.00  0.00    +0.000 A 
ATOM     29  O   UNL     1       2.037   3.862  17.766  0.00  0.00    +0.000 OA
ATOM     30  N   UNL     1       2.101   6.071  18.287  0.00  0.00    +0.000 N 
ATOM     31  H   UNL     1       1.166   5.991  18.664  0.00  0.00    +0.000 HD
ENDBRANCH  19  20
ENDBRANCH   2  19
TORSDOF 5
ENDMDL
MODEL 7
REMARK VINA RESULT:      -7.5      0.880      1.234
REMARK  Name = 
REMARK  6 active torsions:
REMARK  status: ('A' for Active; 'I' for Inactive)
REMARK    1  A    between atoms: C_1  and  N_2
REMARK    2  A    between atoms: N_2  and  C_3
REMARK    3  A    between atoms: C_3  and  C_4
REMARK    4  A    between atoms: C_15  and  C_17
REMARK    5  A    between atoms: C_21  and  S_22
REMARK    6  A    between atoms: S_22  and  N_25
REMARK                            x       y       z     vdW  Elec       q    Type
REMARK                         _______ _______ _______ _____ _____    ______ ____
ROOT
ATOM      1  C   UNL     1       3.100   2.115  18.952  0.00  0.00    +0.000 C 
ATOM      2  N   UNL     1       3.240   3.566  18.936  0.00  0.00    +0.000 N 
ATOM      3  C   UNL     1       2.059   4.316  19.096  0.00  0.00    +0.000 C 
ATOM      4  O   UNL     1       0.965   3.781  19.278  0.00  0.00    +0.000 OA
ENDROOT
BRANCH   3   5
ATOM      5  C   UNL     1       2.087   5.813  19.099  0.00  0.00    +0.000 A 
ATOM      6  C   UNL     1       2.494   6.565  17.993  0.00  0.00    +0.000 A 
ATOM      7  C   UNL     1       2.670   7.944  18.087  0.00  0.00    +0.000 A 
ATOM      8  C   UNL     1       2.230   8.614  19.219  0.00  0.00    +0.000 A 
ATOM      9  C   UNL     1       1.595   7.895  20.234  0.00  0.00    +0.000 A 
ATOM     10  C   UNL     1       1.609   6.495  20.227  0.00  0.00    +0.000 A 
BRANCH   9  11
ATOM     11  S   UNL     1       0.702   8.783  21.495  0.00  0.00    +0.000 S 
ATOM     12  O   UNL     1      -0.427   7.959  21.875  0.00  0.00    +0.000 OA
ATOM     13  O   UNL     1       1.674   9.223  22.472  0.00  0.00    +0.000 OA
BRANCH  11  14
ATOM     14  N   UNL     1       0.135  10.168  20.707  0.00  0.00    +0.000 NA
ATOM     15  C   UNL     1      -0.988  10.085  19.763  0.00  0.00    +0.000 C 
ATOM     16  C   UNL     1      -0.389  10.471  18.424  0.00  0.00    +0.000 C 
ATOM     17  C   UNL     1       0.702  11.468  18.769  0.00  0.00    +0.000 C 
ATOM     18  C   UNL     1       1.093  11.182  20.220  0.00  0.00    +0.000 C 
ENDBRANCH  11  14
ENDBRANCH   9  11
ENDBRANCH   3   5
BRANCH   2  19
ATOM     19  C   UNL     1       4.587   4.156  18.946  0.00  0.00    +0.000 C 
BRANCH  19  20
ATOM     20  C   UNL     1       5.313   4.488  17.653  0.00  0.00    +0.000 A 
ATOM     21  N   UNL     1       5.085   3.767  16.600  0.00  0.00    +0.000 NA
ATOM     22  C   UNL     1       5.752   4.110  15.414  0.00  0.00    +0.000 A 
ATOM     23  C   UNL     1       5.479   3.382  14.254  0.00  0.00    +0.000 A 
ATOM     24  C   UNL     1       6.149   3.681  13.062  0.00  0.00    +0.000 A 
ATOM     25  C   UNL     1       7.108   4.690  13.027  0.00  0.00    +0.000 A 
ATOM     26  C   UNL     1       7.382   5.424  14.179  0.00  0.00    +0.000 A 
ATOM     27  C   UNL     1       6.694   5.134  15.359  0.00  0.00    +0.000 A 
ATOM     28  C   UNL     1       6.926   5.909  16.590  0.00  0.00    +0.000 A 
ATOM     29  O   UNL     1       7.768   6.796  16.658  0.00  0.00    +0.000 OA
ATOM     30  N   UNL     1       6.150   5.564  17.667  0.00  0.00    +0.000 N 
ATOM     31  H   UNL     1       6.306   6.088  18.518  0.00  0.00    +0.000 HD
ENDBRANCH  19  20
ENDBRANCH   2  19
TORSDOF 5
ENDMDL
MODEL 8
REMARK VINA RESULT:      -7.5      1.025      1.338
REMARK  Name = 
REMARK  6 active torsions:
REMARK  status: ('A' for Active; 'I' for Inactive)
REMARK    1  A    between atoms: C_1  and  N_2
REMARK    2  A    between atoms: N_2  and  C_3
REMARK    3  A    between atoms: C_3  and  C_4
REMARK    4  A    between atoms: C_15  and  C_17
REMARK    5  A    between atoms: C_21  and  S_22
REMARK    6  A    between atoms: S_22  and  N_25
REMARK                            x       y       z     vdW  Elec       q    Type
REMARK                         _______ _______ _______ _____ _____    ______ ____
ROOT
ATOM      1  C   UNL     1       3.253   3.337  20.329  0.00  0.00    +0.000 C 
ATOM      2  N   UNL     1       3.302   4.719  19.867  0.00  0.00    +0.000 N 
ATOM      3  C   UNL     1       2.080   5.416  19.831  0.00  0.00    +0.000 C 
ATOM      4  O   UNL     1       1.024   4.904  20.204  0.00  0.00    +0.000 OA
ENDROOT
BRANCH   3   5
ATOM      5  C   UNL     1       2.014   6.841  19.376  0.00  0.00    +0.000 A 
ATOM      6  C   UNL     1       2.197   7.220  18.043  0.00  0.00    +0.000 A 
ATOM      7  C   UNL     1       2.298   8.563  17.685  0.00  0.00    +0.000 A 
ATOM      8  C   UNL     1       1.999   9.544  18.619  0.00  0.00    +0.000 A 
ATOM      9  C   UNL     1       1.576   9.166  19.895  0.00  0.00    +0.000 A 
ATOM     10  C   UNL     1       1.676   7.833  20.308  0.00  0.00    +0.000 A 
BRANCH   9  11
ATOM     11  S   UNL     1       0.836  10.389  20.959  0.00  0.00    +0.000 S 
ATOM     12  O   UNL     1       0.806   9.828  22.294  0.00  0.00    +0.000 OA
ATOM     13  O   UNL     1       1.499  11.645  20.686  0.00  0.00    +0.000 OA
BRANCH  11  14
ATOM     14  N   UNL     1      -0.749  10.536  20.386  0.00  0.00    +0.000 NA
ATOM     15  C   UNL     1      -1.073  10.210  18.990  0.00  0.00    +0.000 C 
ATOM     16  C   UNL     1      -1.521  11.527  18.385  0.00  0.00    +0.000 C 
ATOM     17  C   UNL     1      -2.178  12.269  19.536  0.00  0.00    +0.000 C 
ATOM     18  C   UNL     1      -1.584  11.677  20.815  0.00  0.00    +0.000 C 
ENDBRANCH  11  14
ENDBRANCH   9  11
ENDBRANCH   3   5
BRANCH   2  19
ATOM     19  C   UNL     1       4.609   5.355  19.651  0.00  0.00    +0.000 C 
BRANCH  19  20
ATOM     20  C   UNL     1       5.278   5.345  18.286  0.00  0.00    +0.000 A 
ATOM     21  N   UNL     1       4.886   4.485  17.400  0.00  0.00    +0.000 NA
ATOM     22  C   UNL     1       5.504   4.512  16.141  0.00  0.00    +0.000 A 
ATOM     23  C   UNL     1       5.059   3.631  15.153  0.00  0.00    +0.000 A 
ATOM     24  C   UNL     1       5.675   3.614  13.897  0.00  0.00    +0.000 A 
ATOM     25  C   UNL     1       6.748   4.458  13.626  0.00  0.00    +0.000 A 
ATOM     26  C   UNL     1       7.195   5.345  14.605  0.00  0.00    +0.000 A 
ATOM     27  C   UNL     1       6.561   5.370  15.850  0.00  0.00    +0.000 A 
ATOM     28  C   UNL     1       6.977   6.315  16.900  0.00  0.00    +0.000 A 
ATOM     29  O   UNL     1       7.927   7.075  16.760  0.00  0.00    +0.000 OA
ATOM     30  N   UNL     1       6.243   6.281  18.058  0.00  0.00    +0.000 N 
ATOM     31  H   UNL     1       6.524   6.924  18.786  0.00  0.00    +0.000 HD
ENDBRANCH  19  20
ENDBRANCH   2  19
TORSDOF 5
ENDMDL
MODEL 9
REMARK VINA RESULT:      -7.5      2.825      8.915
REMARK  Name = 
REMARK  6 active torsions:
REMARK  status: ('A' for Active; 'I' for Inactive)
REMARK    1  A    between atoms: C_1  and  N_2
REMARK    2  A    between atoms: N_2  and  C_3
REMARK    3  A    between atoms: C_3  and  C_4
REMARK    4  A    between atoms: C_15  and  C_17
REMARK    5  A    between atoms: C_21  and  S_22
REMARK    6  A    between atoms: S_22  and  N_25
REMARK                            x       y       z     vdW  Elec       q    Type
REMARK                         _______ _______ _______ _____ _____    ______ ____
ROOT
ATOM      1  C   UNL     1       0.842   4.569  20.551  0.00  0.00    +0.000 C 
ATOM      2  N   UNL     1       1.912   5.276  19.860  0.00  0.00    +0.000 N 
ATOM      3  C   UNL     1       2.232   4.827  18.564  0.00  0.00    +0.000 C 
ATOM      4  O   UNL     1       1.618   3.907  18.022  0.00  0.00    +0.000 OA
ENDROOT
BRANCH   3   5
ATOM      5  C   UNL     1       3.312   5.483  17.761  0.00  0.00    +0.000 A 
ATOM      6  C   UNL     1       3.599   6.848  17.850  0.00  0.00    +0.000 A 
ATOM      7  C   UNL     1       4.491   7.454  16.968  0.00  0.00    +0.000 A 
ATOM      8  C   UNL     1       5.270   6.665  16.134  0.00  0.00    +0.000 A 
ATOM      9  C   UNL     1       5.163   5.275  16.213  0.00  0.00    +0.000 A 
ATOM     10  C   UNL     1       4.126   4.684  16.945  0.00  0.00    +0.000 A 
BRANCH   9  11
ATOM     11  S   UNL     1       6.409   4.265  15.437  0.00  0.00    +0.000 S 
ATOM     12  O   UNL     1       7.696   4.791  15.841  0.00  0.00    +0.000 OA
ATOM     13  O   UNL     1       6.050   2.885  15.684  0.00  0.00    +0.000 OA
BRANCH  11  14
ATOM     14  N   UNL     1       6.195   4.538  13.781  0.00  0.00    +0.000 NA
ATOM     15  C   UNL     1       5.219   3.753  13.013  0.00  0.00    +0.000 C 
ATOM     16  C   UNL     1       6.056   2.969  12.021  0.00  0.00    +0.000 C 
ATOM     17  C   UNL     1       7.237   3.875  11.721  0.00  0.00    +0.000 C 
ATOM     18  C   UNL     1       7.366   4.812  12.923  0.00  0.00    +0.000 C 
ENDBRANCH  11  14
ENDBRANCH   9  11
ENDBRANCH   3   5
BRANCH   2  19
ATOM     19  C   UNL     1       2.457   6.506  20.452  0.00  0.00    +0.000 C 
BRANCH  19  20
ATOM     20  C   UNL     1       1.615   7.765  20.575  0.00  0.00    +0.000 A 
ATOM     21  N   UNL     1       1.060   8.041  21.713  0.00  0.00    +0.000 NA
ATOM     22  C   UNL     1       0.306   9.221  21.805  0.00  0.00    +0.000 A 
ATOM     23  C   UNL     1      -0.255   9.567  23.036  0.00  0.00    +0.000 A 
ATOM     24  C   UNL     1      -1.036  10.723  23.153  0.00  0.00    +0.000 A 
ATOM     25  C   UNL     1      -1.278  11.526  22.041  0.00  0.00    +0.000 A 
ATOM     26  C   UNL     1      -0.716  11.190  20.810  0.00  0.00    +0.000 A 
ATOM     27  C   UNL     1       0.079  10.046  20.707  0.00  0.00    +0.000 A 
ATOM     28  C   UNL     1       0.721   9.675  19.434  0.00  0.00    +0.000 A 
ATOM     29  O   UNL     1       0.543  10.307  18.400  0.00  0.00    +0.000 OA
ATOM     30  N   UNL     1       1.521   8.561  19.473  0.00  0.00    +0.000 N 
ATOM     31  H   UNL     1       1.962   8.296  18.602  0.00  0.00    +0.000 HD
ENDBRANCH  19  20
ENDBRANCH   2  19
TORSDOF 5
ENDMDL
