MODEL 1
REMARK VINA RESULT:      -8.9      0.000      0.000
REMARK  Name = 
REMARK  3 active torsions:
REMARK  status: ('A' for Active; 'I' for Inactive)
REMARK    1  A    between atoms: C_2  and  C_13
REMARK    2  A    between atoms: N_3  and  C_4
REMARK    3  A    between atoms: C_13  and  C_14
REMARK                            x       y       z     vdW  Elec       q    Type
REMARK                         _______ _______ _______ _____ _____    ______ ____
ROOT
ATOM      1  O   UNL     1       1.445   4.805  17.650  0.00  0.00    +0.000 OA
ATOM      2  C   UNL     1       2.472   4.915  18.320  0.00  0.00    +0.000 C 
ATOM      3  N   UNL     1       2.803   6.089  18.968  0.00  0.00    +0.000 N 
ATOM      4  H   UNL     1       3.637   6.109  19.540  0.00  0.00    +0.000 HD
ENDROOT
BRANCH   3   5
ATOM      5  C   UNL     1       2.015   7.321  18.920  0.00  0.00    +0.000 C 
ATOM      6  C   UNL     1       2.618   8.400  18.004  0.00  0.00    +0.000 C 
ATOM      7  C   UNL     1       1.641   9.568  17.843  0.00  0.00    +0.000 C 
ATOM      8  N   UNL     1       1.059   9.972  19.109  0.00  0.00    +0.000 N 
ATOM      9  N   UNL     1       0.400  11.136  19.221  0.00  0.00    +0.000 NA
ATOM     10  C   UNL     1      -0.010  11.142  20.492  0.00  0.00    +0.000 A 
ATOM     11  C   UNL     1       0.353   9.966  21.179  0.00  0.00    +0.000 A 
ATOM     12  C   UNL     1       1.034   9.214  20.250  0.00  0.00    +0.000 A 
ATOM     13  C   UNL     1       1.705   7.889  20.323  0.00  0.00    +0.000 C 
ENDBRANCH   3   5
BRANCH   2  14
ATOM     14  C   UNL     1       3.516   3.771  18.424  0.00  0.00    +0.000 C 
ATOM     15  C   UNL     1       2.926   2.486  17.778  0.00  0.00    +0.000 C 
ATOM     16  C   UNL     1       3.634   1.309  18.451  0.00  0.00    +0.000 C 
ATOM     17  C   UNL     1       4.175   1.839  19.773  0.00  0.00    +0.000 C 
ATOM     18  C   UNL     1       3.651   3.268  19.881  0.00  0.00    +0.000 C 
BRANCH  14  19
ATOM     19  C   UNL     1       4.835   4.159  17.725  0.00  0.00    +0.000 A 
ATOM     20  C   UNL     1       5.942   4.686  18.414  0.00  0.00    +0.000 A 
ATOM     21  C   UNL     1       7.160   4.902  17.764  0.00  0.00    +0.000 A 
ATOM     22  F   UNL     1       8.202   5.356  18.473  0.00  0.00    +0.000 F 
ATOM     23  C   UNL     1       7.316   4.637  16.416  0.00  0.00    +0.000 A 
ATOM     24  C   UNL     1       6.222   4.163  15.710  0.00  0.00    +0.000 A 
ATOM     25  F   UNL     1       6.350   3.903  14.403  0.00  0.00    +0.000 F 
ATOM     26  C   UNL     1       4.998   3.929  16.342  0.00  0.00    +0.000 A 
ENDBRANCH  14  19
ENDBRANCH   2  14
TORSDOF 3
ENDMDL
MODEL 2
REMARK VINA RESULT:      -8.8      0.165      1.645
REMARK  Name = 
REMARK  3 active torsions:
REMARK  status: ('A' for Active; 'I' for Inactive)
REMARK    1  A    between atoms: C_2  and  C_13
REMARK    2  A    between atoms: N_3  and  C_4
REMARK    3  A    between atoms: C_13  and  C_14
REMARK                            x       y       z     vdW  Elec       q    Type
REMARK                         _______ _______ _______ _____ _____    ______ ____
ROOT
ATOM      1  O   UNL     1       1.561   4.806  17.523  0.00  0.00    +0.000 OA
ATOM      2  C   UNL     1       2.541   4.886  18.264  0.00  0.00    +0.000 C 
ATOM      3  N   UNL     1       2.827   6.032  18.982  0.00  0.00    +0.000 N 
ATOM      4  H   UNL     1       3.621   6.026  19.607  0.00  0.00    +0.000 HD
ENDROOT
BRANCH   3   5
ATOM      5  C   UNL     1       2.041   7.265  18.933  0.00  0.00    +0.000 C 
ATOM      6  C   UNL     1       2.640   8.338  18.008  0.00  0.00    +0.000 C 
ATOM      7  C   UNL     1       1.664   9.509  17.849  0.00  0.00    +0.000 C 
ATOM      8  N   UNL     1       1.093   9.919  19.117  0.00  0.00    +0.000 N 
ATOM      9  N   UNL     1       0.439  11.086  19.229  0.00  0.00    +0.000 NA
ATOM     10  C   UNL     1       0.038  11.099  20.504  0.00  0.00    +0.000 A 
ATOM     11  C   UNL     1       0.404   9.925  21.193  0.00  0.00    +0.000 A 
ATOM     12  C   UNL     1       1.076   9.167  20.262  0.00  0.00    +0.000 A 
ATOM     13  C   UNL     1       1.744   7.841  20.336  0.00  0.00    +0.000 C 
ENDBRANCH   3   5
BRANCH   2  14
ATOM     14  C   UNL     1       3.578   3.738  18.388  0.00  0.00    +0.000 C 
ATOM     15  C   UNL     1       2.954   2.429  17.827  0.00  0.00    +0.000 C 
ATOM     16  C   UNL     1       3.675   1.280  18.533  0.00  0.00    +0.000 C 
ATOM     17  C   UNL     1       4.267   1.868  19.807  0.00  0.00    +0.000 C 
ATOM     18  C   UNL     1       3.761   3.306  19.862  0.00  0.00    +0.000 C 
BRANCH  14  19
ATOM     19  C   UNL     1       4.875   4.077  17.624  0.00  0.00    +0.000 A 
ATOM     20  C   UNL     1       5.025   3.873  16.241  0.00  0.00    +0.000 A 
ATOM     21  C   UNL     1       6.168   4.312  15.567  0.00  0.00    +0.000 A 
ATOM     22  F   UNL     1       6.244   4.143  14.240  0.00  0.00    +0.000 F 
ATOM     23  C   UNL     1       7.207   4.933  16.236  0.00  0.00    +0.000 A 
ATOM     24  C   UNL     1       7.097   5.099  17.608  0.00  0.00    +0.000 A 
ATOM     25  F   UNL     1       8.093   5.694  18.276  0.00  0.00    +0.000 F 
ATOM     26  C   UNL     1       5.958   4.677  18.300  0.00  0.00    +0.000 A 
ENDBRANCH  14  19
ENDBRANCH   2  14
TORSDOF 3
ENDMDL
MODEL 3
REMARK VINA RESULT:      -8.3      1.289      2.457
REMARK  Name = 
REMARK  3 active torsions:
REMARK  status: ('A' for Active; 'I' for Inactive)
REMARK    1  A    between atoms: C_2  and  C_13
REMARK    2  A    between atoms: N_3  and  C_4
REMARK    3  A    between atoms: C_13  and  C_14
REMARK                            x       y       z     vdW  Elec       q    Type
REMARK                         _______ _______ _______ _____ _____    ______ ____
ROOT
ATOM      1  O   UNL     1       3.561   7.267  17.895  0.00  0.00    +0.000 OA
ATOM      2  C   UNL     1       3.018   6.416  18.601  0.00  0.00    +0.000 C 
ATOM      3  N   UNL     1       2.201   6.755  19.662  0.00  0.00    +0.000 N 
ATOM      4  H   UNL     1       1.747   6.015  20.180  0.00  0.00    +0.000 HD
ENDROOT
BRANCH   3   5
ATOM      5  C   UNL     1       1.909   8.124  20.087  0.00  0.00    +0.000 C 
ATOM      6  C   UNL     1       1.062   8.201  21.369  0.00  0.00    +0.000 C 
ATOM      7  C   UNL     1       0.974   9.649  21.862  0.00  0.00    +0.000 C 
ATOM      8  N   UNL     1       0.696  10.578  20.783  0.00  0.00    +0.000 N 
ATOM      9  N   UNL     1       0.313  11.838  21.045  0.00  0.00    +0.000 NA
ATOM     10  C   UNL     1       0.187  12.384  19.831  0.00  0.00    +0.000 A 
ATOM     11  C   UNL     1       0.526  11.485  18.801  0.00  0.00    +0.000 A 
ATOM     12  C   UNL     1       0.869  10.321  19.449  0.00  0.00    +0.000 A 
ATOM     13  C   UNL     1       1.295   8.983  18.959  0.00  0.00    +0.000 C 
ENDBRANCH   3   5
BRANCH   2  14
ATOM     14  C   UNL     1       3.271   4.898  18.405  0.00  0.00    +0.000 C 
ATOM     15  C   UNL     1       2.086   4.284  17.608  0.00  0.00    +0.000 C 
ATOM     16  C   UNL     1       2.034   2.806  17.996  0.00  0.00    +0.000 C 
ATOM     17  C   UNL     1       2.759   2.691  19.331  0.00  0.00    +0.000 C 
ATOM     18  C   UNL     1       3.095   4.124  19.733  0.00  0.00    +0.000 C 
BRANCH  14  19
ATOM     19  C   UNL     1       4.598   4.649  17.657  0.00  0.00    +0.000 A 
ATOM     20  C   UNL     1       4.663   4.386  16.278  0.00  0.00    +0.000 A 
ATOM     21  C   UNL     1       5.892   4.294  15.617  0.00  0.00    +0.000 A 
ATOM     22  F   UNL     1       5.903   4.094  14.293  0.00  0.00    +0.000 F 
ATOM     23  C   UNL     1       7.088   4.427  16.298  0.00  0.00    +0.000 A 
ATOM     24  C   UNL     1       7.044   4.638  17.667  0.00  0.00    +0.000 A 
ATOM     25  F   UNL     1       8.191   4.765  18.346  0.00  0.00    +0.000 F 
ATOM     26  C   UNL     1       5.826   4.744  18.345  0.00  0.00    +0.000 A 
ENDBRANCH  14  19
ENDBRANCH   2  14
TORSDOF 3
ENDMDL
MODEL 4
REMARK VINA RESULT:      -8.3      2.211      3.130
REMARK  Name = 
REMARK  3 active torsions:
REMARK  status: ('A' for Active; 'I' for Inactive)
REMARK    1  A    between atoms: C_2  and  C_13
REMARK    2  A    between atoms: N_3  and  C_4
REMARK    3  A    between atoms: C_13  and  C_14
REMARK                            x       y       z     vdW  Elec       q    Type
REMARK                         _______ _______ _______ _____ _____    ______ ____
ROOT
ATOM      1  O   UNL     1       2.853   5.026  17.951  0.00  0.00    +0.000 OA
ATOM      2  C   UNL     1       3.705   5.838  17.586  0.00  0.00    +0.000 C 
ATOM      3  N   UNL     1       3.532   7.200  17.737  0.00  0.00    +0.000 N 
ATOM      4  H   UNL     1       4.283   7.817  17.458  0.00  0.00    +0.000 HD
ENDROOT
BRANCH   3   5
ATOM      5  C   UNL     1       2.342   7.834  18.304  0.00  0.00    +0.000 C 
ATOM      6  C   UNL     1       2.122   9.276  17.816  0.00  0.00    +0.000 C 
ATOM      7  C   UNL     1       0.759   9.795  18.285  0.00  0.00    +0.000 C 
ATOM      8  N   UNL     1       0.506   9.483  19.679  0.00  0.00    +0.000 N 
ATOM      9  N   UNL     1      -0.494  10.081  20.344  0.00  0.00    +0.000 NA
ATOM     10  C   UNL     1      -0.437   9.526  21.559  0.00  0.00    +0.000 A 
ATOM     11  C   UNL     1       0.574   8.548  21.655  0.00  0.00    +0.000 A 
ATOM     12  C   UNL     1       1.162   8.529  20.412  0.00  0.00    +0.000 A 
ATOM     13  C   UNL     1       2.299   7.754  19.847  0.00  0.00    +0.000 C 
ENDBRANCH   3   5
BRANCH   2  14
ATOM     14  C   UNL     1       5.002   5.400  16.857  0.00  0.00    +0.000 C 
ATOM     15  C   UNL     1       4.946   5.889  15.382  0.00  0.00    +0.000 C 
ATOM     16  C   UNL     1       5.835   4.936  14.584  0.00  0.00    +0.000 C 
ATOM     17  C   UNL     1       5.945   3.663  15.414  0.00  0.00    +0.000 C 
ATOM     18  C   UNL     1       5.013   3.873  16.603  0.00  0.00    +0.000 C 
BRANCH  14  19
ATOM     19  C   UNL     1       6.253   5.970  17.558  0.00  0.00    +0.000 A 
ATOM     20  C   UNL     1       6.860   7.179  17.176  0.00  0.00    +0.000 A 
ATOM     21  C   UNL     1       7.912   7.725  17.917  0.00  0.00    +0.000 A 
ATOM     22  F   UNL     1       8.425   8.905  17.545  0.00  0.00    +0.000 F 
ATOM     23  C   UNL     1       8.415   7.083  19.035  0.00  0.00    +0.000 A 
ATOM     24  C   UNL     1       7.860   5.867  19.398  0.00  0.00    +0.000 A 
ATOM     25  F   UNL     1       8.336   5.227  20.474  0.00  0.00    +0.000 F 
ATOM     26  C   UNL     1       6.801   5.309  18.676  0.00  0.00    +0.000 A 
ENDBRANCH  14  19
ENDBRANCH   2  14
TORSDOF 3
ENDMDL
MODEL 5
REMARK VINA RESULT:      -8.3      2.163      2.946
REMARK  Name = 
REMARK  3 active torsions:
REMARK  status: ('A' for Active; 'I' for Inactive)
REMARK    1  A    between atoms: C_2  and  C_13
REMARK    2  A    between atoms: N_3  and  C_4
REMARK    3  A    between atoms: C_13  and  C_14
REMARK                            x       y       z     vdW  Elec       q    Type
REMARK                         _______ _______ _______ _____ _____    ______ ____
ROOT
ATOM      1  O   UNL     1       2.605   5.135  17.734  0.00  0.00    +0.000 OA
ATOM      2  C   UNL     1       3.544   5.913  17.559  0.00  0.00    +0.000 C 
ATOM      3  N   UNL     1       3.446   7.259  17.853  0.00  0.00    +0.000 N 
ATOM      4  H   UNL     1       4.262   7.842  17.730  0.00  0.00    +0.000 HD
ENDROOT
BRANCH   3   5
ATOM      5  C   UNL     1       2.244   7.917  18.366  0.00  0.00    +0.000 C 
ATOM      6  C   UNL     1       2.039   9.338  17.814  0.00  0.00    +0.000 C 
ATOM      7  C   UNL     1       0.667   9.878  18.230  0.00  0.00    +0.000 C 
ATOM      8  N   UNL     1       0.381   9.623  19.629  0.00  0.00    +0.000 N 
ATOM      9  N   UNL     1      -0.633  10.249  20.246  0.00  0.00    +0.000 NA
ATOM     10  C   UNL     1      -0.605   9.744  21.483  0.00  0.00    +0.000 A 
ATOM     11  C   UNL     1       0.401   8.771  21.643  0.00  0.00    +0.000 A 
ATOM     12  C   UNL     1       1.018   8.700  20.416  0.00  0.00    +0.000 A 
ATOM     13  C   UNL     1       2.165   7.900  19.909  0.00  0.00    +0.000 C 
ENDBRANCH   3   5
BRANCH   2  14
ATOM     14  C   UNL     1       4.883   5.458  16.921  0.00  0.00    +0.000 C 
ATOM     15  C   UNL     1       4.924   5.928  15.439  0.00  0.00    +0.000 C 
ATOM     16  C   UNL     1       5.857   4.959  14.712  0.00  0.00    +0.000 C 
ATOM     17  C   UNL     1       5.907   3.698  15.565  0.00  0.00    +0.000 C 
ATOM     18  C   UNL     1       4.902   3.928  16.689  0.00  0.00    +0.000 C 
BRANCH  14  19
ATOM     19  C   UNL     1       6.089   6.033  17.693  0.00  0.00    +0.000 A 
ATOM     20  C   UNL     1       6.700   5.363  18.767  0.00  0.00    +0.000 A 
ATOM     21  C   UNL     1       7.868   5.857  19.355  0.00  0.00    +0.000 A 
ATOM     22  F   UNL     1       8.444   5.157  20.342  0.00  0.00    +0.000 F 
ATOM     23  C   UNL     1       8.449   7.036  18.925  0.00  0.00    +0.000 A 
ATOM     24  C   UNL     1       7.834   7.734  17.899  0.00  0.00    +0.000 A 
ATOM     25  F   UNL     1       8.378   8.880  17.470  0.00  0.00    +0.000 F 
ATOM     26  C   UNL     1       6.671   7.253  17.290  0.00  0.00    +0.000 A 
ENDBRANCH  14  19
ENDBRANCH   2  14
TORSDOF 3
ENDMDL
MODEL 6
REMARK VINA RESULT:      -8.1      1.313      1.895
REMARK  Name = 
REMARK  3 active torsions:
REMARK  status: ('A' for Active; 'I' for Inactive)
REMARK    1  A    between atoms: C_2  and  C_13
REMARK    2  A    between atoms: N_3  and  C_4
REMARK    3  A    between atoms: C_13  and  C_14
REMARK                            x       y       z     vdW  Elec       q    Type
REMARK                         _______ _______ _______ _____ _____    ______ ____
ROOT
ATOM      1  O   UNL     1       3.273   7.423  17.855  0.00  0.00    +0.000 OA
ATOM      2  C   UNL     1       2.908   6.569  18.664  0.00  0.00    +0.000 C 
ATOM      3  N   UNL     1       2.210   6.896  19.810  0.00  0.00    +0.000 N 
ATOM      4  H   UNL     1       1.899   6.149  20.417  0.00  0.00    +0.000 HD
ENDROOT
BRANCH   3   5
ATOM      5  C   UNL     1       1.853   8.256  20.212  0.00  0.00    +0.000 C 
ATOM      6  C   UNL     1       0.999   8.315  21.490  0.00  0.00    +0.000 C 
ATOM      7  C   UNL     1       0.842   9.765  21.959  0.00  0.00    +0.000 C 
ATOM      8  N   UNL     1       0.523  10.661  20.865  0.00  0.00    +0.000 N 
ATOM      9  N   UNL     1       0.081  11.906  21.104  0.00  0.00    +0.000 NA
ATOM     10  C   UNL     1      -0.067  12.425  19.882  0.00  0.00    +0.000 A 
ATOM     11  C   UNL     1       0.317  11.527  18.867  0.00  0.00    +0.000 A 
ATOM     12  C   UNL     1       0.713  10.391  19.535  0.00  0.00    +0.000 A 
ATOM     13  C   UNL     1       1.202   9.066  19.068  0.00  0.00    +0.000 C 
ENDBRANCH   3   5
BRANCH   2  14
ATOM     14  C   UNL     1       3.271   5.069  18.500  0.00  0.00    +0.000 C 
ATOM     15  C   UNL     1       2.149   4.360  17.690  0.00  0.00    +0.000 C 
ATOM     16  C   UNL     1       2.191   2.889  18.104  0.00  0.00    +0.000 C 
ATOM     17  C   UNL     1       2.894   2.848  19.455  0.00  0.00    +0.000 C 
ATOM     18  C   UNL     1       3.120   4.308  19.839  0.00  0.00    +0.000 C 
BRANCH  14  19
ATOM     19  C   UNL     1       4.628   4.902  17.785  0.00  0.00    +0.000 A 
ATOM     20  C   UNL     1       5.863   5.028  18.445  0.00  0.00    +0.000 A 
ATOM     21  C   UNL     1       7.064   4.742  17.791  0.00  0.00    +0.000 A 
ATOM     22  F   UNL     1       8.212   4.826  18.475  0.00  0.00    +0.000 F 
ATOM     23  C   UNL     1       7.088   4.355  16.463  0.00  0.00    +0.000 A 
ATOM     24  C   UNL     1       5.883   4.272  15.783  0.00  0.00    +0.000 A 
ATOM     25  F   UNL     1       5.884   3.904  14.496  0.00  0.00    +0.000 F 
ATOM     26  C   UNL     1       4.670   4.544  16.421  0.00  0.00    +0.000 A 
ENDBRANCH  14  19
ENDBRANCH   2  14
TORSDOF 3
ENDMDL
MODEL 7
REMARK VINA RESULT:      -8.0      1.497      2.203
REMARK  Name = 
REMARK  3 active torsions:
REMARK  status: ('A' for Active; 'I' for Inactive)
REMARK    1  A    between atoms: C_2  and  C_13
REMARK    2  A    between atoms: N_3  and  C_4
REMARK    3  A    between atoms: C_13  and  C_14
REMARK                            x       y       z     vdW  Elec       q    Type
REMARK                         _______ _______ _______ _____ _____    ______ ____
ROOT
ATOM      1  O   UNL     1       1.108   4.738  20.057  0.00  0.00    +0.000 OA
ATOM      2  C   UNL     1       2.159   5.128  19.548  0.00  0.00    +0.000 C 
ATOM      3  N   UNL     1       2.436   6.471  19.375  0.00  0.00    +0.000 N 
ATOM      4  H   UNL     1       3.333   6.735  18.991  0.00  0.00    +0.000 HD
ENDROOT
BRANCH   3   5
ATOM      5  C   UNL     1       1.532   7.563  19.736  0.00  0.00    +0.000 C 
ATOM      6  C   UNL     1       1.766   8.847  18.921  0.00  0.00    +0.000 C 
ATOM      7  C   UNL     1       0.659   9.867  19.206  0.00  0.00    +0.000 C 
ATOM      8  N   UNL     1       0.372   9.981  20.623  0.00  0.00    +0.000 N 
ATOM      9  N   UNL     1      -0.359  11.002  21.095  0.00  0.00    +0.000 NA
ATOM     10  C   UNL     1      -0.436  10.752  22.406  0.00  0.00    +0.000 A 
ATOM     11  C   UNL     1       0.212   9.553  22.762  0.00  0.00    +0.000 A 
ATOM     12  C   UNL     1       0.717   9.062  21.580  0.00  0.00    +0.000 A 
ATOM     13  C   UNL     1       1.524   7.857  21.253  0.00  0.00    +0.000 C 
ENDBRANCH   3   5
BRANCH   2  14
ATOM     14  C   UNL     1       3.220   4.144  18.989  0.00  0.00    +0.000 C 
ATOM     15  C   UNL     1       2.535   3.172  17.989  0.00  0.00    +0.000 C 
ATOM     16  C   UNL     1       3.382   1.899  17.985  0.00  0.00    +0.000 C 
ATOM     17  C   UNL     1       4.168   1.908  19.290  0.00  0.00    +0.000 C 
ATOM     18  C   UNL     1       3.654   3.118  20.064  0.00  0.00    +0.000 C 
BRANCH  14  19
ATOM     19  C   UNL     1       4.367   4.903  18.289  0.00  0.00    +0.000 A 
ATOM     20  C   UNL     1       4.267   5.403  16.978  0.00  0.00    +0.000 A 
ATOM     21  C   UNL     1       5.279   6.195  16.428  0.00  0.00    +0.000 A 
ATOM     22  F   UNL     1       5.116   6.692  15.195  0.00  0.00    +0.000 F 
ATOM     23  C   UNL     1       6.428   6.492  17.138  0.00  0.00    +0.000 A 
ATOM     24  C   UNL     1       6.565   5.968  18.413  0.00  0.00    +0.000 A 
ATOM     25  F   UNL     1       7.672   6.240  19.116  0.00  0.00    +0.000 F 
ATOM     26  C   UNL     1       5.561   5.182  18.986  0.00  0.00    +0.000 A 
ENDBRANCH  14  19
ENDBRANCH   2  14
TORSDOF 3
ENDMDL
MODEL 8
REMARK VINA RESULT:      -7.9      0.797      1.403
REMARK  Name = 
REMARK  3 active torsions:
REMARK  status: ('A' for Active; 'I' for Inactive)
REMARK    1  A    between atoms: C_2  and  C_13
REMARK    2  A    between atoms: N_3  and  C_4
REMARK    3  A    between atoms: C_13  and  C_14
REMARK                            x       y       z     vdW  Elec       q    Type
REMARK                         _______ _______ _______ _____ _____    ______ ____
ROOT
ATOM      1  O   UNL     1       1.536   5.255  18.173  0.00  0.00    +0.000 OA
ATOM      2  C   UNL     1       2.595   5.105  18.783  0.00  0.00    +0.000 C 
ATOM      3  N   UNL     1       3.082   6.061  19.653  0.00  0.00    +0.000 N 
ATOM      4  H   UNL     1       3.935   5.866  20.160  0.00  0.00    +0.000 HD
ENDROOT
BRANCH   3   5
ATOM      5  C   UNL     1       2.436   7.345  19.931  0.00  0.00    +0.000 C 
ATOM      6  C   UNL     1       1.208   7.227  20.849  0.00  0.00    +0.000 C 
ATOM      7  C   UNL     1       0.715   8.619  21.259  0.00  0.00    +0.000 C 
ATOM      8  N   UNL     1       0.662   9.533  20.133  0.00  0.00    +0.000 N 
ATOM      9  N   UNL     1       0.007  10.700  20.228  0.00  0.00    +0.000 NA
ATOM     10  C   UNL     1       0.205  11.268  19.035  0.00  0.00    +0.000 A 
ATOM     11  C   UNL     1       1.018  10.481  18.195  0.00  0.00    +0.000 A 
ATOM     12  C   UNL     1       1.315   9.364  18.941  0.00  0.00    +0.000 A 
ATOM     13  C   UNL     1       2.101   8.136  18.647  0.00  0.00    +0.000 C 
ENDBRANCH   3   5
BRANCH   2  14
ATOM     14  C   UNL     1       3.507   3.869  18.562  0.00  0.00    +0.000 C 
ATOM     15  C   UNL     1       2.690   2.757  17.845  0.00  0.00    +0.000 C 
ATOM     16  C   UNL     1       3.348   1.432  18.229  0.00  0.00    +0.000 C 
ATOM     17  C   UNL     1       4.127   1.700  19.510  0.00  0.00    +0.000 C 
ATOM     18  C   UNL     1       3.790   3.137  19.896  0.00  0.00    +0.000 C 
BRANCH  14  19
ATOM     19  C   UNL     1       4.749   4.238  17.724  0.00  0.00    +0.000 A 
ATOM     20  C   UNL     1       6.007   4.502  18.295  0.00  0.00    +0.000 A 
ATOM     21  C   UNL     1       7.134   4.705  17.494  0.00  0.00    +0.000 A 
ATOM     22  F   UNL     1       8.321   4.902  18.082  0.00  0.00    +0.000 F 
ATOM     23  C   UNL     1       7.051   4.685  16.113  0.00  0.00    +0.000 A 
ATOM     24  C   UNL     1       5.810   4.475  15.534  0.00  0.00    +0.000 A 
ATOM     25  F   UNL     1       5.707   4.456  14.199  0.00  0.00    +0.000 F 
ATOM     26  C   UNL     1       4.672   4.259  16.316  0.00  0.00    +0.000 A 
ENDBRANCH  14  19
ENDBRANCH   2  14
TORSDOF 3
ENDMDL
MODEL 9
REMARK VINA RESULT:      -7.9      1.270      2.337
REMARK  Name = 
REMARK  3 active torsions:
REMARK  status: ('A' for Active; 'I' for Inactive)
REMARK    1  A    between atoms: C_2  and  C_13
REMARK    2  A    between atoms: N_3  and  C_4
REMARK    3  A    between atoms: C_13  and  C_14
REMARK                            x       y       z     vdW  Elec       q    Type
REMARK                         _______ _______ _______ _____ _____    ______ ____
ROOT
ATOM      1  O   UNL     1       2.581   5.129  20.908  0.00  0.00    +0.000 OA
ATOM      2  C   UNL     1       2.891   5.287  19.727  0.00  0.00    +0.000 C 
ATOM      3  N   UNL     1       2.756   6.506  19.091  0.00  0.00    +0.000 N 
ATOM      4  H   UNL     1       3.067   6.589  18.132  0.00  0.00    +0.000 HD
ENDROOT
BRANCH   3   5
ATOM      5  C   UNL     1       2.220   7.718  19.710  0.00  0.00    +0.000 C 
ATOM      6  C   UNL     1       1.175   7.436  20.804  0.00  0.00    +0.000 C 
ATOM      7  C   UNL     1       0.817   8.730  21.543  0.00  0.00    +0.000 C 
ATOM      8  N   UNL     1       0.594   9.836  20.631  0.00  0.00    +0.000 N 
ATOM      9  N   UNL     1       0.010  10.967  21.055  0.00  0.00    +0.000 NA
ATOM     10  C   UNL     1       0.008  11.745  19.968  0.00  0.00    +0.000 A 
ATOM     11  C   UNL     1       0.625  11.124  18.864  0.00  0.00    +0.000 A 
ATOM     12  C   UNL     1       1.012   9.888  19.327  0.00  0.00    +0.000 A 
ATOM     13  C   UNL     1       1.685   8.733  18.676  0.00  0.00    +0.000 C 
ENDBRANCH   3   5
BRANCH   2  14
ATOM     14  C   UNL     1       3.380   4.114  18.838  0.00  0.00    +0.000 C 
ATOM     15  C   UNL     1       2.235   3.695  17.874  0.00  0.00    +0.000 C 
ATOM     16  C   UNL     1       2.487   2.227  17.527  0.00  0.00    +0.000 C 
ATOM     17  C   UNL     1       3.373   1.675  18.637  0.00  0.00    +0.000 C 
ATOM     18  C   UNL     1       3.498   2.804  19.655  0.00  0.00    +0.000 C 
BRANCH  14  19
ATOM     19  C   UNL     1       4.633   4.514  18.031  0.00  0.00    +0.000 A 
ATOM     20  C   UNL     1       4.604   4.774  16.650  0.00  0.00    +0.000 A 
ATOM     21  C   UNL     1       5.733   5.257  15.982  0.00  0.00    +0.000 A 
ATOM     22  F   UNL     1       5.643   5.541  14.676  0.00  0.00    +0.000 F 
ATOM     23  C   UNL     1       6.928   5.469  16.646  0.00  0.00    +0.000 A 
ATOM     24  C   UNL     1       6.989   5.172  17.998  0.00  0.00    +0.000 A 
ATOM     25  F   UNL     1       8.137   5.365  18.658  0.00  0.00    +0.000 F 
ATOM     26  C   UNL     1       5.869   4.697  18.687  0.00  0.00    +0.000 A 
ENDBRANCH  14  19
ENDBRANCH   2  14
TORSDOF 3
ENDMDL
