MODEL 1
REMARK VINA RESULT:      -7.8      0.000      0.000
REMARK  Name = 
REMARK  8 active torsions:
REMARK  status: ('A' for Active; 'I' for Inactive)
REMARK    1  A    between atoms: C_1  and  N_2
REMARK    2  A    between atoms: C_6  and  C_7
REMARK    3  A    between atoms: C_7  and  C_8
REMARK    4  A    between atoms: C_11  and  N_12
REMARK    5  A    between atoms: C_19  and  C_20
REMARK    6  A    between atoms: C_27  and  N_28
REMARK    7  A    between atoms: N_28  and  C_29
REMARK    8  A    between atoms: C_29  and  N_30
REMARK                            x       y       z     vdW  Elec       q    Type
REMARK                         _______ _______ _______ _____ _____    ______ ____
ROOT
ATOM      1  C   UNL     1       1.213   9.495  19.013  0.00  0.00    +0.000 A 
ATOM      2  C   UNL     1       2.070   8.827  18.127  0.00  0.00    +0.000 A 
ATOM      3  C   UNL     1       2.524   7.550  18.401  0.00  0.00    +0.000 A 
ATOM      4  C   UNL     1       2.286   6.996  19.663  0.00  0.00    +0.000 A 
ATOM      5  C   UNL     1       1.315   7.585  20.486  0.00  0.00    +0.000 A 
ATOM      6  C   UNL     1       0.698   8.799  20.129  0.00  0.00    +0.000 A 
ENDROOT
BRANCH   4   7
ATOM      7  N   UNL     1       3.264   6.085  20.234  0.00  0.00    +0.000 N 
ATOM      8  C   UNL     1       4.390   5.886  19.290  0.00  0.00    +0.000 C 
ATOM      9  C   UNL     1       3.953   4.678  18.518  0.00  0.00    +0.000 A 
ATOM     10  C   UNL     1       3.078   3.952  19.331  0.00  0.00    +0.000 A 
ATOM     11  C   UNL     1       2.332   2.881  18.869  0.00  0.00    +0.000 A 
ATOM     12  C   UNL     1       2.481   2.532  17.529  0.00  0.00    +0.000 A 
ATOM     13  C   UNL     1       3.365   3.247  16.698  0.00  0.00    +0.000 A 
ATOM     14  C   UNL     1       4.124   4.336  17.180  0.00  0.00    +0.000 A 
ATOM     15  C   UNL     1       2.776   4.778  20.522  0.00  0.00    +0.000 C 
ATOM     16  O   UNL     1       2.053   4.428  21.434  0.00  0.00    +0.000 OA
BRANCH  14  17
ATOM     17  C   UNL     1       4.988   5.116  16.221  0.00  0.00    +0.000 C 
ATOM     18  F   UNL     1       4.596   6.408  16.048  0.00  0.00    +0.000 F 
ATOM     19  F   UNL     1       6.279   5.183  16.649  0.00  0.00    +0.000 F 
ATOM     20  F   UNL     1       5.034   4.558  14.983  0.00  0.00    +0.000 F 
ENDBRANCH  14  17
ENDBRANCH   4   7
BRANCH   6  21
ATOM     21  N   UNL     1      -0.295   9.410  20.921  0.00  0.00    +0.000 N 
ATOM     22  H   UNL     1      -0.315  10.410  20.738  0.00  0.00    +0.000 HD
BRANCH  21  23
ATOM     23  C   UNL     1      -0.287   9.128  22.341  0.00  0.00    +0.000 C 
BRANCH  23  24
ATOM     24  N   UNL     1      -0.031  10.252  23.223  0.00  0.00    +0.000 NA
ATOM     25  H   UNL     1       0.904  10.148  23.608  0.00  0.00    +0.000 HD
ATOM     26  H   UNL     1      -0.672  10.196  24.015  0.00  0.00    +0.000 HD
ENDBRANCH  23  24
ENDBRANCH  21  23
ENDBRANCH   6  21
BRANCH   1  27
ATOM     27  C   UNL     1       0.860  10.924  18.678  0.00  0.00    +0.000 C 
BRANCH  27  33
ATOM     28  C   UNL     1       2.688  13.264  17.831  0.00  0.00    +0.000 C 
ATOM     29  N   UNL     1       2.283  12.961  19.176  0.00  0.00    +0.000 N 
ATOM     30  C   UNL     1       2.722  13.586  20.297  0.00  0.00    +0.000 A 
ATOM     31  N   UNL     1       2.154  13.044  21.350  0.00  0.00    +0.000 NA
ATOM     32  N   UNL     1       1.344  12.023  20.907  0.00  0.00    +0.000 NA
ATOM     33  C   UNL     1       1.435  11.964  19.589  0.00  0.00    +0.000 A 
ENDBRANCH  27  33
ENDBRANCH   1  27
TORSDOF 7
ENDMDL
MODEL 2
REMARK VINA RESULT:      -7.8      2.053      2.938
REMARK  Name = 
REMARK  8 active torsions:
REMARK  status: ('A' for Active; 'I' for Inactive)
REMARK    1  A    between atoms: C_1  and  N_2
REMARK    2  A    between atoms: C_6  and  C_7
REMARK    3  A    between atoms: C_7  and  C_8
REMARK    4  A    between atoms: C_11  and  N_12
REMARK    5  A    between atoms: C_19  and  C_20
REMARK    6  A    between atoms: C_27  and  N_28
REMARK    7  A    between atoms: N_28  and  C_29
REMARK    8  A    between atoms: C_29  and  N_30
REMARK                            x       y       z     vdW  Elec       q    Type
REMARK                         _______ _______ _______ _____ _____    ______ ____
ROOT
ATOM      1  C   UNL     1       1.953   8.469  18.869  0.00  0.00    +0.000 A 
ATOM      2  C   UNL     1       2.309   7.652  17.786  0.00  0.00    +0.000 A 
ATOM      3  C   UNL     1       2.611   6.315  17.970  0.00  0.00    +0.000 A 
ATOM      4  C   UNL     1       2.754   5.820  19.270  0.00  0.00    +0.000 A 
ATOM      5  C   UNL     1       2.258   6.579  20.339  0.00  0.00    +0.000 A 
ATOM      6  C   UNL     1       1.766   7.883  20.140  0.00  0.00    +0.000 A 
ENDROOT
BRANCH   4   7
ATOM      7  N   UNL     1       3.706   4.750  19.521  0.00  0.00    +0.000 N 
ATOM      8  C   UNL     1       5.092   5.274  19.461  0.00  0.00    +0.000 C 
ATOM      9  C   UNL     1       5.460   5.048  18.026  0.00  0.00    +0.000 A 
ATOM     10  C   UNL     1       4.679   3.990  17.552  0.00  0.00    +0.000 A 
ATOM     11  C   UNL     1       4.616   3.639  16.214  0.00  0.00    +0.000 A 
ATOM     12  C   UNL     1       5.379   4.389  15.322  0.00  0.00    +0.000 A 
ATOM     13  C   UNL     1       6.178   5.453  15.784  0.00  0.00    +0.000 A 
ATOM     14  C   UNL     1       6.237   5.801  17.151  0.00  0.00    +0.000 A 
ATOM     15  C   UNL     1       3.666   3.676  18.585  0.00  0.00    +0.000 C 
ATOM     16  O   UNL     1       2.838   2.792  18.488  0.00  0.00    +0.000 OA
BRANCH  14  17
ATOM     17  C   UNL     1       7.044   7.003  17.572  0.00  0.00    +0.000 C 
ATOM     18  F   UNL     1       7.964   7.402  16.653  0.00  0.00    +0.000 F 
ATOM     19  F   UNL     1       6.251   8.090  17.787  0.00  0.00    +0.000 F 
ATOM     20  F   UNL     1       7.721   6.800  18.733  0.00  0.00    +0.000 F 
ENDBRANCH  14  17
ENDBRANCH   4   7
BRANCH   6  21
ATOM     21  N   UNL     1       1.241   8.667  21.187  0.00  0.00    +0.000 N 
ATOM     22  H   UNL     1       1.841   8.595  22.005  0.00  0.00    +0.000 HD
BRANCH  21  23
ATOM     23  C   UNL     1      -0.152   8.480  21.531  0.00  0.00    +0.000 C 
BRANCH  23  24
ATOM     24  N   UNL     1      -0.588   9.041  22.796  0.00  0.00    +0.000 NA
ATOM     25  H   UNL     1      -0.698  10.044  22.680  0.00  0.00    +0.000 HD
ATOM     26  H   UNL     1       0.157   8.914  23.482  0.00  0.00    +0.000 HD
ENDBRANCH  23  24
ENDBRANCH  21  23
ENDBRANCH   6  21
BRANCH   1  27
ATOM     27  C   UNL     1       1.748   9.936  18.581  0.00  0.00    +0.000 C 
BRANCH  27  33
ATOM     28  C   UNL     1       0.430  12.128  20.311  0.00  0.00    +0.000 C 
ATOM     29  N   UNL     1      -0.235  11.333  19.317  0.00  0.00    +0.000 N 
ATOM     30  C   UNL     1      -1.565  11.341  19.053  0.00  0.00    +0.000 A 
ATOM     31  N   UNL     1      -1.826  10.482  18.093  0.00  0.00    +0.000 NA
ATOM     32  N   UNL     1      -0.640   9.880  17.740  0.00  0.00    +0.000 NA
ATOM     33  C   UNL     1       0.322  10.386  18.494  0.00  0.00    +0.000 A 
ENDBRANCH  27  33
ENDBRANCH   1  27
TORSDOF 7
ENDMDL
MODEL 3
REMARK VINA RESULT:      -7.7      1.340      1.989
REMARK  Name = 
REMARK  8 active torsions:
REMARK  status: ('A' for Active; 'I' for Inactive)
REMARK    1  A    between atoms: C_1  and  N_2
REMARK    2  A    between atoms: C_6  and  C_7
REMARK    3  A    between atoms: C_7  and  C_8
REMARK    4  A    between atoms: C_11  and  N_12
REMARK    5  A    between atoms: C_19  and  C_20
REMARK    6  A    between atoms: C_27  and  N_28
REMARK    7  A    between atoms: N_28  and  C_29
REMARK    8  A    between atoms: C_29  and  N_30
REMARK                            x       y       z     vdW  Elec       q    Type
REMARK                         _______ _______ _______ _____ _____    ______ ____
ROOT
ATOM      1  C   UNL     1       1.474   9.270  18.986  0.00  0.00    +0.000 A 
ATOM      2  C   UNL     1       2.184   8.455  18.093  0.00  0.00    +0.000 A 
ATOM      3  C   UNL     1       2.539   7.163  18.435  0.00  0.00    +0.000 A 
ATOM      4  C   UNL     1       2.360   6.731  19.754  0.00  0.00    +0.000 A 
ATOM      5  C   UNL     1       1.525   7.475  20.599  0.00  0.00    +0.000 A 
ATOM      6  C   UNL     1       0.995   8.714  20.193  0.00  0.00    +0.000 A 
ENDROOT
BRANCH   4   7
ATOM      7  N   UNL     1       3.295   5.773  20.319  0.00  0.00    +0.000 N 
ATOM      8  C   UNL     1       4.405   5.518  19.368  0.00  0.00    +0.000 C 
ATOM      9  C   UNL     1       3.904   4.333  18.599  0.00  0.00    +0.000 A 
ATOM     10  C   UNL     1       2.998   3.652  19.417  0.00  0.00    +0.000 A 
ATOM     11  C   UNL     1       2.196   2.620  18.959  0.00  0.00    +0.000 A 
ATOM     12  C   UNL     1       2.320   2.264  17.618  0.00  0.00    +0.000 A 
ATOM     13  C   UNL     1       3.234   2.935  16.782  0.00  0.00    +0.000 A 
ATOM     14  C   UNL     1       4.049   3.984  17.259  0.00  0.00    +0.000 A 
ATOM     15  C   UNL     1       2.744   4.492  20.610  0.00  0.00    +0.000 C 
ATOM     16  O   UNL     1       2.010   4.177  21.526  0.00  0.00    +0.000 OA
BRANCH  14  17
ATOM     17  C   UNL     1       4.945   4.720  16.296  0.00  0.00    +0.000 C 
ATOM     18  F   UNL     1       4.940   4.209  15.035  0.00  0.00    +0.000 F 
ATOM     19  F   UNL     1       4.573   6.024  16.160  0.00  0.00    +0.000 F 
ATOM     20  F   UNL     1       6.243   4.742  16.698  0.00  0.00    +0.000 F 
ENDBRANCH  14  17
ENDBRANCH   4   7
BRANCH   6  21
ATOM     21  N   UNL     1       0.135   9.479  21.008  0.00  0.00    +0.000 N 
ATOM     22  H   UNL     1       0.463  10.440  21.047  0.00  0.00    +0.000 HD
BRANCH  21  23
ATOM     23  C   UNL     1      -0.169   8.966  22.327  0.00  0.00    +0.000 C 
BRANCH  23  24
ATOM     24  N   UNL     1       0.370   9.709  23.451  0.00  0.00    +0.000 NA
ATOM     25  H   UNL     1      -0.406  10.040  24.016  0.00  0.00    +0.000 HD
ATOM     26  H   UNL     1       0.838  10.543  23.095  0.00  0.00    +0.000 HD
ENDBRANCH  23  24
ENDBRANCH  21  23
ENDBRANCH   6  21
BRANCH   1  27
ATOM     27  C   UNL     1       1.228  10.698  18.563  0.00  0.00    +0.000 C 
BRANCH  27  33
ATOM     28  C   UNL     1       0.059  13.334  19.666  0.00  0.00    +0.000 C 
ATOM     29  N   UNL     1      -0.693  12.279  19.045  0.00  0.00    +0.000 N 
ATOM     30  C   UNL     1      -2.044  12.222  18.941  0.00  0.00    +0.000 A 
ATOM     31  N   UNL     1      -2.389  11.112  18.328  0.00  0.00    +0.000 NA
ATOM     32  N   UNL     1      -1.235  10.415  18.050  0.00  0.00    +0.000 NA
ATOM     33  C   UNL     1      -0.208  11.117  18.499  0.00  0.00    +0.000 A 
ENDBRANCH  27  33
ENDBRANCH   1  27
TORSDOF 7
ENDMDL
MODEL 4
REMARK VINA RESULT:      -7.7      0.980      1.407
REMARK  Name = 
REMARK  8 active torsions:
REMARK  status: ('A' for Active; 'I' for Inactive)
REMARK    1  A    between atoms: C_1  and  N_2
REMARK    2  A    between atoms: C_6  and  C_7
REMARK    3  A    between atoms: C_7  and  C_8
REMARK    4  A    between atoms: C_11  and  N_12
REMARK    5  A    between atoms: C_19  and  C_20
REMARK    6  A    between atoms: C_27  and  N_28
REMARK    7  A    between atoms: N_28  and  C_29
REMARK    8  A    between atoms: C_29  and  N_30
REMARK                            x       y       z     vdW  Elec       q    Type
REMARK                         _______ _______ _______ _____ _____    ______ ____
ROOT
ATOM      1  C   UNL     1       1.419   9.256  19.006  0.00  0.00    +0.000 A 
ATOM      2  C   UNL     1       2.247   8.539  18.131  0.00  0.00    +0.000 A 
ATOM      3  C   UNL     1       2.650   7.250  18.427  0.00  0.00    +0.000 A 
ATOM      4  C   UNL     1       2.392   6.728  19.699  0.00  0.00    +0.000 A 
ATOM      5  C   UNL     1       1.447   7.369  20.512  0.00  0.00    +0.000 A 
ATOM      6  C   UNL     1       0.878   8.601  20.134  0.00  0.00    +0.000 A 
ENDROOT
BRANCH   4   7
ATOM      7  N   UNL     1       3.334   5.789  20.285  0.00  0.00    +0.000 N 
ATOM      8  C   UNL     1       4.428   5.496  19.327  0.00  0.00    +0.000 C 
ATOM      9  C   UNL     1       3.913   4.284  18.611  0.00  0.00    +0.000 A 
ATOM     10  C   UNL     1       3.019   3.636  19.469  0.00  0.00    +0.000 A 
ATOM     11  C   UNL     1       2.208   2.590  19.063  0.00  0.00    +0.000 A 
ATOM     12  C   UNL     1       2.311   2.182  17.734  0.00  0.00    +0.000 A 
ATOM     13  C   UNL     1       3.213   2.819  16.859  0.00  0.00    +0.000 A 
ATOM     14  C   UNL     1       4.037   3.885  17.284  0.00  0.00    +0.000 A 
ATOM     15  C   UNL     1       2.785   4.521  20.633  0.00  0.00    +0.000 C 
ATOM     16  O   UNL     1       2.065   4.243  21.572  0.00  0.00    +0.000 OA
BRANCH  14  17
ATOM     17  C   UNL     1       4.919   4.581  16.280  0.00  0.00    +0.000 C 
ATOM     18  F   UNL     1       6.242   4.560  16.596  0.00  0.00    +0.000 F 
ATOM     19  F   UNL     1       4.831   4.004  15.048  0.00  0.00    +0.000 F 
ATOM     20  F   UNL     1       4.585   5.887  16.104  0.00  0.00    +0.000 F 
ENDBRANCH  14  17
ENDBRANCH   4   7
BRANCH   6  21
ATOM     21  N   UNL     1      -0.090   9.264  20.916  0.00  0.00    +0.000 N 
ATOM     22  H   UNL     1      -0.100  10.254  20.683  0.00  0.00    +0.000 HD
BRANCH  21  23
ATOM     23  C   UNL     1      -0.054   9.053  22.347  0.00  0.00    +0.000 C 
BRANCH  23  24
ATOM     24  N   UNL     1      -0.040  10.244  23.177  0.00  0.00    +0.000 NA
ATOM     25  H   UNL     1      -0.968  10.370  23.570  0.00  0.00    +0.000 HD
ATOM     26  H   UNL     1       0.127  11.054  22.579  0.00  0.00    +0.000 HD
ENDBRANCH  23  24
ENDBRANCH  21  23
ENDBRANCH   6  21
BRANCH   1  27
ATOM     27  C   UNL     1       1.122  10.692  18.646  0.00  0.00    +0.000 C 
BRANCH  27  33
ATOM     28  C   UNL     1      -1.530  12.251  18.895  0.00  0.00    +0.000 C 
ATOM     29  N   UNL     1      -0.445  12.290  19.835  0.00  0.00    +0.000 N 
ATOM     30  C   UNL     1      -0.364  13.096  20.922  0.00  0.00    +0.000 A 
ATOM     31  N   UNL     1       0.770  12.875  21.548  0.00  0.00    +0.000 NA
ATOM     32  N   UNL     1       1.459  11.920  20.835  0.00  0.00    +0.000 NA
ATOM     33  C   UNL     1       0.727  11.577  19.787  0.00  0.00    +0.000 A 
ENDBRANCH  27  33
ENDBRANCH   1  27
TORSDOF 7
ENDMDL
MODEL 5
REMARK VINA RESULT:      -7.7      1.315      2.003
REMARK  Name = 
REMARK  8 active torsions:
REMARK  status: ('A' for Active; 'I' for Inactive)
REMARK    1  A    between atoms: C_1  and  N_2
REMARK    2  A    between atoms: C_6  and  C_7
REMARK    3  A    between atoms: C_7  and  C_8
REMARK    4  A    between atoms: C_11  and  N_12
REMARK    5  A    between atoms: C_19  and  C_20
REMARK    6  A    between atoms: C_27  and  N_28
REMARK    7  A    between atoms: N_28  and  C_29
REMARK    8  A    between atoms: C_29  and  N_30
REMARK                            x       y       z     vdW  Elec       q    Type
REMARK                         _______ _______ _______ _____ _____    ______ ____
ROOT
ATOM      1  C   UNL     1       1.453   9.245  18.954  0.00  0.00    +0.000 A 
ATOM      2  C   UNL     1       2.059   8.350  18.060  0.00  0.00    +0.000 A 
ATOM      3  C   UNL     1       2.400   7.070  18.456  0.00  0.00    +0.000 A 
ATOM      4  C   UNL     1       2.321   6.729  19.810  0.00  0.00    +0.000 A 
ATOM      5  C   UNL     1       1.584   7.554  20.671  0.00  0.00    +0.000 A 
ATOM      6  C   UNL     1       1.061   8.785  20.230  0.00  0.00    +0.000 A 
ENDROOT
BRANCH   4   7
ATOM      7  N   UNL     1       3.270   5.773  20.358  0.00  0.00    +0.000 N 
ATOM      8  C   UNL     1       4.383   5.554  19.403  0.00  0.00    +0.000 C 
ATOM      9  C   UNL     1       3.901   4.376  18.610  0.00  0.00    +0.000 A 
ATOM     10  C   UNL     1       3.004   3.666  19.414  0.00  0.00    +0.000 A 
ATOM     11  C   UNL     1       2.218   2.632  18.935  0.00  0.00    +0.000 A 
ATOM     12  C   UNL     1       2.349   2.303  17.588  0.00  0.00    +0.000 A 
ATOM     13  C   UNL     1       3.253   3.004  16.766  0.00  0.00    +0.000 A 
ATOM     14  C   UNL     1       4.052   4.056  17.265  0.00  0.00    +0.000 A 
ATOM     15  C   UNL     1       2.737   4.479  20.623  0.00  0.00    +0.000 C 
ATOM     16  O   UNL     1       2.007   4.136  21.532  0.00  0.00    +0.000 OA
BRANCH  14  17
ATOM     17  C   UNL     1       4.938   4.823  16.317  0.00  0.00    +0.000 C 
ATOM     18  F   UNL     1       6.243   4.876  16.698  0.00  0.00    +0.000 F 
ATOM     19  F   UNL     1       4.946   4.266  15.073  0.00  0.00    +0.000 F 
ATOM     20  F   UNL     1       4.534   6.110  16.146  0.00  0.00    +0.000 F 
ENDBRANCH  14  17
ENDBRANCH   4   7
BRANCH   6  21
ATOM     21  N   UNL     1       0.299   9.630  21.061  0.00  0.00    +0.000 N 
ATOM     22  H   UNL     1       0.788  10.511  21.197  0.00  0.00    +0.000 HD
BRANCH  21  23
ATOM     23  C   UNL     1      -0.176   9.086  22.315  0.00  0.00    +0.000 C 
BRANCH  23  24
ATOM     24  N   UNL     1       0.318   9.718  23.524  0.00  0.00    +0.000 NA
ATOM     25  H   UNL     1       0.115   9.106  24.310  0.00  0.00    +0.000 HD
ATOM     26  H   UNL     1      -0.216  10.572  23.686  0.00  0.00    +0.000 HD
ENDBRANCH  23  24
ENDBRANCH  21  23
ENDBRANCH   6  21
BRANCH   1  27
ATOM     27  C   UNL     1       1.218  10.652  18.460  0.00  0.00    +0.000 C 
BRANCH  27  33
ATOM     28  C   UNL     1      -1.501   9.957  17.174  0.00  0.00    +0.000 C 
ATOM     29  N   UNL     1      -1.284  10.948  18.191  0.00  0.00    +0.000 N 
ATOM     30  C   UNL     1      -2.215  11.810  18.671  0.00  0.00    +0.000 A 
ATOM     31  N   UNL     1      -1.666  12.584  19.580  0.00  0.00    +0.000 NA
ATOM     32  N   UNL     1      -0.338  12.236  19.676  0.00  0.00    +0.000 NA
ATOM     33  C   UNL     1      -0.104  11.253  18.821  0.00  0.00    +0.000 A 
ENDBRANCH  27  33
ENDBRANCH   1  27
TORSDOF 7
ENDMDL
MODEL 6
REMARK VINA RESULT:      -7.5      1.973      2.767
REMARK  Name = 
REMARK  8 active torsions:
REMARK  status: ('A' for Active; 'I' for Inactive)
REMARK    1  A    between atoms: C_1  and  N_2
REMARK    2  A    between atoms: C_6  and  C_7
REMARK    3  A    between atoms: C_7  and  C_8
REMARK    4  A    between atoms: C_11  and  N_12
REMARK    5  A    between atoms: C_19  and  C_20
REMARK    6  A    between atoms: C_27  and  N_28
REMARK    7  A    between atoms: N_28  and  C_29
REMARK    8  A    between atoms: C_29  and  N_30
REMARK                            x       y       z     vdW  Elec       q    Type
REMARK                         _______ _______ _______ _____ _____    ______ ____
ROOT
ATOM      1  C   UNL     1       1.971   8.537  18.634  0.00  0.00    +0.000 A 
ATOM      2  C   UNL     1       2.255   7.642  17.593  0.00  0.00    +0.000 A 
ATOM      3  C   UNL     1       2.521   6.309  17.852  0.00  0.00    +0.000 A 
ATOM      4  C   UNL     1       2.703   5.893  19.175  0.00  0.00    +0.000 A 
ATOM      5  C   UNL     1       2.277   6.736  20.211  0.00  0.00    +0.000 A 
ATOM      6  C   UNL     1       1.819   8.041  19.947  0.00  0.00    +0.000 A 
ENDROOT
BRANCH   4   7
ATOM      7  N   UNL     1       3.629   4.809  19.456  0.00  0.00    +0.000 N 
ATOM      8  C   UNL     1       5.025   5.310  19.434  0.00  0.00    +0.000 C 
ATOM      9  C   UNL     1       5.430   5.071  18.010  0.00  0.00    +0.000 A 
ATOM     10  C   UNL     1       4.644   4.024  17.519  0.00  0.00    +0.000 A 
ATOM     11  C   UNL     1       4.614   3.669  16.181  0.00  0.00    +0.000 A 
ATOM     12  C   UNL     1       5.414   4.402  15.308  0.00  0.00    +0.000 A 
ATOM     13  C   UNL     1       6.218   5.455  15.788  0.00  0.00    +0.000 A 
ATOM     14  C   UNL     1       6.243   5.808  17.155  0.00  0.00    +0.000 A 
ATOM     15  C   UNL     1       3.598   3.732  18.525  0.00  0.00    +0.000 C 
ATOM     16  O   UNL     1       2.758   2.861  18.407  0.00  0.00    +0.000 OA
BRANCH  14  17
ATOM     17  C   UNL     1       7.058   6.998  17.594  0.00  0.00    +0.000 C 
ATOM     18  F   UNL     1       7.752   6.799  18.748  0.00  0.00    +0.000 F 
ATOM     19  F   UNL     1       7.992   7.339  16.663  0.00  0.00    +0.000 F 
ATOM     20  F   UNL     1       6.301   8.110  17.787  0.00  0.00    +0.000 F 
ENDBRANCH  14  17
ENDBRANCH   4   7
BRANCH   6  21
ATOM     21  N   UNL     1       1.364   8.907  20.961  0.00  0.00    +0.000 N 
ATOM     22  H   UNL     1       2.116   9.090  21.620  0.00  0.00    +0.000 HD
BRANCH  21  23
ATOM     23  C   UNL     1       0.134   8.558  21.639  0.00  0.00    +0.000 C 
BRANCH  23  24
ATOM     24  N   UNL     1      -0.564   9.638  22.312  0.00  0.00    +0.000 NA
ATOM     25  H   UNL     1      -0.220   9.695  23.267  0.00  0.00    +0.000 HD
ATOM     26  H   UNL     1      -1.552   9.394  22.381  0.00  0.00    +0.000 HD
ENDBRANCH  23  24
ENDBRANCH  21  23
ENDBRANCH   6  21
BRANCH   1  27
ATOM     27  C   UNL     1       1.801   9.990  18.260  0.00  0.00    +0.000 C 
BRANCH  27  33
ATOM     28  C   UNL     1      -1.185   9.868  17.486  0.00  0.00    +0.000 C 
ATOM     29  N   UNL     1      -0.625  10.664  18.542  0.00  0.00    +0.000 N 
ATOM     30  C   UNL     1      -1.298  11.568  19.297  0.00  0.00    +0.000 A 
ATOM     31  N   UNL     1      -0.472  12.120  20.157  0.00  0.00    +0.000 NA
ATOM     32  N   UNL     1       0.776  11.582  19.940  0.00  0.00    +0.000 NA
ATOM     33  C   UNL     1       0.684  10.710  18.950  0.00  0.00    +0.000 A 
ENDBRANCH  27  33
ENDBRANCH   1  27
TORSDOF 7
ENDMDL
MODEL 7
REMARK VINA RESULT:      -7.4      0.596      1.306
REMARK  Name = 
REMARK  8 active torsions:
REMARK  status: ('A' for Active; 'I' for Inactive)
REMARK    1  A    between atoms: C_1  and  N_2
REMARK    2  A    between atoms: C_6  and  C_7
REMARK    3  A    between atoms: C_7  and  C_8
REMARK    4  A    between atoms: C_11  and  N_12
REMARK    5  A    between atoms: C_19  and  C_20
REMARK    6  A    between atoms: C_27  and  N_28
REMARK    7  A    between atoms: N_28  and  C_29
REMARK    8  A    between atoms: C_29  and  N_30
REMARK                            x       y       z     vdW  Elec       q    Type
REMARK                         _______ _______ _______ _____ _____    ______ ____
ROOT
ATOM      1  C   UNL     1       1.134   9.495  18.937  0.00  0.00    +0.000 A 
ATOM      2  C   UNL     1       1.930   8.779  18.032  0.00  0.00    +0.000 A 
ATOM      3  C   UNL     1       2.411   7.521  18.346  0.00  0.00    +0.000 A 
ATOM      4  C   UNL     1       2.267   7.041  19.652  0.00  0.00    +0.000 A 
ATOM      5  C   UNL     1       1.354   7.674  20.507  0.00  0.00    +0.000 A 
ATOM      6  C   UNL     1       0.704   8.864  20.125  0.00  0.00    +0.000 A 
ENDROOT
BRANCH   4   7
ATOM      7  N   UNL     1       3.290   6.168  20.203  0.00  0.00    +0.000 N 
ATOM      8  C   UNL     1       4.415   6.030  19.247  0.00  0.00    +0.000 C 
ATOM      9  C   UNL     1       4.025   4.813  18.464  0.00  0.00    +0.000 A 
ATOM     10  C   UNL     1       3.190   4.039  19.275  0.00  0.00    +0.000 A 
ATOM     11  C   UNL     1       2.488   2.943  18.806  0.00  0.00    +0.000 A 
ATOM     12  C   UNL     1       2.641   2.616  17.460  0.00  0.00    +0.000 A 
ATOM     13  C   UNL     1       3.485   3.380  16.631  0.00  0.00    +0.000 A 
ATOM     14  C   UNL     1       4.199   4.496  17.120  0.00  0.00    +0.000 A 
ATOM     15  C   UNL     1       2.862   4.837  20.479  0.00  0.00    +0.000 C 
ATOM     16  O   UNL     1       2.164   4.444  21.393  0.00  0.00    +0.000 OA
BRANCH  14  17
ATOM     17  C   UNL     1       5.018   5.325  16.164  0.00  0.00    +0.000 C 
ATOM     18  F   UNL     1       6.324   5.456  16.524  0.00  0.00    +0.000 F 
ATOM     19  F   UNL     1       5.040   4.777  14.916  0.00  0.00    +0.000 F 
ATOM     20  F   UNL     1       4.532   6.584  16.010  0.00  0.00    +0.000 F 
ENDBRANCH  14  17
ENDBRANCH   4   7
BRANCH   6  21
ATOM     21  N   UNL     1      -0.234   9.517  20.950  0.00  0.00    +0.000 N 
ATOM     22  H   UNL     1      -0.086  10.522  20.911  0.00  0.00    +0.000 HD
BRANCH  21  23
ATOM     23  C   UNL     1      -0.367   9.050  22.313  0.00  0.00    +0.000 C 
BRANCH  23  24
ATOM     24  N   UNL     1       0.280   9.849  23.337  0.00  0.00    +0.000 NA
ATOM     25  H   UNL     1      -0.435  10.190  23.975  0.00  0.00    +0.000 HD
ATOM     26  H   UNL     1       0.684  10.677  22.897  0.00  0.00    +0.000 HD
ENDBRANCH  23  24
ENDBRANCH  21  23
ENDBRANCH   6  21
BRANCH   1  27
ATOM     27  C   UNL     1       0.748  10.901  18.547  0.00  0.00    +0.000 C 
BRANCH  27  33
ATOM     28  C   UNL     1       0.955  12.804  20.969  0.00  0.00    +0.000 C 
ATOM     29  N   UNL     1       1.828  12.802  19.828  0.00  0.00    +0.000 N 
ATOM     30  C   UNL     1       2.813  13.701  19.581  0.00  0.00    +0.000 A 
ATOM     31  N   UNL     1       3.401  13.403  18.444  0.00  0.00    +0.000 NA
ATOM     32  N   UNL     1       2.765  12.299  17.923  0.00  0.00    +0.000 NA
ATOM     33  C   UNL     1       1.801  11.944  18.757  0.00  0.00    +0.000 A 
ENDBRANCH  27  33
ENDBRANCH   1  27
TORSDOF 7
ENDMDL
MODEL 8
REMARK VINA RESULT:      -7.3      2.036      2.985
REMARK  Name = 
REMARK  8 active torsions:
REMARK  status: ('A' for Active; 'I' for Inactive)
REMARK    1  A    between atoms: C_1  and  N_2
REMARK    2  A    between atoms: C_6  and  C_7
REMARK    3  A    between atoms: C_7  and  C_8
REMARK    4  A    between atoms: C_11  and  N_12
REMARK    5  A    between atoms: C_19  and  C_20
REMARK    6  A    between atoms: C_27  and  N_28
REMARK    7  A    between atoms: N_28  and  C_29
REMARK    8  A    between atoms: C_29  and  N_30
REMARK                            x       y       z     vdW  Elec       q    Type
REMARK                         _______ _______ _______ _____ _____    ______ ____
ROOT
ATOM      1  C   UNL     1       2.273   7.973  18.649  0.00  0.00    +0.000 A 
ATOM      2  C   UNL     1       2.275   7.145  17.517  0.00  0.00    +0.000 A 
ATOM      3  C   UNL     1       2.246   5.768  17.641  0.00  0.00    +0.000 A 
ATOM      4  C   UNL     1       2.414   5.192  18.905  0.00  0.00    +0.000 A 
ATOM      5  C   UNL     1       2.260   6.000  20.040  0.00  0.00    +0.000 A 
ATOM      6  C   UNL     1       2.096   7.394  19.925  0.00  0.00    +0.000 A 
ENDROOT
BRANCH   4   7
ATOM      7  N   UNL     1       3.084   3.907  19.015  0.00  0.00    +0.000 N 
ATOM      8  C   UNL     1       4.493   4.099  19.438  0.00  0.00    +0.000 C 
ATOM      9  C   UNL     1       5.213   4.181  18.126  0.00  0.00    +0.000 A 
ATOM     10  C   UNL     1       4.448   3.492  17.180  0.00  0.00    +0.000 A 
ATOM     11  C   UNL     1       4.715   3.529  15.822  0.00  0.00    +0.000 A 
ATOM     12  C   UNL     1       5.802   4.294  15.407  0.00  0.00    +0.000 A 
ATOM     13  C   UNL     1       6.589   4.988  16.347  0.00  0.00    +0.000 A 
ATOM     14  C   UNL     1       6.310   4.942  17.731  0.00  0.00    +0.000 A 
ATOM     15  C   UNL     1       3.149   3.155  17.807  0.00  0.00    +0.000 C 
ATOM     16  O   UNL     1       2.260   2.540  17.253  0.00  0.00    +0.000 OA
BRANCH  14  17
ATOM     17  C   UNL     1       7.135   5.774  18.679  0.00  0.00    +0.000 C 
ATOM     18  F   UNL     1       6.612   5.870  19.931  0.00  0.00    +0.000 F 
ATOM     19  F   UNL     1       8.384   5.255  18.846  0.00  0.00    +0.000 F 
ATOM     20  F   UNL     1       7.316   7.047  18.238  0.00  0.00    +0.000 F 
ENDBRANCH  14  17
ENDBRANCH   4   7
BRANCH   6  21
ATOM     21  N   UNL     1       1.919   8.234  21.043  0.00  0.00    +0.000 N 
ATOM     22  H   UNL     1       2.656   8.064  21.722  0.00  0.00    +0.000 HD
BRANCH  21  23
ATOM     23  C   UNL     1       0.613   8.252  21.667  0.00  0.00    +0.000 C 
BRANCH  23  24
ATOM     24  N   UNL     1      -0.283   9.320  21.264  0.00  0.00    +0.000 NA
ATOM     25  H   UNL     1       0.279  10.124  20.996  0.00  0.00    +0.000 HD
ATOM     26  H   UNL     1      -0.827   9.612  22.076  0.00  0.00    +0.000 HD
ENDBRANCH  23  24
ENDBRANCH  21  23
ENDBRANCH   6  21
BRANCH   1  27
ATOM     27  C   UNL     1       2.415   9.457  18.413  0.00  0.00    +0.000 C 
BRANCH  27  33
ATOM     28  C   UNL     1       2.110  12.480  18.958  0.00  0.00    +0.000 C 
ATOM     29  N   UNL     1       1.038  11.569  18.668  0.00  0.00    +0.000 N 
ATOM     30  C   UNL     1      -0.285  11.866  18.693  0.00  0.00    +0.000 A 
ATOM     31  N   UNL     1      -0.979  10.793  18.389  0.00  0.00    +0.000 NA
ATOM     32  N   UNL     1      -0.088   9.764  18.187  0.00  0.00    +0.000 NA
ATOM     33  C   UNL     1       1.135  10.233  18.372  0.00  0.00    +0.000 A 
ENDBRANCH  27  33
ENDBRANCH   1  27
TORSDOF 7
ENDMDL
MODEL 9
REMARK VINA RESULT:      -7.2      2.863      3.969
REMARK  Name = 
REMARK  8 active torsions:
REMARK  status: ('A' for Active; 'I' for Inactive)
REMARK    1  A    between atoms: C_1  and  N_2
REMARK    2  A    between atoms: C_6  and  C_7
REMARK    3  A    between atoms: C_7  and  C_8
REMARK    4  A    between atoms: C_11  and  N_12
REMARK    5  A    between atoms: C_19  and  C_20
REMARK    6  A    between atoms: C_27  and  N_28
REMARK    7  A    between atoms: N_28  and  C_29
REMARK    8  A    between atoms: C_29  and  N_30
REMARK                            x       y       z     vdW  Elec       q    Type
REMARK                         _______ _______ _______ _____ _____    ______ ____
ROOT
ATOM      1  C   UNL     1       1.131   9.013  19.920  0.00  0.00    +0.000 A 
ATOM      2  C   UNL     1       1.580   7.788  20.433  0.00  0.00    +0.000 A 
ATOM      3  C   UNL     1       2.370   6.943  19.674  0.00  0.00    +0.000 A 
ATOM      4  C   UNL     1       2.559   7.222  18.316  0.00  0.00    +0.000 A 
ATOM      5  C   UNL     1       2.246   8.504  17.840  0.00  0.00    +0.000 A 
ATOM      6  C   UNL     1       1.607   9.450  18.665  0.00  0.00    +0.000 A 
ENDROOT
BRANCH   4   7
ATOM      7  N   UNL     1       2.716   6.121  17.381  0.00  0.00    +0.000 N 
ATOM      8  C   UNL     1       1.804   5.008  17.743  0.00  0.00    +0.000 C 
ATOM      9  C   UNL     1       2.665   4.163  18.633  0.00  0.00    +0.000 A 
ATOM     10  C   UNL     1       3.997   4.405  18.285  0.00  0.00    +0.000 A 
ATOM     11  C   UNL     1       5.067   3.942  19.031  0.00  0.00    +0.000 A 
ATOM     12  C   UNL     1       4.775   3.202  20.174  0.00  0.00    +0.000 A 
ATOM     13  C   UNL     1       3.438   2.943  20.535  0.00  0.00    +0.000 A 
ATOM     14  C   UNL     1       2.353   3.418  19.766  0.00  0.00    +0.000 A 
ATOM     15  C   UNL     1       4.018   5.545  17.340  0.00  0.00    +0.000 C 
ATOM     16  O   UNL     1       5.026   5.997  16.834  0.00  0.00    +0.000 OA
BRANCH  14  17
ATOM     17  C   UNL     1       0.946   3.180  20.251  0.00  0.00    +0.000 C 
ATOM     18  F   UNL     1       0.234   4.321  20.465  0.00  0.00    +0.000 F 
ATOM     19  F   UNL     1       0.218   2.464  19.349  0.00  0.00    +0.000 F 
ATOM     20  F   UNL     1       0.902   2.474  21.411  0.00  0.00    +0.000 F 
ENDBRANCH  14  17
ENDBRANCH   4   7
BRANCH   6  21
ATOM     21  N   UNL     1       1.296  10.753  18.227  0.00  0.00    +0.000 N 
ATOM     22  H   UNL     1       0.554  10.715  17.533  0.00  0.00    +0.000 HD
BRANCH  21  23
ATOM     23  C   UNL     1       2.391  11.593  17.792  0.00  0.00    +0.000 C 
BRANCH  23  24
ATOM     24  N   UNL     1       2.188  13.027  17.894  0.00  0.00    +0.000 NA
ATOM     25  H   UNL     1       3.082  13.462  18.102  0.00  0.00    +0.000 HD
ATOM     26  H   UNL     1       1.588  13.213  18.698  0.00  0.00    +0.000 HD
ENDBRANCH  23  24
ENDBRANCH  21  23
ENDBRANCH   6  21
BRANCH   1  27
ATOM     27  C   UNL     1       0.187   9.812  20.785  0.00  0.00    +0.000 C 
BRANCH  27  33
ATOM     28  C   UNL     1      -1.744  12.219  20.682  0.00  0.00    +0.000 C 
ATOM     29  N   UNL     1      -0.325  12.292  20.894  0.00  0.00    +0.000 N 
ATOM     30  C   UNL     1       0.408  13.429  20.975  0.00  0.00    +0.000 A 
ATOM     31  N   UNL     1       1.672  13.123  21.160  0.00  0.00    +0.000 NA
ATOM     32  N   UNL     1       1.769  11.750  21.173  0.00  0.00    +0.000 NA
ATOM     33  C   UNL     1       0.559  11.247  20.996  0.00  0.00    +0.000 A 
ENDBRANCH  27  33
ENDBRANCH   1  27
TORSDOF 7
ENDMDL
