MODEL 1
REMARK VINA RESULT:      -8.1      0.000      0.000
REMARK  Name = 
REMARK  8 active torsions:
REMARK  status: ('A' for Active; 'I' for Inactive)
REMARK    1  A    between atoms: C_1  and  C_2
REMARK    2  A    between atoms: C_6  and  C_7
REMARK    3  A    between atoms: N_9  and  C_10
REMARK    4  A    between atoms: N_9  and  C_11
REMARK    5  A    between atoms: C_14  and  C_16
REMARK    6  A    between atoms: C_16  and  C_17
REMARK    7  A    between atoms: C_19  and  C_20
REMARK    8  A    between atoms: C_20  and  C_21
REMARK                            x       y       z     vdW  Elec       q    Type
REMARK                         _______ _______ _______ _____ _____    ______ ____
ROOT
ATOM      1  C   UNL     1       3.090   5.033  18.148  0.00  0.00    +0.000 C 
ATOM      2  C   UNL     1       3.553   6.361  17.512  0.00  0.00    +0.000 C 
ATOM      3  N   UNL     1       3.049   7.010  18.728  0.00  0.00    +0.000 N 
ATOM      4  C   UNL     1       2.079   7.988  18.798  0.00  0.00    +0.000 C 
ATOM      5  O   UNL     1       1.625   8.544  17.797  0.00  0.00    +0.000 OA
ATOM      6  C   UNL     1       3.162   5.773  19.507  0.00  0.00    +0.000 C 
ENDROOT
BRANCH   1   9
ATOM      7  C   UNL     1       3.746   2.620  18.783  0.00  0.00    +0.000 C 
ATOM      8  O   UNL     1       4.285   1.558  18.472  0.00  0.00    +0.000 OA
ATOM      9  N   UNL     1       3.954   3.807  18.025  0.00  0.00    +0.000 N 
ATOM     10  C   UNL     1       4.983   3.784  16.997  0.00  0.00    +0.000 C 
BRANCH   7  16
ATOM     11  C   UNL     1       0.428   2.628  18.922  0.00  0.00    +0.000 C 
ATOM     12  C   UNL     1       1.419   2.693  20.027  0.00  0.00    +0.000 A 
ATOM     13  C   UNL     1       1.109   2.789  21.367  0.00  0.00    +0.000 A 
ATOM     14  N   UNL     1       2.289   2.791  22.034  0.00  0.00    +0.000 N 
ATOM     15  N   UNL     1       3.356   2.696  21.236  0.00  0.00    +0.000 NA
ATOM     16  C   UNL     1       2.859   2.690  19.979  0.00  0.00    +0.000 A 
ATOM     17  H   UNL     1       2.441   2.850  23.034  0.00  0.00    +0.000 HD
ENDBRANCH   7  16
ENDBRANCH   1   9
BRANCH   4  18
ATOM     18  C   UNL     1       1.665   8.416  20.198  0.00  0.00    +0.000 C 
BRANCH  18  19
ATOM     19  C   UNL     1       0.996   9.765  20.220  0.00  0.00    +0.000 C 
ATOM     20  C   UNL     1       0.287  10.142  21.493  0.00  0.00    +0.000 C 
ATOM     21  C   UNL     1      -0.514   9.976  20.224  0.00  0.00    +0.000 C 
BRANCH  21  22
ATOM     22  C   UNL     1      -1.148  11.232  19.683  0.00  0.00    +0.000 C 
BRANCH  22  23
ATOM     23  C   UNL     1      -2.037  11.054  18.472  0.00  0.00    +0.000 A 
ATOM     24  C   UNL     1      -1.631  10.148  17.474  0.00  0.00    +0.000 A 
ATOM     25  C   UNL     1      -2.459   9.861  16.384  0.00  0.00    +0.000 A 
ATOM     26  C   UNL     1      -3.702  10.470  16.281  0.00  0.00    +0.000 A 
ATOM     27  C   UNL     1      -4.120  11.372  17.261  0.00  0.00    +0.000 A 
ATOM     28  C   UNL     1      -3.294  11.657  18.356  0.00  0.00    +0.000 A 
ENDBRANCH  22  23
ENDBRANCH  21  22
ENDBRANCH  18  19
ENDBRANCH   4  18
TORSDOF 6
ENDMDL
MODEL 2
REMARK VINA RESULT:      -8.1      2.729      4.789
REMARK  Name = 
REMARK  8 active torsions:
REMARK  status: ('A' for Active; 'I' for Inactive)
REMARK    1  A    between atoms: C_1  and  C_2
REMARK    2  A    between atoms: C_6  and  C_7
REMARK    3  A    between atoms: N_9  and  C_10
REMARK    4  A    between atoms: N_9  and  C_11
REMARK    5  A    between atoms: C_14  and  C_16
REMARK    6  A    between atoms: C_16  and  C_17
REMARK    7  A    between atoms: C_19  and  C_20
REMARK    8  A    between atoms: C_20  and  C_21
REMARK                            x       y       z     vdW  Elec       q    Type
REMARK                         _______ _______ _______ _____ _____    ______ ____
ROOT
ATOM      1  C   UNL     1       4.740   4.303  17.389  0.00  0.00    +0.000 C 
ATOM      2  C   UNL     1       3.249   3.950  17.200  0.00  0.00    +0.000 C 
ATOM      3  N   UNL     1       3.000   4.776  18.386  0.00  0.00    +0.000 N 
ATOM      4  C   UNL     1       2.407   4.369  19.563  0.00  0.00    +0.000 C 
ATOM      5  O   UNL     1       1.871   3.268  19.689  0.00  0.00    +0.000 OA
ATOM      6  C   UNL     1       4.245   5.527  18.199  0.00  0.00    +0.000 C 
ENDROOT
BRANCH   1   9
ATOM      7  C   UNL     1       6.961   4.988  16.271  0.00  0.00    +0.000 C 
ATOM      8  O   UNL     1       7.692   4.970  15.280  0.00  0.00    +0.000 OA
ATOM      9  N   UNL     1       5.590   4.615  16.187  0.00  0.00    +0.000 N 
ATOM     10  C   UNL     1       5.022   4.410  14.864  0.00  0.00    +0.000 C 
BRANCH   7  16
ATOM     11  C   UNL     1       7.491   8.062  17.413  0.00  0.00    +0.000 C 
ATOM     12  C   UNL     1       7.725   6.754  18.078  0.00  0.00    +0.000 A 
ATOM     13  C   UNL     1       8.246   6.589  19.344  0.00  0.00    +0.000 A 
ATOM     14  N   UNL     1       8.268   5.255  19.578  0.00  0.00    +0.000 N 
ATOM     15  N   UNL     1       7.793   4.524  18.565  0.00  0.00    +0.000 NA
ATOM     16  C   UNL     1       7.500   5.415  17.593  0.00  0.00    +0.000 A 
ATOM     17  H   UNL     1       8.589   4.771  20.410  0.00  0.00    +0.000 HD
ENDBRANCH   7  16
ENDBRANCH   1   9
BRANCH   4  18
ATOM     18  C   UNL     1       2.365   5.402  20.679  0.00  0.00    +0.000 C 
BRANCH  18  19
ATOM     19  C   UNL     1       1.383   6.512  20.410  0.00  0.00    +0.000 C 
ATOM     20  C   UNL     1       1.947   7.782  19.831  0.00  0.00    +0.000 C 
ATOM     21  C   UNL     1       1.318   7.813  21.202  0.00  0.00    +0.000 C 
BRANCH  21  22
ATOM     22  C   UNL     1       0.046   8.615  21.319  0.00  0.00    +0.000 C 
BRANCH  22  23
ATOM     23  C   UNL     1       0.021   9.927  20.568  0.00  0.00    +0.000 A 
ATOM     24  C   UNL     1       0.852  10.970  21.020  0.00  0.00    +0.000 A 
ATOM     25  C   UNL     1       0.952  12.169  20.307  0.00  0.00    +0.000 A 
ATOM     26  C   UNL     1       0.231  12.338  19.134  0.00  0.00    +0.000 A 
ATOM     27  C   UNL     1      -0.599  11.314  18.672  0.00  0.00    +0.000 A 
ATOM     28  C   UNL     1      -0.698  10.112  19.382  0.00  0.00    +0.000 A 
ENDBRANCH  22  23
ENDBRANCH  21  22
ENDBRANCH  18  19
ENDBRANCH   4  18
TORSDOF 6
ENDMDL
MODEL 3
REMARK VINA RESULT:      -8.0      3.285      5.913
REMARK  Name = 
REMARK  8 active torsions:
REMARK  status: ('A' for Active; 'I' for Inactive)
REMARK    1  A    between atoms: C_1  and  C_2
REMARK    2  A    between atoms: C_6  and  C_7
REMARK    3  A    between atoms: N_9  and  C_10
REMARK    4  A    between atoms: N_9  and  C_11
REMARK    5  A    between atoms: C_14  and  C_16
REMARK    6  A    between atoms: C_16  and  C_17
REMARK    7  A    between atoms: C_19  and  C_20
REMARK    8  A    between atoms: C_20  and  C_21
REMARK                            x       y       z     vdW  Elec       q    Type
REMARK                         _______ _______ _______ _____ _____    ______ ____
ROOT
ATOM      1  C   UNL     1       5.199   3.735  16.767  0.00  0.00    +0.000 C 
ATOM      2  C   UNL     1       4.689   2.317  16.435  0.00  0.00    +0.000 C 
ATOM      3  N   UNL     1       3.511   2.653  17.242  0.00  0.00    +0.000 N 
ATOM      4  C   UNL     1       3.062   1.984  18.361  0.00  0.00    +0.000 C 
ATOM      5  O   UNL     1       3.536   0.908  18.725  0.00  0.00    +0.000 OA
ATOM      6  C   UNL     1       3.719   4.092  17.055  0.00  0.00    +0.000 C 
ENDROOT
BRANCH   1   9
ATOM      7  C   UNL     1       7.076   5.284  15.912  0.00  0.00    +0.000 C 
ATOM      8  O   UNL     1       7.741   5.713  14.968  0.00  0.00    +0.000 OA
ATOM      9  N   UNL     1       5.873   4.554  15.699  0.00  0.00    +0.000 N 
ATOM     10  C   UNL     1       5.338   4.505  14.347  0.00  0.00    +0.000 C 
BRANCH   7  16
ATOM     11  C   UNL     1       7.497   8.177  17.487  0.00  0.00    +0.000 C 
ATOM     12  C   UNL     1       7.696   6.793  17.988  0.00  0.00    +0.000 A 
ATOM     13  C   UNL     1       8.128   6.460  19.253  0.00  0.00    +0.000 A 
ATOM     14  N   UNL     1       8.145   5.106  19.309  0.00  0.00    +0.000 N 
ATOM     15  N   UNL     1       7.749   4.517  18.177  0.00  0.00    +0.000 NA
ATOM     16  C   UNL     1       7.517   5.531  17.314  0.00  0.00    +0.000 A 
ATOM     17  H   UNL     1       8.411   4.516  20.089  0.00  0.00    +0.000 HD
ENDBRANCH   7  16
ENDBRANCH   1   9
BRANCH   4  18
ATOM     18  C   UNL     1       1.871   2.607  19.076  0.00  0.00    +0.000 C 
BRANCH  18  19
ATOM     19  C   UNL     1       2.275   3.679  20.054  0.00  0.00    +0.000 C 
ATOM     20  C   UNL     1       1.485   3.751  21.333  0.00  0.00    +0.000 C 
ATOM     21  C   UNL     1       1.437   4.912  20.370  0.00  0.00    +0.000 C 
BRANCH  21  22
ATOM     22  C   UNL     1       2.056   6.196  20.863  0.00  0.00    +0.000 C 
BRANCH  22  23
ATOM     23  C   UNL     1       2.003   7.365  19.905  0.00  0.00    +0.000 A 
ATOM     24  C   UNL     1       2.651   7.237  18.661  0.00  0.00    +0.000 A 
ATOM     25  C   UNL     1       2.549   8.241  17.692  0.00  0.00    +0.000 A 
ATOM     26  C   UNL     1       1.796   9.377  17.950  0.00  0.00    +0.000 A 
ATOM     27  C   UNL     1       1.149   9.521  19.179  0.00  0.00    +0.000 A 
ATOM     28  C   UNL     1       1.247   8.516  20.149  0.00  0.00    +0.000 A 
ENDBRANCH  22  23
ENDBRANCH  21  22
ENDBRANCH  18  19
ENDBRANCH   4  18
TORSDOF 6
ENDMDL
MODEL 4
REMARK VINA RESULT:      -8.0      0.541      1.074
REMARK  Name = 
REMARK  8 active torsions:
REMARK  status: ('A' for Active; 'I' for Inactive)
REMARK    1  A    between atoms: C_1  and  C_2
REMARK    2  A    between atoms: C_6  and  C_7
REMARK    3  A    between atoms: N_9  and  C_10
REMARK    4  A    between atoms: N_9  and  C_11
REMARK    5  A    between atoms: C_14  and  C_16
REMARK    6  A    between atoms: C_16  and  C_17
REMARK    7  A    between atoms: C_19  and  C_20
REMARK    8  A    between atoms: C_20  and  C_21
REMARK                            x       y       z     vdW  Elec       q    Type
REMARK                         _______ _______ _______ _____ _____    ______ ____
ROOT
ATOM      1  C   UNL     1       3.432   5.182  18.507  0.00  0.00    +0.000 C 
ATOM      2  C   UNL     1       3.855   6.490  17.804  0.00  0.00    +0.000 C 
ATOM      3  N   UNL     1       3.107   7.187  18.856  0.00  0.00    +0.000 N 
ATOM      4  C   UNL     1       2.046   8.050  18.679  0.00  0.00    +0.000 C 
ATOM      5  O   UNL     1       1.700   8.455  17.570  0.00  0.00    +0.000 OA
ATOM      6  C   UNL     1       3.220   6.048  19.774  0.00  0.00    +0.000 C 
ENDROOT
BRANCH   1   9
ATOM      7  C   UNL     1       4.151   2.855  19.358  0.00  0.00    +0.000 C 
ATOM      8  O   UNL     1       4.859   1.856  19.224  0.00  0.00    +0.000 OA
ATOM      9  N   UNL     1       4.422   4.056  18.643  0.00  0.00    +0.000 N 
ATOM     10  C   UNL     1       5.675   4.143  17.911  0.00  0.00    +0.000 C 
BRANCH   7  16
ATOM     11  C   UNL     1       0.925   2.508  18.649  0.00  0.00    +0.000 C 
ATOM     12  C   UNL     1       1.588   2.679  19.967  0.00  0.00    +0.000 A 
ATOM     13  C   UNL     1       0.938   2.743  21.181  0.00  0.00    +0.000 A 
ATOM     14  N   UNL     1       1.901   2.872  22.125  0.00  0.00    +0.000 N 
ATOM     15  N   UNL     1       3.142   2.891  21.628  0.00  0.00    +0.000 NA
ATOM     16  C   UNL     1       2.985   2.831  20.287  0.00  0.00    +0.000 A 
ATOM     17  H   UNL     1       1.786   2.948  23.129  0.00  0.00    +0.000 HD
ENDBRANCH   7  16
ENDBRANCH   1   9
BRANCH   4  18
ATOM     18  C   UNL     1       1.380   8.556  19.950  0.00  0.00    +0.000 C 
BRANCH  18  19
ATOM     19  C   UNL     1       0.749   9.912  19.777  0.00  0.00    +0.000 C 
ATOM     20  C   UNL     1       0.295  10.607  21.033  0.00  0.00    +0.000 C 
ATOM     21  C   UNL     1      -0.730  10.206  20.000  0.00  0.00    +0.000 C 
BRANCH  21  22
ATOM     22  C   UNL     1      -1.433  11.343  19.302  0.00  0.00    +0.000 C 
BRANCH  22  23
ATOM     23  C   UNL     1      -2.279  10.964  18.107  0.00  0.00    +0.000 A 
ATOM     24  C   UNL     1      -3.511  11.621  17.927  0.00  0.00    +0.000 A 
ATOM     25  C   UNL     1      -4.287  11.391  16.786  0.00  0.00    +0.000 A 
ATOM     26  C   UNL     1      -3.841  10.509  15.813  0.00  0.00    +0.000 A 
ATOM     27  C   UNL     1      -2.622   9.848  15.976  0.00  0.00    +0.000 A 
ATOM     28  C   UNL     1      -1.842  10.080  17.115  0.00  0.00    +0.000 A 
ENDBRANCH  22  23
ENDBRANCH  21  22
ENDBRANCH  18  19
ENDBRANCH   4  18
TORSDOF 6
ENDMDL
MODEL 5
REMARK VINA RESULT:      -7.9      3.142      5.044
REMARK  Name = 
REMARK  8 active torsions:
REMARK  status: ('A' for Active; 'I' for Inactive)
REMARK    1  A    between atoms: C_1  and  C_2
REMARK    2  A    between atoms: C_6  and  C_7
REMARK    3  A    between atoms: N_9  and  C_10
REMARK    4  A    between atoms: N_9  and  C_11
REMARK    5  A    between atoms: C_14  and  C_16
REMARK    6  A    between atoms: C_16  and  C_17
REMARK    7  A    between atoms: C_19  and  C_20
REMARK    8  A    between atoms: C_20  and  C_21
REMARK                            x       y       z     vdW  Elec       q    Type
REMARK                         _______ _______ _______ _____ _____    ______ ____
ROOT
ATOM      1  C   UNL     1       4.762   4.319  17.450  0.00  0.00    +0.000 C 
ATOM      2  C   UNL     1       3.275   3.943  17.279  0.00  0.00    +0.000 C 
ATOM      3  N   UNL     1       3.021   4.803  18.441  0.00  0.00    +0.000 N 
ATOM      4  C   UNL     1       2.438   4.426  19.633  0.00  0.00    +0.000 C 
ATOM      5  O   UNL     1       1.916   3.324  19.796  0.00  0.00    +0.000 OA
ATOM      6  C   UNL     1       4.256   5.563  18.224  0.00  0.00    +0.000 C 
ENDROOT
BRANCH   1   9
ATOM      7  C   UNL     1       6.976   4.975  16.299  0.00  0.00    +0.000 C 
ATOM      8  O   UNL     1       7.698   4.933  15.303  0.00  0.00    +0.000 OA
ATOM      9  N   UNL     1       5.603   4.603  16.235  0.00  0.00    +0.000 N 
ATOM     10  C   UNL     1       5.023   4.373  14.921  0.00  0.00    +0.000 C 
BRANCH   7  16
ATOM     11  C   UNL     1       7.509   8.070  17.378  0.00  0.00    +0.000 C 
ATOM     12  C   UNL     1       7.753   6.776  18.065  0.00  0.00    +0.000 A 
ATOM     13  C   UNL     1       8.287   6.636  19.328  0.00  0.00    +0.000 A 
ATOM     14  N   UNL     1       8.315   5.306  19.587  0.00  0.00    +0.000 N 
ATOM     15  N   UNL     1       7.832   4.556  18.593  0.00  0.00    +0.000 NA
ATOM     16  C   UNL     1       7.526   5.428  17.608  0.00  0.00    +0.000 A 
ATOM     17  H   UNL     1       8.645   4.840  20.425  0.00  0.00    +0.000 HD
ENDBRANCH   7  16
ENDBRANCH   1   9
BRANCH   4  18
ATOM     18  C   UNL     1       2.390   5.493  20.716  0.00  0.00    +0.000 C 
BRANCH  18  19
ATOM     19  C   UNL     1       1.326   6.530  20.465  0.00  0.00    +0.000 C 
ATOM     20  C   UNL     1       1.803   7.890  20.030  0.00  0.00    +0.000 C 
ATOM     21  C   UNL     1       1.087   7.747  21.351  0.00  0.00    +0.000 C 
BRANCH  21  22
ATOM     22  C   UNL     1      -0.259   8.420  21.441  0.00  0.00    +0.000 C 
BRANCH  22  23
ATOM     23  C   UNL     1      -0.238   9.910  21.700  0.00  0.00    +0.000 A 
ATOM     24  C   UNL     1       0.413  10.739  20.766  0.00  0.00    +0.000 A 
ATOM     25  C   UNL     1       0.376  12.132  20.895  0.00  0.00    +0.000 A 
ATOM     26  C   UNL     1      -0.314  12.711  21.950  0.00  0.00    +0.000 A 
ATOM     27  C   UNL     1      -0.964  11.903  22.886  0.00  0.00    +0.000 A 
ATOM     28  C   UNL     1      -0.931  10.509  22.757  0.00  0.00    +0.000 A 
ENDBRANCH  22  23
ENDBRANCH  21  22
ENDBRANCH  18  19
ENDBRANCH   4  18
TORSDOF 6
ENDMDL
MODEL 6
REMARK VINA RESULT:      -7.8      3.141      5.578
REMARK  Name = 
REMARK  8 active torsions:
REMARK  status: ('A' for Active; 'I' for Inactive)
REMARK    1  A    between atoms: C_1  and  C_2
REMARK    2  A    between atoms: C_6  and  C_7
REMARK    3  A    between atoms: N_9  and  C_10
REMARK    4  A    between atoms: N_9  and  C_11
REMARK    5  A    between atoms: C_14  and  C_16
REMARK    6  A    between atoms: C_16  and  C_17
REMARK    7  A    between atoms: C_19  and  C_20
REMARK    8  A    between atoms: C_20  and  C_21
REMARK                            x       y       z     vdW  Elec       q    Type
REMARK                         _______ _______ _______ _____ _____    ______ ____
ROOT
ATOM      1  C   UNL     1       4.890   3.905  16.783  0.00  0.00    +0.000 C 
ATOM      2  C   UNL     1       4.089   2.619  16.490  0.00  0.00    +0.000 C 
ATOM      3  N   UNL     1       3.003   3.231  17.264  0.00  0.00    +0.000 N 
ATOM      4  C   UNL     1       2.409   2.717  18.397  0.00  0.00    +0.000 C 
ATOM      5  O   UNL     1       2.635   1.578  18.806  0.00  0.00    +0.000 OA
ATOM      6  C   UNL     1       3.520   4.584  17.033  0.00  0.00    +0.000 C 
ENDROOT
BRANCH   1   9
ATOM      7  C   UNL     1       7.020   5.087  15.935  0.00  0.00    +0.000 C 
ATOM      8  O   UNL     1       7.793   5.329  15.007  0.00  0.00    +0.000 OA
ATOM      9  N   UNL     1       5.736   4.520  15.701  0.00  0.00    +0.000 N 
ATOM     10  C   UNL     1       5.276   4.425  14.324  0.00  0.00    +0.000 C 
BRANCH   7  16
ATOM     11  C   UNL     1       7.533   8.044  17.358  0.00  0.00    +0.000 C 
ATOM     12  C   UNL     1       7.634   6.683  17.946  0.00  0.00    +0.000 A 
ATOM     13  C   UNL     1       7.993   6.405  19.247  0.00  0.00    +0.000 A 
ATOM     14  N   UNL     1       7.933   5.059  19.382  0.00  0.00    +0.000 N 
ATOM     15  N   UNL     1       7.553   4.424  18.269  0.00  0.00    +0.000 NA
ATOM     16  C   UNL     1       7.414   5.394  17.339  0.00  0.00    +0.000 A 
ATOM     17  H   UNL     1       8.132   4.504  20.207  0.00  0.00    +0.000 HD
ENDBRANCH   7  16
ENDBRANCH   1   9
BRANCH   4  18
ATOM     18  C   UNL     1       1.374   3.608  19.069  0.00  0.00    +0.000 C 
BRANCH  18  19
ATOM     19  C   UNL     1       1.994   4.752  19.825  0.00  0.00    +0.000 C 
ATOM     20  C   UNL     1       2.140   4.574  21.313  0.00  0.00    +0.000 C 
ATOM     21  C   UNL     1       1.234   5.660  20.786  0.00  0.00    +0.000 C 
BRANCH  21  22
ATOM     22  C   UNL     1       1.675   7.073  21.070  0.00  0.00    +0.000 C 
BRANCH  22  23
ATOM     23  C   UNL     1       1.648   8.023  19.893  0.00  0.00    +0.000 A 
ATOM     24  C   UNL     1       1.006   9.266  20.055  0.00  0.00    +0.000 A 
ATOM     25  C   UNL     1       1.039  10.228  19.040  0.00  0.00    +0.000 A 
ATOM     26  C   UNL     1       1.716   9.965  17.859  0.00  0.00    +0.000 A 
ATOM     27  C   UNL     1       2.358   8.736  17.682  0.00  0.00    +0.000 A 
ATOM     28  C   UNL     1       2.329   7.773  18.697  0.00  0.00    +0.000 A 
ENDBRANCH  22  23
ENDBRANCH  21  22
ENDBRANCH  18  19
ENDBRANCH   4  18
TORSDOF 6
ENDMDL
MODEL 7
REMARK VINA RESULT:      -7.7      2.659      3.467
REMARK  Name = 
REMARK  8 active torsions:
REMARK  status: ('A' for Active; 'I' for Inactive)
REMARK    1  A    between atoms: C_1  and  C_2
REMARK    2  A    between atoms: C_6  and  C_7
REMARK    3  A    between atoms: N_9  and  C_10
REMARK    4  A    between atoms: N_9  and  C_11
REMARK    5  A    between atoms: C_14  and  C_16
REMARK    6  A    between atoms: C_16  and  C_17
REMARK    7  A    between atoms: C_19  and  C_20
REMARK    8  A    between atoms: C_20  and  C_21
REMARK                            x       y       z     vdW  Elec       q    Type
REMARK                         _______ _______ _______ _____ _____    ______ ____
ROOT
ATOM      1  C   UNL     1       2.683   6.472  18.072  0.00  0.00    +0.000 C 
ATOM      2  C   UNL     1       2.812   8.010  18.026  0.00  0.00    +0.000 C 
ATOM      3  N   UNL     1       2.282   8.001  19.394  0.00  0.00    +0.000 N 
ATOM      4  C   UNL     1       1.140   8.634  19.839  0.00  0.00    +0.000 C 
ATOM      5  O   UNL     1       0.505   9.424  19.139  0.00  0.00    +0.000 OA
ATOM      6  C   UNL     1       2.707   6.615  19.614  0.00  0.00    +0.000 C 
ENDROOT
BRANCH   1   9
ATOM      7  C   UNL     1       3.674   4.200  17.359  0.00  0.00    +0.000 C 
ATOM      8  O   UNL     1       4.441   3.565  16.634  0.00  0.00    +0.000 OA
ATOM      9  N   UNL     1       3.768   5.615  17.478  0.00  0.00    +0.000 N 
ATOM     10  C   UNL     1       4.922   6.271  16.885  0.00  0.00    +0.000 C 
BRANCH   7  16
ATOM     11  C   UNL     1       3.924   2.731  20.328  0.00  0.00    +0.000 C 
ATOM     12  C   UNL     1       2.744   2.857  19.433  0.00  0.00    +0.000 A 
ATOM     13  C   UNL     1       1.492   2.342  19.693  0.00  0.00    +0.000 A 
ATOM     14  N   UNL     1       0.706   2.701  18.649  0.00  0.00    +0.000 N 
ATOM     15  N   UNL     1       1.342   3.422  17.721  0.00  0.00    +0.000 NA
ATOM     16  C   UNL     1       2.624   3.491  18.144  0.00  0.00    +0.000 A 
ATOM     17  H   UNL     1      -0.276   2.493  18.506  0.00  0.00    +0.000 HD
ENDBRANCH   7  16
ENDBRANCH   1   9
BRANCH   4  18
ATOM     18  C   UNL     1       0.757   8.375  21.288  0.00  0.00    +0.000 C 
BRANCH  18  19
ATOM     19  C   UNL     1       0.585   9.644  22.080  0.00  0.00    +0.000 C 
ATOM     20  C   UNL     1       0.102   9.491  23.498  0.00  0.00    +0.000 C 
ATOM     21  C   UNL     1      -0.763  10.220  22.499  0.00  0.00    +0.000 C 
BRANCH  21  22
ATOM     22  C   UNL     1      -0.960  11.692  22.757  0.00  0.00    +0.000 C 
BRANCH  22  23
ATOM     23  C   UNL     1      -2.370  12.211  22.583  0.00  0.00    +0.000 A 
ATOM     24  C   UNL     1      -3.213  12.239  23.711  0.00  0.00    +0.000 A 
ATOM     25  C   UNL     1      -4.490  12.804  23.638  0.00  0.00    +0.000 A 
ATOM     26  C   UNL     1      -4.937  13.353  22.445  0.00  0.00    +0.000 A 
ATOM     27  C   UNL     1      -4.114  13.333  21.317  0.00  0.00    +0.000 A 
ATOM     28  C   UNL     1      -2.833  12.771  21.388  0.00  0.00    +0.000 A 
ENDBRANCH  22  23
ENDBRANCH  21  22
ENDBRANCH  18  19
ENDBRANCH   4  18
TORSDOF 6
ENDMDL
MODEL 8
REMARK VINA RESULT:      -7.7      4.377      9.459
REMARK  Name = 
REMARK  8 active torsions:
REMARK  status: ('A' for Active; 'I' for Inactive)
REMARK    1  A    between atoms: C_1  and  C_2
REMARK    2  A    between atoms: C_6  and  C_7
REMARK    3  A    between atoms: N_9  and  C_10
REMARK    4  A    between atoms: N_9  and  C_11
REMARK    5  A    between atoms: C_14  and  C_16
REMARK    6  A    between atoms: C_16  and  C_17
REMARK    7  A    between atoms: C_19  and  C_20
REMARK    8  A    between atoms: C_20  and  C_21
REMARK                            x       y       z     vdW  Elec       q    Type
REMARK                         _______ _______ _______ _____ _____    ______ ____
ROOT
ATOM      1  C   UNL     1      -3.056  11.353  18.384  0.00  0.00    +0.000 C 
ATOM      2  C   UNL     1      -1.733  12.119  18.168  0.00  0.00    +0.000 C 
ATOM      3  N   UNL     1      -1.059  10.867  18.528  0.00  0.00    +0.000 N 
ATOM      4  C   UNL     1      -0.172  10.679  19.568  0.00  0.00    +0.000 C 
ATOM      5  O   UNL     1       0.276  11.612  20.234  0.00  0.00    +0.000 OA
ATOM      6  C   UNL     1      -2.229  10.062  18.164  0.00  0.00    +0.000 C 
ENDROOT
BRANCH   1   9
ATOM      7  C   UNL     1      -5.414  12.219  17.796  0.00  0.00    +0.000 C 
ATOM      8  O   UNL     1      -6.209  12.616  16.943  0.00  0.00    +0.000 OA
ATOM      9  N   UNL     1      -4.203  11.565  17.433  0.00  0.00    +0.000 N 
ATOM     10  C   UNL     1      -4.025  11.190  16.039  0.00  0.00    +0.000 C 
BRANCH   7  16
ATOM     11  C   UNL     1      -7.120  10.248  19.854  0.00  0.00    +0.000 C 
ATOM     12  C   UNL     1      -6.452  11.547  20.128  0.00  0.00    +0.000 A 
ATOM     13  C   UNL     1      -6.442  12.193  21.345  0.00  0.00    +0.000 A 
ATOM     14  N   UNL     1      -5.705  13.318  21.176  0.00  0.00    +0.000 N 
ATOM     15  N   UNL     1      -5.220  13.460  19.939  0.00  0.00    +0.000 NA
ATOM     16  C   UNL     1      -5.709  12.410  19.244  0.00  0.00    +0.000 A 
ATOM     17  H   UNL     1      -5.488  14.032  21.862  0.00  0.00    +0.000 HD
ENDBRANCH   7  16
ENDBRANCH   1   9
BRANCH   4  18
ATOM     18  C   UNL     1       0.303   9.250  19.787  0.00  0.00    +0.000 C 
BRANCH  18  19
ATOM     19  C   UNL     1       1.671   8.996  19.212  0.00  0.00    +0.000 C 
ATOM     20  C   UNL     1       1.945   9.574  17.850  0.00  0.00    +0.000 C 
ATOM     21  C   UNL     1       1.949   8.076  18.029  0.00  0.00    +0.000 C 
BRANCH  21  22
ATOM     22  C   UNL     1       3.283   7.399  17.838  0.00  0.00    +0.000 C 
BRANCH  22  23
ATOM     23  C   UNL     1       3.249   5.890  17.735  0.00  0.00    +0.000 A 
ATOM     24  C   UNL     1       2.041   5.229  18.027  0.00  0.00    +0.000 A 
ATOM     25  C   UNL     1       1.917   3.848  17.848  0.00  0.00    +0.000 A 
ATOM     26  C   UNL     1       2.992   3.113  17.371  0.00  0.00    +0.000 A 
ATOM     27  C   UNL     1       4.198   3.753  17.076  0.00  0.00    +0.000 A 
ATOM     28  C   UNL     1       4.323   5.136  17.251  0.00  0.00    +0.000 A 
ENDBRANCH  22  23
ENDBRANCH  21  22
ENDBRANCH  18  19
ENDBRANCH   4  18
TORSDOF 6
ENDMDL
MODEL 9
REMARK VINA RESULT:      -7.6      2.878      3.978
REMARK  Name = 
REMARK  8 active torsions:
REMARK  status: ('A' for Active; 'I' for Inactive)
REMARK    1  A    between atoms: C_1  and  C_2
REMARK    2  A    between atoms: C_6  and  C_7
REMARK    3  A    between atoms: N_9  and  C_10
REMARK    4  A    between atoms: N_9  and  C_11
REMARK    5  A    between atoms: C_14  and  C_16
REMARK    6  A    between atoms: C_16  and  C_17
REMARK    7  A    between atoms: C_19  and  C_20
REMARK    8  A    between atoms: C_20  and  C_21
REMARK                            x       y       z     vdW  Elec       q    Type
REMARK                         _______ _______ _______ _____ _____    ______ ____
ROOT
ATOM      1  C   UNL     1       2.679   6.540  18.036  0.00  0.00    +0.000 C 
ATOM      2  C   UNL     1       2.755   8.077  17.915  0.00  0.00    +0.000 C 
ATOM      3  N   UNL     1       2.242   8.117  19.289  0.00  0.00    +0.000 N 
ATOM      4  C   UNL     1       1.084   8.732  19.719  0.00  0.00    +0.000 C 
ATOM      5  O   UNL     1       0.414   9.465  18.991  0.00  0.00    +0.000 OA
ATOM      6  C   UNL     1       2.716   6.758  19.570  0.00  0.00    +0.000 C 
ENDROOT
BRANCH   1   9
ATOM      7  C   UNL     1       3.704   4.277  17.342  0.00  0.00    +0.000 C 
ATOM      8  O   UNL     1       4.495   3.650  16.636  0.00  0.00    +0.000 OA
ATOM      9  N   UNL     1       3.786   5.693  17.469  0.00  0.00    +0.000 N 
ATOM     10  C   UNL     1       4.952   6.358  16.912  0.00  0.00    +0.000 C 
BRANCH   7  16
ATOM     11  C   UNL     1       3.916   2.668  20.239  0.00  0.00    +0.000 C 
ATOM     12  C   UNL     1       2.741   2.863  19.352  0.00  0.00    +0.000 A 
ATOM     13  C   UNL     1       1.477   2.368  19.589  0.00  0.00    +0.000 A 
ATOM     14  N   UNL     1       0.700   2.793  18.563  0.00  0.00    +0.000 N 
ATOM     15  N   UNL     1       1.354   3.540  17.669  0.00  0.00    +0.000 NA
ATOM     16  C   UNL     1       2.636   3.559  18.094  0.00  0.00    +0.000 A 
ATOM     17  H   UNL     1      -0.287   2.616  18.411  0.00  0.00    +0.000 HD
ENDBRANCH   7  16
ENDBRANCH   1   9
BRANCH   4  18
ATOM     18  C   UNL     1       0.727   8.530  21.184  0.00  0.00    +0.000 C 
BRANCH  18  19
ATOM     19  C   UNL     1       0.673   9.824  21.953  0.00  0.00    +0.000 C 
ATOM     20  C   UNL     1      -0.158   9.825  23.208  0.00  0.00    +0.000 C 
ATOM     21  C   UNL     1      -0.564  10.710  22.056  0.00  0.00    +0.000 C 
BRANCH  21  22
ATOM     22  C   UNL     1      -0.466  12.194  22.306  0.00  0.00    +0.000 C 
BRANCH  22  23
ATOM     23  C   UNL     1      -1.619  12.814  23.063  0.00  0.00    +0.000 A 
ATOM     24  C   UNL     1      -2.798  12.059  23.217  0.00  0.00    +0.000 A 
ATOM     25  C   UNL     1      -3.859  12.534  23.995  0.00  0.00    +0.000 A 
ATOM     26  C   UNL     1      -3.754  13.762  24.631  0.00  0.00    +0.000 A 
ATOM     27  C   UNL     1      -2.592  14.525  24.488  0.00  0.00    +0.000 A 
ATOM     28  C   UNL     1      -1.528  14.049  23.713  0.00  0.00    +0.000 A 
ENDBRANCH  22  23
ENDBRANCH  21  22
ENDBRANCH  18  19
ENDBRANCH   4  18
TORSDOF 6
ENDMDL
