MODEL 1
REMARK VINA RESULT:      -8.2      0.000      0.000
REMARK  Name = 
REMARK  5 active torsions:
REMARK  status: ('A' for Active; 'I' for Inactive)
REMARK    1  A    between atoms: C_1  and  N_2
REMARK    2  A    between atoms: N_2  and  C_3
REMARK    3  A    between atoms: C_3  and  C_4
REMARK    4  A    between atoms: C_11  and  C_13
REMARK    5  A    between atoms: C_17  and  N_18
REMARK                            x       y       z     vdW  Elec       q    Type
REMARK                         _______ _______ _______ _____ _____    ______ ____
ROOT
ATOM      1  C   UNL     1       2.633   7.429  18.838  0.00  0.00    +0.000 A 
ATOM      2  C   UNL     1       2.500   7.119  20.188  0.00  0.00    +0.000 A 
ATOM      3  C   UNL     1       1.439   7.578  20.951  0.00  0.00    +0.000 A 
ATOM      4  C   UNL     1       0.631   8.567  20.432  0.00  0.00    +0.000 A 
ATOM      5  C   UNL     1       0.967   9.156  19.217  0.00  0.00    +0.000 A 
ATOM      6  C   UNL     1       1.891   8.508  18.371  0.00  0.00    +0.000 A 
ENDROOT
BRANCH   5   7
ATOM      7  N   UNL     1       0.328  10.331  18.792  0.00  0.00    +0.000 N 
ATOM      8  C   UNL     1       0.651  11.594  19.221  0.00  0.00    +0.000 C 
ATOM      9  O   UNL     1       1.688  12.094  19.617  0.00  0.00    +0.000 OA
ATOM     10  C   UNL     1      -0.620  12.299  19.227  0.00  0.00    +0.000 A 
ATOM     11  C   UNL     1      -1.035  13.167  20.211  0.00  0.00    +0.000 A 
ATOM     12  C   UNL     1      -2.413  13.251  20.424  0.00  0.00    +0.000 A 
ATOM     13  C   UNL     1      -3.321  12.526  19.625  0.00  0.00    +0.000 A 
ATOM     14  C   UNL     1      -2.879  11.667  18.621  0.00  0.00    +0.000 A 
ATOM     15  C   UNL     1      -1.516  11.553  18.475  0.00  0.00    +0.000 A 
ATOM     16  C   UNL     1      -0.832  10.348  18.060  0.00  0.00    +0.000 C 
ATOM     17  O   UNL     1      -1.297   9.553  17.257  0.00  0.00    +0.000 OA
ENDBRANCH   5   7
BRANCH   1  20
ATOM     18  C   UNL     1       4.188   4.768  16.559  0.00  0.00    +0.000 C 
ATOM     19  N   UNL     1       3.236   5.377  17.471  0.00  0.00    +0.000 N 
ATOM     20  C   UNL     1       3.537   6.686  17.901  0.00  0.00    +0.000 C 
ATOM     21  O   UNL     1       4.524   7.282  17.474  0.00  0.00    +0.000 OA
BRANCH  19  22
ATOM     22  C   UNL     1       2.055   4.570  17.810  0.00  0.00    +0.000 C 
BRANCH  22  23
ATOM     23  C   UNL     1       2.175   3.769  19.100  0.00  0.00    +0.000 A 
ATOM     24  C   UNL     1       1.091   3.766  19.999  0.00  0.00    +0.000 A 
ATOM     25  C   UNL     1       1.189   3.140  21.247  0.00  0.00    +0.000 A 
ATOM     26  C   UNL     1       2.374   2.506  21.616  0.00  0.00    +0.000 A 
ATOM     27  C   UNL     1       3.449   2.506  20.737  0.00  0.00    +0.000 A 
ATOM     28  F   UNL     1       4.598   1.925  21.105  0.00  0.00    +0.000 F 
ATOM     29  C   UNL     1       3.361   3.122  19.492  0.00  0.00    +0.000 A 
ENDBRANCH  22  23
ENDBRANCH  19  22
ENDBRANCH   1  20
TORSDOF 4
ENDMDL
MODEL 2
REMARK VINA RESULT:      -8.1      3.304      8.509
REMARK  Name = 
REMARK  5 active torsions:
REMARK  status: ('A' for Active; 'I' for Inactive)
REMARK    1  A    between atoms: C_1  and  N_2
REMARK    2  A    between atoms: N_2  and  C_3
REMARK    3  A    between atoms: C_3  and  C_4
REMARK    4  A    between atoms: C_11  and  C_13
REMARK    5  A    between atoms: C_17  and  N_18
REMARK                            x       y       z     vdW  Elec       q    Type
REMARK                         _______ _______ _______ _____ _____    ______ ____
ROOT
ATOM      1  C   UNL     1       1.242   9.205  20.079  0.00  0.00    +0.000 A 
ATOM      2  C   UNL     1       1.483   9.768  18.830  0.00  0.00    +0.000 A 
ATOM      3  C   UNL     1       1.869   9.007  17.739  0.00  0.00    +0.000 A 
ATOM      4  C   UNL     1       2.267   7.704  17.949  0.00  0.00    +0.000 A 
ATOM      5  C   UNL     1       2.382   7.227  19.252  0.00  0.00    +0.000 A 
ATOM      6  C   UNL     1       1.759   7.934  20.301  0.00  0.00    +0.000 A 
ENDROOT
BRANCH   5   7
ATOM      7  N   UNL     1       3.030   6.009  19.510  0.00  0.00    +0.000 N 
ATOM      8  C   UNL     1       4.130   5.550  18.828  0.00  0.00    +0.000 C 
ATOM      9  O   UNL     1       5.043   6.113  18.253  0.00  0.00    +0.000 OA
ATOM     10  C   UNL     1       3.955   4.107  18.812  0.00  0.00    +0.000 A 
ATOM     11  C   UNL     1       4.202   3.296  17.728  0.00  0.00    +0.000 A 
ATOM     12  C   UNL     1       3.432   2.135  17.631  0.00  0.00    +0.000 A 
ATOM     13  C   UNL     1       2.497   1.794  18.631  0.00  0.00    +0.000 A 
ATOM     14  C   UNL     1       2.275   2.621  19.730  0.00  0.00    +0.000 A 
ATOM     15  C   UNL     1       3.000   3.790  19.767  0.00  0.00    +0.000 A 
ATOM     16  C   UNL     1       2.524   5.034  20.331  0.00  0.00    +0.000 C 
ATOM     17  O   UNL     1       1.790   5.094  21.306  0.00  0.00    +0.000 OA
ENDBRANCH   5   7
BRANCH   1  20
ATOM     18  C   UNL     1      -0.991  11.615  22.056  0.00  0.00    +0.000 C 
ATOM     19  N   UNL     1      -0.313  11.031  20.910  0.00  0.00    +0.000 N 
ATOM     20  C   UNL     1       0.494   9.904  21.174  0.00  0.00    +0.000 C 
ATOM     21  O   UNL     1       0.564   9.426  22.304  0.00  0.00    +0.000 OA
BRANCH  19  22
ATOM     22  C   UNL     1      -0.577  11.662  19.610  0.00  0.00    +0.000 C 
BRANCH  22  23
ATOM     23  C   UNL     1      -1.897  11.268  18.962  0.00  0.00    +0.000 A 
ATOM     24  C   UNL     1      -1.914  10.183  18.065  0.00  0.00    +0.000 A 
ATOM     25  C   UNL     1      -3.076   9.850  17.358  0.00  0.00    +0.000 A 
ATOM     26  C   UNL     1      -4.238  10.596  17.537  0.00  0.00    +0.000 A 
ATOM     27  C   UNL     1      -4.230  11.669  18.418  0.00  0.00    +0.000 A 
ATOM     28  F   UNL     1      -5.338  12.407  18.566  0.00  0.00    +0.000 F 
ATOM     29  C   UNL     1      -3.082  12.008  19.130  0.00  0.00    +0.000 A 
ENDBRANCH  22  23
ENDBRANCH  19  22
ENDBRANCH   1  20
TORSDOF 4
ENDMDL
MODEL 3
REMARK VINA RESULT:      -8.0      3.241      5.329
REMARK  Name = 
REMARK  5 active torsions:
REMARK  status: ('A' for Active; 'I' for Inactive)
REMARK    1  A    between atoms: C_1  and  N_2
REMARK    2  A    between atoms: N_2  and  C_3
REMARK    3  A    between atoms: C_3  and  C_4
REMARK    4  A    between atoms: C_11  and  C_13
REMARK    5  A    between atoms: C_17  and  N_18
REMARK                            x       y       z     vdW  Elec       q    Type
REMARK                         _______ _______ _______ _____ _____    ______ ____
ROOT
ATOM      1  C   UNL     1       4.090   4.945  18.283  0.00  0.00    +0.000 A 
ATOM      2  C   UNL     1       3.018   4.080  18.090  0.00  0.00    +0.000 A 
ATOM      3  C   UNL     1       1.735   4.537  17.840  0.00  0.00    +0.000 A 
ATOM      4  C   UNL     1       1.460   5.874  18.035  0.00  0.00    +0.000 A 
ATOM      5  C   UNL     1       2.437   6.699  18.585  0.00  0.00    +0.000 A 
ATOM      6  C   UNL     1       3.778   6.264  18.595  0.00  0.00    +0.000 A 
ENDROOT
BRANCH   5   7
ATOM      7  N   UNL     1       2.111   7.987  19.038  0.00  0.00    +0.000 N 
ATOM      8  C   UNL     1       1.672   8.279  20.306  0.00  0.00    +0.000 C 
ATOM      9  O   UNL     1       1.858   7.756  21.389  0.00  0.00    +0.000 OA
ATOM     10  C   UNL     1       0.753   9.389  20.110  0.00  0.00    +0.000 A 
ATOM     11  C   UNL     1      -0.458   9.531  20.750  0.00  0.00    +0.000 A 
ATOM     12  C   UNL     1      -1.454  10.216  20.051  0.00  0.00    +0.000 A 
ATOM     13  C   UNL     1      -1.199  10.779  18.783  0.00  0.00    +0.000 A 
ATOM     14  C   UNL     1       0.039  10.639  18.161  0.00  0.00    +0.000 A 
ATOM     15  C   UNL     1       0.982   9.905  18.844  0.00  0.00    +0.000 A 
ATOM     16  C   UNL     1       1.990   9.078  18.216  0.00  0.00    +0.000 C 
ATOM     17  O   UNL     1       2.525   9.358  17.154  0.00  0.00    +0.000 OA
ENDBRANCH   5   7
BRANCH   1  20
ATOM     18  C   UNL     1       7.693   4.356  17.112  0.00  0.00    +0.000 C 
ATOM     19  N   UNL     1       6.315   4.817  17.069  0.00  0.00    +0.000 N 
ATOM     20  C   UNL     1       5.525   4.520  18.199  0.00  0.00    +0.000 C 
ATOM     21  O   UNL     1       6.006   3.950  19.177  0.00  0.00    +0.000 OA
BRANCH  19  22
ATOM     22  C   UNL     1       5.920   5.569  15.870  0.00  0.00    +0.000 C 
BRANCH  22  23
ATOM     23  C   UNL     1       6.352   4.944  14.550  0.00  0.00    +0.000 A 
ATOM     24  C   UNL     1       7.472   5.477  13.883  0.00  0.00    +0.000 A 
ATOM     25  C   UNL     1       7.845   5.014  12.615  0.00  0.00    +0.000 A 
ATOM     26  C   UNL     1       7.103   4.011  11.995  0.00  0.00    +0.000 A 
ATOM     27  C   UNL     1       5.996   3.481  12.645  0.00  0.00    +0.000 A 
ATOM     28  F   UNL     1       5.264   2.540  12.035  0.00  0.00    +0.000 F 
ATOM     29  C   UNL     1       5.619   3.931  13.908  0.00  0.00    +0.000 A 
ENDBRANCH  22  23
ENDBRANCH  19  22
ENDBRANCH   1  20
TORSDOF 4
ENDMDL
MODEL 4
REMARK VINA RESULT:      -7.9      3.014      4.567
REMARK  Name = 
REMARK  5 active torsions:
REMARK  status: ('A' for Active; 'I' for Inactive)
REMARK    1  A    between atoms: C_1  and  N_2
REMARK    2  A    between atoms: N_2  and  C_3
REMARK    3  A    between atoms: C_3  and  C_4
REMARK    4  A    between atoms: C_11  and  C_13
REMARK    5  A    between atoms: C_17  and  N_18
REMARK                            x       y       z     vdW  Elec       q    Type
REMARK                         _______ _______ _______ _____ _____    ______ ____
ROOT
ATOM      1  C   UNL     1       3.203   4.281  18.859  0.00  0.00    +0.000 A 
ATOM      2  C   UNL     1       2.849   3.665  20.055  0.00  0.00    +0.000 A 
ATOM      3  C   UNL     1       1.926   4.219  20.927  0.00  0.00    +0.000 A 
ATOM      4  C   UNL     1       1.537   5.527  20.734  0.00  0.00    +0.000 A 
ATOM      5  C   UNL     1       2.162   6.287  19.749  0.00  0.00    +0.000 A 
ATOM      6  C   UNL     1       2.902   5.633  18.741  0.00  0.00    +0.000 A 
ENDROOT
BRANCH   5   7
ATOM      7  N   UNL     1       1.983   7.678  19.700  0.00  0.00    +0.000 N 
ATOM      8  C   UNL     1       1.539   8.445  20.749  0.00  0.00    +0.000 C 
ATOM      9  O   UNL     1       1.620   8.322  21.957  0.00  0.00    +0.000 OA
ATOM     10  C   UNL     1       0.774   9.503  20.110  0.00  0.00    +0.000 A 
ATOM     11  C   UNL     1      -0.432   9.987  20.565  0.00  0.00    +0.000 A 
ATOM     12  C   UNL     1      -1.309  10.481  19.597  0.00  0.00    +0.000 A 
ATOM     13  C   UNL     1      -0.941  10.529  18.236  0.00  0.00    +0.000 A 
ATOM     14  C   UNL     1       0.292  10.049  17.799  0.00  0.00    +0.000 A 
ATOM     15  C   UNL     1       1.110   9.510  18.765  0.00  0.00    +0.000 A 
ATOM     16  C   UNL     1       2.029   8.414  18.544  0.00  0.00    +0.000 C 
ATOM     17  O   UNL     1       2.632   8.243  17.495  0.00  0.00    +0.000 OA
ENDBRANCH   5   7
BRANCH   1  20
ATOM     18  C   UNL     1       5.292   3.484  15.744  0.00  0.00    +0.000 C 
ATOM     19  N   UNL     1       4.658   4.284  16.780  0.00  0.00    +0.000 N 
ATOM     20  C   UNL     1       3.902   3.575  17.736  0.00  0.00    +0.000 C 
ATOM     21  O   UNL     1       3.838   2.347  17.711  0.00  0.00    +0.000 OA
BRANCH  19  22
ATOM     22  C   UNL     1       4.910   5.730  16.727  0.00  0.00    +0.000 C 
BRANCH  22  23
ATOM     23  C   UNL     1       6.183   6.185  17.428  0.00  0.00    +0.000 A 
ATOM     24  C   UNL     1       6.706   5.389  18.465  0.00  0.00    +0.000 A 
ATOM     25  C   UNL     1       7.808   5.816  19.217  0.00  0.00    +0.000 A 
ATOM     26  C   UNL     1       8.404   7.045  18.943  0.00  0.00    +0.000 A 
ATOM     27  C   UNL     1       7.893   7.838  17.923  0.00  0.00    +0.000 A 
ATOM     28  F   UNL     1       8.445   9.034  17.681  0.00  0.00    +0.000 F 
ATOM     29  C   UNL     1       6.800   7.422  17.167  0.00  0.00    +0.000 A 
ENDBRANCH  22  23
ENDBRANCH  19  22
ENDBRANCH   1  20
TORSDOF 4
ENDMDL
MODEL 5
REMARK VINA RESULT:      -7.9      1.579      1.881
REMARK  Name = 
REMARK  5 active torsions:
REMARK  status: ('A' for Active; 'I' for Inactive)
REMARK    1  A    between atoms: C_1  and  N_2
REMARK    2  A    between atoms: N_2  and  C_3
REMARK    3  A    between atoms: C_3  and  C_4
REMARK    4  A    between atoms: C_11  and  C_13
REMARK    5  A    between atoms: C_17  and  N_18
REMARK                            x       y       z     vdW  Elec       q    Type
REMARK                         _______ _______ _______ _____ _____    ______ ____
ROOT
ATOM      1  C   UNL     1       1.772   8.389  19.364  0.00  0.00    +0.000 A 
ATOM      2  C   UNL     1       1.715   7.764  20.605  0.00  0.00    +0.000 A 
ATOM      3  C   UNL     1       0.693   8.006  21.508  0.00  0.00    +0.000 A 
ATOM      4  C   UNL     1      -0.150   9.073  21.283  0.00  0.00    +0.000 A 
ATOM      5  C   UNL     1       0.115   9.941  20.228  0.00  0.00    +0.000 A 
ATOM      6  C   UNL     1       0.997   9.533  19.206  0.00  0.00    +0.000 A 
ENDROOT
BRANCH   5   7
ATOM      7  N   UNL     1      -0.556  11.170  20.129  0.00  0.00    +0.000 N 
ATOM      8  C   UNL     1      -0.450  12.192  21.040  0.00  0.00    +0.000 C 
ATOM      9  O   UNL     1       0.439  12.540  21.795  0.00  0.00    +0.000 OA
ATOM     10  C   UNL     1      -1.767  12.806  21.032  0.00  0.00    +0.000 A 
ATOM     11  C   UNL     1      -2.444  13.233  22.153  0.00  0.00    +0.000 A 
ATOM     12  C   UNL     1      -3.839  13.190  22.090  0.00  0.00    +0.000 A 
ATOM     13  C   UNL     1      -4.505  12.787  20.914  0.00  0.00    +0.000 A 
ATOM     14  C   UNL     1      -3.800  12.376  19.785  0.00  0.00    +0.000 A 
ATOM     15  C   UNL     1      -2.429  12.367  19.895  0.00  0.00    +0.000 A 
ATOM     16  C   UNL     1      -1.558  11.423  19.227  0.00  0.00    +0.000 C 
ATOM     17  O   UNL     1      -1.783  10.970  18.115  0.00  0.00    +0.000 OA
ENDBRANCH   5   7
BRANCH   1  20
ATOM     18  C   UNL     1       4.183   6.372  17.169  0.00  0.00    +0.000 C 
ATOM     19  N   UNL     1       3.398   6.732  18.338  0.00  0.00    +0.000 N 
ATOM     20  C   UNL     1       2.630   7.910  18.232  0.00  0.00    +0.000 C 
ATOM     21  O   UNL     1       2.597   8.553  17.184  0.00  0.00    +0.000 OA
BRANCH  19  22
ATOM     22  C   UNL     1       3.470   5.807  19.477  0.00  0.00    +0.000 C 
BRANCH  22  23
ATOM     23  C   UNL     1       2.828   4.446  19.241  0.00  0.00    +0.000 A 
ATOM     24  C   UNL     1       1.477   4.264  19.594  0.00  0.00    +0.000 A 
ATOM     25  C   UNL     1       0.871   3.005  19.502  0.00  0.00    +0.000 A 
ATOM     26  C   UNL     1       1.606   1.910  19.054  0.00  0.00    +0.000 A 
ATOM     27  C   UNL     1       2.940   2.080  18.705  0.00  0.00    +0.000 A 
ATOM     28  F   UNL     1       3.655   1.020  18.306  0.00  0.00    +0.000 F 
ATOM     29  C   UNL     1       3.552   3.328  18.790  0.00  0.00    +0.000 A 
ENDBRANCH  22  23
ENDBRANCH  19  22
ENDBRANCH   1  20
TORSDOF 4
ENDMDL
MODEL 6
REMARK VINA RESULT:      -7.8      2.845      8.271
REMARK  Name = 
REMARK  5 active torsions:
REMARK  status: ('A' for Active; 'I' for Inactive)
REMARK    1  A    between atoms: C_1  and  N_2
REMARK    2  A    between atoms: N_2  and  C_3
REMARK    3  A    between atoms: C_3  and  C_4
REMARK    4  A    between atoms: C_11  and  C_13
REMARK    5  A    between atoms: C_17  and  N_18
REMARK                            x       y       z     vdW  Elec       q    Type
REMARK                         _______ _______ _______ _____ _____    ______ ____
ROOT
ATOM      1  C   UNL     1       1.084   9.465  20.174  0.00  0.00    +0.000 A 
ATOM      2  C   UNL     1       1.369  10.153  18.999  0.00  0.00    +0.000 A 
ATOM      3  C   UNL     1       1.767   9.505  17.841  0.00  0.00    +0.000 A 
ATOM      4  C   UNL     1       2.133   8.178  17.919  0.00  0.00    +0.000 A 
ATOM      5  C   UNL     1       2.205   7.561  19.165  0.00  0.00    +0.000 A 
ATOM      6  C   UNL     1       1.569   8.166  20.269  0.00  0.00    +0.000 A 
ENDROOT
BRANCH   5   7
ATOM      7  N   UNL     1       2.822   6.308  19.306  0.00  0.00    +0.000 N 
ATOM      8  C   UNL     1       3.838   5.844  18.509  0.00  0.00    +0.000 C 
ATOM      9  O   UNL     1       4.721   6.402  17.883  0.00  0.00    +0.000 OA
ATOM     10  C   UNL     1       3.602   4.412  18.437  0.00  0.00    +0.000 A 
ATOM     11  C   UNL     1       3.721   3.649  17.297  0.00  0.00    +0.000 A 
ATOM     12  C   UNL     1       2.897   2.524  17.213  0.00  0.00    +0.000 A 
ATOM     13  C   UNL     1       2.037   2.168  18.273  0.00  0.00    +0.000 A 
ATOM     14  C   UNL     1       1.946   2.944  19.426  0.00  0.00    +0.000 A 
ATOM     15  C   UNL     1       2.720   4.081  19.456  0.00  0.00    +0.000 A 
ATOM     16  C   UNL     1       2.347   5.311  20.120  0.00  0.00    +0.000 C 
ATOM     17  O   UNL     1       1.703   5.348  21.158  0.00  0.00    +0.000 OA
ENDBRANCH   5   7
BRANCH   1  20
ATOM     18  C   UNL     1      -1.152  11.697  22.345  0.00  0.00    +0.000 C 
ATOM     19  N   UNL     1      -0.458  11.224  21.160  0.00  0.00    +0.000 N 
ATOM     20  C   UNL     1       0.322  10.060  21.320  0.00  0.00    +0.000 C 
ATOM     21  O   UNL     1       0.357   9.463  22.395  0.00  0.00    +0.000 OA
BRANCH  19  22
ATOM     22  C   UNL     1      -0.679  11.994  19.928  0.00  0.00    +0.000 C 
BRANCH  22  23
ATOM     23  C   UNL     1      -1.965  11.658  19.184  0.00  0.00    +0.000 A 
ATOM     24  C   UNL     1      -3.151  12.322  19.549  0.00  0.00    +0.000 A 
ATOM     25  C   UNL     1      -4.380  11.973  18.976  0.00  0.00    +0.000 A 
ATOM     26  C   UNL     1      -4.441  10.953  18.029  0.00  0.00    +0.000 A 
ATOM     27  C   UNL     1      -3.276  10.291  17.664  0.00  0.00    +0.000 A 
ATOM     28  F   UNL     1      -3.339   9.289  16.777  0.00  0.00    +0.000 F 
ATOM     29  C   UNL     1      -2.048  10.633  18.224  0.00  0.00    +0.000 A 
ENDBRANCH  22  23
ENDBRANCH  19  22
ENDBRANCH   1  20
TORSDOF 4
ENDMDL
MODEL 7
REMARK VINA RESULT:      -7.8      2.702      4.382
REMARK  Name = 
REMARK  5 active torsions:
REMARK  status: ('A' for Active; 'I' for Inactive)
REMARK    1  A    between atoms: C_1  and  N_2
REMARK    2  A    between atoms: N_2  and  C_3
REMARK    3  A    between atoms: C_3  and  C_4
REMARK    4  A    between atoms: C_11  and  C_13
REMARK    5  A    between atoms: C_17  and  N_18
REMARK                            x       y       z     vdW  Elec       q    Type
REMARK                         _______ _______ _______ _____ _____    ______ ____
ROOT
ATOM      1  C   UNL     1       3.189   4.329  18.912  0.00  0.00    +0.000 A 
ATOM      2  C   UNL     1       2.807   3.709  20.097  0.00  0.00    +0.000 A 
ATOM      3  C   UNL     1       1.866   4.261  20.950  0.00  0.00    +0.000 A 
ATOM      4  C   UNL     1       1.482   5.570  20.753  0.00  0.00    +0.000 A 
ATOM      5  C   UNL     1       2.129   6.333  19.784  0.00  0.00    +0.000 A 
ATOM      6  C   UNL     1       2.891   5.682  18.792  0.00  0.00    +0.000 A 
ENDROOT
BRANCH   5   7
ATOM      7  N   UNL     1       1.951   7.725  19.736  0.00  0.00    +0.000 N 
ATOM      8  C   UNL     1       1.494   8.489  20.780  0.00  0.00    +0.000 C 
ATOM      9  O   UNL     1       1.558   8.364  21.989  0.00  0.00    +0.000 OA
ATOM     10  C   UNL     1       0.737   9.549  20.133  0.00  0.00    +0.000 A 
ATOM     11  C   UNL     1      -0.474  10.033  20.573  0.00  0.00    +0.000 A 
ATOM     12  C   UNL     1      -1.337  10.529  19.594  0.00  0.00    +0.000 A 
ATOM     13  C   UNL     1      -0.951  10.580  18.238  0.00  0.00    +0.000 A 
ATOM     14  C   UNL     1       0.287  10.100  17.817  0.00  0.00    +0.000 A 
ATOM     15  C   UNL     1       1.092   9.559  18.793  0.00  0.00    +0.000 A 
ATOM     16  C   UNL     1       2.013   8.463  18.582  0.00  0.00    +0.000 C 
ATOM     17  O   UNL     1       2.630   8.293  17.541  0.00  0.00    +0.000 OA
ENDBRANCH   5   7
BRANCH   1  20
ATOM     18  C   UNL     1       5.294   3.547  15.804  0.00  0.00    +0.000 C 
ATOM     19  N   UNL     1       4.631   4.343  16.823  0.00  0.00    +0.000 N 
ATOM     20  C   UNL     1       3.913   3.626  17.803  0.00  0.00    +0.000 C 
ATOM     21  O   UNL     1       3.904   2.397  17.809  0.00  0.00    +0.000 OA
BRANCH  19  22
ATOM     22  C   UNL     1       4.818   5.798  16.732  0.00  0.00    +0.000 C 
BRANCH  22  23
ATOM     23  C   UNL     1       6.028   6.338  17.483  0.00  0.00    +0.000 A 
ATOM     24  C   UNL     1       6.552   7.591  17.111  0.00  0.00    +0.000 A 
ATOM     25  C   UNL     1       7.727   8.082  17.692  0.00  0.00    +0.000 A 
ATOM     26  C   UNL     1       8.397   7.328  18.653  0.00  0.00    +0.000 A 
ATOM     27  C   UNL     1       7.888   6.091  19.024  0.00  0.00    +0.000 A 
ATOM     28  F   UNL     1       8.550   5.351  19.924  0.00  0.00    +0.000 F 
ATOM     29  C   UNL     1       6.718   5.593  18.456  0.00  0.00    +0.000 A 
ENDBRANCH  22  23
ENDBRANCH  19  22
ENDBRANCH   1  20
TORSDOF 4
ENDMDL
MODEL 8
REMARK VINA RESULT:      -7.8      5.475      8.113
REMARK  Name = 
REMARK  5 active torsions:
REMARK  status: ('A' for Active; 'I' for Inactive)
REMARK    1  A    between atoms: C_1  and  N_2
REMARK    2  A    between atoms: N_2  and  C_3
REMARK    3  A    between atoms: C_3  and  C_4
REMARK    4  A    between atoms: C_11  and  C_13
REMARK    5  A    between atoms: C_17  and  N_18
REMARK                            x       y       z     vdW  Elec       q    Type
REMARK                         _______ _______ _______ _____ _____    ______ ____
ROOT
ATOM      1  C   UNL     1      -1.440  12.518  22.697  0.00  0.00    +0.000 A 
ATOM      2  C   UNL     1      -0.873  13.737  23.053  0.00  0.00    +0.000 A 
ATOM      3  C   UNL     1      -1.628  14.789  23.545  0.00  0.00    +0.000 A 
ATOM      4  C   UNL     1      -3.001  14.720  23.444  0.00  0.00    +0.000 A 
ATOM      5  C   UNL     1      -3.583  13.660  22.752  0.00  0.00    +0.000 A 
ATOM      6  C   UNL     1      -2.814  12.508  22.487  0.00  0.00    +0.000 A 
ENDROOT
BRANCH   5   7
ATOM      7  N   UNL     1      -4.942  13.696  22.405  0.00  0.00    +0.000 N 
ATOM      8  C   UNL     1      -5.895  12.835  22.890  0.00  0.00    +0.000 C 
ATOM      9  O   UNL     1      -5.999  12.218  23.934  0.00  0.00    +0.000 OA
ATOM     10  C   UNL     1      -6.822  12.677  21.781  0.00  0.00    +0.000 A 
ATOM     11  C   UNL     1      -7.393  11.485  21.396  0.00  0.00    +0.000 A 
ATOM     12  C   UNL     1      -7.705  11.354  20.041  0.00  0.00    +0.000 A 
ATOM     13  C   UNL     1      -7.495  12.418  19.138  0.00  0.00    +0.000 A 
ATOM     14  C   UNL     1      -6.932  13.622  19.553  0.00  0.00    +0.000 A 
ATOM     15  C   UNL     1      -6.575  13.701  20.879  0.00  0.00    +0.000 A 
ATOM     16  C   UNL     1      -5.449  14.458  21.383  0.00  0.00    +0.000 C 
ATOM     17  O   UNL     1      -5.080  15.517  20.899  0.00  0.00    +0.000 OA
ENDBRANCH   5   7
BRANCH   1  20
ATOM     18  C   UNL     1       0.650   9.673  21.202  0.00  0.00    +0.000 C 
ATOM     19  N   UNL     1      -0.099  10.917  21.254  0.00  0.00    +0.000 N 
ATOM     20  C   UNL     1      -0.650  11.258  22.507  0.00  0.00    +0.000 C 
ATOM     21  O   UNL     1      -0.452  10.558  23.499  0.00  0.00    +0.000 OA
BRANCH  19  22
ATOM     22  C   UNL     1      -0.164  11.688  20.005  0.00  0.00    +0.000 C 
BRANCH  22  23
ATOM     23  C   UNL     1      -1.243  11.240  19.030  0.00  0.00    +0.000 A 
ATOM     24  C   UNL     1      -0.930  10.245  18.083  0.00  0.00    +0.000 A 
ATOM     25  C   UNL     1      -1.848   9.876  17.093  0.00  0.00    +0.000 A 
ATOM     26  C   UNL     1      -3.095  10.496  17.034  0.00  0.00    +0.000 A 
ATOM     27  C   UNL     1      -3.412  11.479  17.962  0.00  0.00    +0.000 A 
ATOM     28  F   UNL     1      -4.597  12.098  17.885  0.00  0.00    +0.000 F 
ATOM     29  C   UNL     1      -2.507  11.851  18.954  0.00  0.00    +0.000 A 
ENDBRANCH  22  23
ENDBRANCH  19  22
ENDBRANCH   1  20
TORSDOF 4
ENDMDL
MODEL 9
REMARK VINA RESULT:      -7.7      3.878      8.838
REMARK  Name = 
REMARK  5 active torsions:
REMARK  status: ('A' for Active; 'I' for Inactive)
REMARK    1  A    between atoms: C_1  and  N_2
REMARK    2  A    between atoms: N_2  and  C_3
REMARK    3  A    between atoms: C_3  and  C_4
REMARK    4  A    between atoms: C_11  and  C_13
REMARK    5  A    between atoms: C_17  and  N_18
REMARK                            x       y       z     vdW  Elec       q    Type
REMARK                         _______ _______ _______ _____ _____    ______ ____
ROOT
ATOM      1  C   UNL     1      -0.441  12.115  20.334  0.00  0.00    +0.000 A 
ATOM      2  C   UNL     1      -1.352  12.040  19.286  0.00  0.00    +0.000 A 
ATOM      3  C   UNL     1      -1.609  10.856  18.613  0.00  0.00    +0.000 A 
ATOM      4  C   UNL     1      -0.766   9.785  18.815  0.00  0.00    +0.000 A 
ATOM      5  C   UNL     1       0.378   9.952  19.590  0.00  0.00    +0.000 A 
ATOM      6  C   UNL     1       0.475  11.074  20.440  0.00  0.00    +0.000 A 
ENDROOT
BRANCH   5   7
ATOM      7  N   UNL     1       1.384   8.973  19.599  0.00  0.00    +0.000 N 
ATOM      8  C   UNL     1       2.093   8.572  18.494  0.00  0.00    +0.000 C 
ATOM      9  O   UNL     1       2.410   9.138  17.463  0.00  0.00    +0.000 OA
ATOM     10  C   UNL     1       2.347   7.161  18.733  0.00  0.00    +0.000 A 
ATOM     11  C   UNL     1       2.254   6.172  17.781  0.00  0.00    +0.000 A 
ATOM     12  C   UNL     1       1.898   4.901  18.237  0.00  0.00    +0.000 A 
ATOM     13  C   UNL     1       1.705   4.647  19.612  0.00  0.00    +0.000 A 
ATOM     14  C   UNL     1       1.821   5.659  20.561  0.00  0.00    +0.000 A 
ATOM     15  C   UNL     1       2.110   6.915  20.077  0.00  0.00    +0.000 A 
ATOM     16  C   UNL     1       1.638   8.150  20.666  0.00  0.00    +0.000 C 
ATOM     17  O   UNL     1       1.487   8.308  21.868  0.00  0.00    +0.000 OA
ENDBRANCH   5   7
BRANCH   1  20
ATOM     18  C   UNL     1      -0.981  14.384  23.376  0.00  0.00    +0.000 C 
ATOM     19  N   UNL     1      -1.121  13.223  22.514  0.00  0.00    +0.000 N 
ATOM     20  C   UNL     1      -0.388  13.253  21.309  0.00  0.00    +0.000 C 
ATOM     21  O   UNL     1       0.361  14.191  21.045  0.00  0.00    +0.000 OA
BRANCH  19  22
ATOM     22  C   UNL     1      -1.979  12.142  23.016  0.00  0.00    +0.000 C 
BRANCH  22  23
ATOM     23  C   UNL     1      -3.462  12.481  23.090  0.00  0.00    +0.000 A 
ATOM     24  C   UNL     1      -4.101  12.457  24.344  0.00  0.00    +0.000 A 
ATOM     25  C   UNL     1      -5.483  12.651  24.454  0.00  0.00    +0.000 A 
ATOM     26  C   UNL     1      -6.248  12.874  23.311  0.00  0.00    +0.000 A 
ATOM     27  C   UNL     1      -5.626  12.898  22.069  0.00  0.00    +0.000 A 
ATOM     28  F   UNL     1      -6.366  13.079  20.967  0.00  0.00    +0.000 F 
ATOM     29  C   UNL     1      -4.251  12.709  21.948  0.00  0.00    +0.000 A 
ENDBRANCH  22  23
ENDBRANCH  19  22
ENDBRANCH   1  20
TORSDOF 4
ENDMDL
