MODEL 1
REMARK VINA RESULT:      -8.4      0.000      0.000
REMARK  Name = 
REMARK  6 active torsions:
REMARK  status: ('A' for Active; 'I' for Inactive)
REMARK    1  A    between atoms: C_1  and  C_2
REMARK    2  A    between atoms: C_4  and  N_5
REMARK    3  A    between atoms: N_5  and  S_6
REMARK    4  A    between atoms: S_6  and  C_9
REMARK    5  A    between atoms: C_24  and  C_25
REMARK    6  A    between atoms: C_25  and  O_27
REMARK                            x       y       z     vdW  Elec       q    Type
REMARK                         _______ _______ _______ _____ _____    ______ ____
ROOT
ATOM      1  S   UNL     1       0.893   8.807  21.283  0.00  0.00    +0.000 S 
ATOM      2  O   UNL     1       1.785   9.236  22.341  0.00  0.00    +0.000 OA
ATOM      3  O   UNL     1      -0.497   8.507  21.532  0.00  0.00    +0.000 OA
ENDROOT
BRANCH   1   4
ATOM      4  C   UNL     1       1.595   7.365  20.505  0.00  0.00    +0.000 A 
ATOM      5  C   UNL     1       1.315   6.061  20.981  0.00  0.00    +0.000 A 
ATOM      6  C   UNL     1       1.856   4.940  20.320  0.00  0.00    +0.000 A 
ATOM      7  C   UNL     1       2.657   5.202  19.232  0.00  0.00    +0.000 A 
ATOM      8  C   UNL     1       2.939   6.478  18.763  0.00  0.00    +0.000 A 
ATOM      9  C   UNL     1       2.405   7.582  19.379  0.00  0.00    +0.000 A 
ATOM     10  C   UNL     1       3.812   6.374  17.550  0.00  0.00    +0.000 C 
ATOM     11  C   UNL     1       3.968   4.853  17.386  0.00  0.00    +0.000 C 
ATOM     12  O   UNL     1       4.577   4.289  16.487  0.00  0.00    +0.000 OA
ATOM     13  N   UNL     1       3.273   4.255  18.439  0.00  0.00    +0.000 N 
ATOM     14  C   UNL     1       3.021   2.848  18.587  0.00  0.00    +0.000 C 
ATOM     15  C   UNL     1       2.317   2.439  19.888  0.00  0.00    +0.000 C 
ATOM     16  C   UNL     1       1.576   3.520  20.702  0.00  0.00    +0.000 C 
ENDBRANCH   1   4
BRANCH   1  17
ATOM     17  N   UNL     1       0.918   9.943  20.044  0.00  0.00    +0.000 N 
ATOM     18  H   UNL     1       1.824  10.313  19.761  0.00  0.00    +0.000 HD
BRANCH  17  22
ATOM     19  C   UNL     1      -3.235  12.574  19.929  0.00  0.00    +0.000 C 
ATOM     20  C   UNL     1      -2.327  11.574  19.263  0.00  0.00    +0.000 A 
ATOM     21  C   UNL     1      -1.126  11.231  19.913  0.00  0.00    +0.000 A 
ATOM     22  C   UNL     1      -0.263  10.289  19.359  0.00  0.00    +0.000 A 
ATOM     23  C   UNL     1      -0.537   9.731  18.117  0.00  0.00    +0.000 A 
ATOM     24  C   UNL     1      -1.712  10.072  17.447  0.00  0.00    +0.000 A 
ATOM     25  C   UNL     1      -2.636  10.962  18.027  0.00  0.00    +0.000 A 
BRANCH  25  26
ATOM     26  C   UNL     1      -3.907  11.272  17.304  0.00  0.00    +0.000 C 
ATOM     27  O   UNL     1      -5.010  10.929  17.691  0.00  0.00    +0.000 OA
BRANCH  26  28
ATOM     28  O   UNL     1      -3.729  11.959  16.153  0.00  0.00    +0.000 OA
ATOM     29  H   UNL     1      -3.454  11.433  15.380  0.00  0.00    +0.000 HD
ENDBRANCH  26  28
ENDBRANCH  25  26
ENDBRANCH  17  22
ENDBRANCH   1  17
TORSDOF 5
ENDMDL
MODEL 2
REMARK VINA RESULT:      -8.4      0.826      2.131
REMARK  Name = 
REMARK  6 active torsions:
REMARK  status: ('A' for Active; 'I' for Inactive)
REMARK    1  A    between atoms: C_1  and  C_2
REMARK    2  A    between atoms: C_4  and  N_5
REMARK    3  A    between atoms: N_5  and  S_6
REMARK    4  A    between atoms: S_6  and  C_9
REMARK    5  A    between atoms: C_24  and  C_25
REMARK    6  A    between atoms: C_25  and  O_27
REMARK                            x       y       z     vdW  Elec       q    Type
REMARK                         _______ _______ _______ _____ _____    ______ ____
ROOT
ATOM      1  S   UNL     1       0.932   8.874  21.247  0.00  0.00    +0.000 S 
ATOM      2  O   UNL     1       1.821   9.265  22.321  0.00  0.00    +0.000 OA
ATOM      3  O   UNL     1      -0.440   8.494  21.492  0.00  0.00    +0.000 OA
ENDROOT
BRANCH   1   4
ATOM      4  C   UNL     1       1.684   7.528  20.355  0.00  0.00    +0.000 A 
ATOM      5  C   UNL     1       2.501   7.760  19.221  0.00  0.00    +0.000 A 
ATOM      6  C   UNL     1       3.111   6.675  18.560  0.00  0.00    +0.000 A 
ATOM      7  C   UNL     1       2.850   5.425  19.071  0.00  0.00    +0.000 A 
ATOM      8  C   UNL     1       2.048   5.190  20.180  0.00  0.00    +0.000 A 
ATOM      9  C   UNL     1       1.460   6.233  20.851  0.00  0.00    +0.000 A 
ATOM     10  C   UNL     1       2.019   3.719  20.463  0.00  0.00    +0.000 C 
ATOM     11  C   UNL     1       2.938   3.155  19.367  0.00  0.00    +0.000 C 
ATOM     12  O   UNL     1       3.248   1.979  19.228  0.00  0.00    +0.000 OA
ATOM     13  N   UNL     1       3.354   4.235  18.586  0.00  0.00    +0.000 N 
ATOM     14  C   UNL     1       4.347   4.188  17.549  0.00  0.00    +0.000 C 
ATOM     15  C   UNL     1       4.551   5.496  16.773  0.00  0.00    +0.000 C 
ATOM     16  C   UNL     1       4.037   6.814  17.392  0.00  0.00    +0.000 C 
ENDBRANCH   1   4
BRANCH   1  17
ATOM     17  N   UNL     1       0.885  10.098  20.095  0.00  0.00    +0.000 N 
ATOM     18  H   UNL     1       1.763  10.556  19.858  0.00  0.00    +0.000 HD
BRANCH  17  22
ATOM     19  C   UNL     1      -3.323  12.642  19.966  0.00  0.00    +0.000 C 
ATOM     20  C   UNL     1      -2.401  11.644  19.314  0.00  0.00    +0.000 A 
ATOM     21  C   UNL     1      -1.187  11.342  19.957  0.00  0.00    +0.000 A 
ATOM     22  C   UNL     1      -0.311  10.405  19.417  0.00  0.00    +0.000 A 
ATOM     23  C   UNL     1      -0.586   9.811  18.191  0.00  0.00    +0.000 A 
ATOM     24  C   UNL     1      -1.776  10.112  17.527  0.00  0.00    +0.000 A 
ATOM     25  C   UNL     1      -2.711  10.997  18.096  0.00  0.00    +0.000 A 
BRANCH  25  26
ATOM     26  C   UNL     1      -3.996  11.264  17.381  0.00  0.00    +0.000 C 
ATOM     27  O   UNL     1      -5.081  10.854  17.756  0.00  0.00    +0.000 OA
BRANCH  26  28
ATOM     28  O   UNL     1      -3.853  11.992  16.250  0.00  0.00    +0.000 OA
ATOM     29  H   UNL     1      -3.106  11.746  15.676  0.00  0.00    +0.000 HD
ENDBRANCH  26  28
ENDBRANCH  25  26
ENDBRANCH  17  22
ENDBRANCH   1  17
TORSDOF 5
ENDMDL
MODEL 3
REMARK VINA RESULT:      -8.3      3.215      8.078
REMARK  Name = 
REMARK  6 active torsions:
REMARK  status: ('A' for Active; 'I' for Inactive)
REMARK    1  A    between atoms: C_1  and  C_2
REMARK    2  A    between atoms: C_4  and  N_5
REMARK    3  A    between atoms: N_5  and  S_6
REMARK    4  A    between atoms: S_6  and  C_9
REMARK    5  A    between atoms: C_24  and  C_25
REMARK    6  A    between atoms: C_25  and  O_27
REMARK                            x       y       z     vdW  Elec       q    Type
REMARK                         _______ _______ _______ _____ _____    ______ ____
ROOT
ATOM      1  S   UNL     1       2.469   5.449  19.899  0.00  0.00    +0.000 S 
ATOM      2  O   UNL     1       2.003   4.899  18.644  0.00  0.00    +0.000 OA
ATOM      3  O   UNL     1       2.254   4.771  21.156  0.00  0.00    +0.000 OA
ENDROOT
BRANCH   1   4
ATOM      4  C   UNL     1       1.795   7.088  20.081  0.00  0.00    +0.000 A 
ATOM      5  C   UNL     1       1.136   7.487  21.270  0.00  0.00    +0.000 A 
ATOM      6  C   UNL     1       0.647   8.803  21.396  0.00  0.00    +0.000 A 
ATOM      7  C   UNL     1       0.838   9.630  20.314  0.00  0.00    +0.000 A 
ATOM      8  C   UNL     1       1.479   9.244  19.144  0.00  0.00    +0.000 A 
ATOM      9  C   UNL     1       1.981   7.975  19.008  0.00  0.00    +0.000 A 
ATOM     10  C   UNL     1       1.530  10.411  18.204  0.00  0.00    +0.000 C 
ATOM     11  C   UNL     1       0.843  11.520  19.018  0.00  0.00    +0.000 C 
ATOM     12  O   UNL     1       0.690  12.680  18.661  0.00  0.00    +0.000 OA
ATOM     13  N   UNL     1       0.450  10.952  20.232  0.00  0.00    +0.000 N 
ATOM     14  C   UNL     1      -0.086  11.666  21.358  0.00  0.00    +0.000 C 
ATOM     15  C   UNL     1      -0.531  10.793  22.539  0.00  0.00    +0.000 C 
ATOM     16  C   UNL     1      -0.010   9.343  22.629  0.00  0.00    +0.000 C 
ENDBRANCH   1   4
BRANCH   1  17
ATOM     17  N   UNL     1       4.122   5.741  19.796  0.00  0.00    +0.000 N 
ATOM     18  H   UNL     1       4.604   6.028  20.646  0.00  0.00    +0.000 HD
BRANCH  17  22
ATOM     19  C   UNL     1       4.906   6.927  15.088  0.00  0.00    +0.000 C 
ATOM     20  C   UNL     1       5.243   6.054  16.268  0.00  0.00    +0.000 A 
ATOM     21  C   UNL     1       4.576   6.294  17.485  0.00  0.00    +0.000 A 
ATOM     22  C   UNL     1       4.824   5.498  18.600  0.00  0.00    +0.000 A 
ATOM     23  C   UNL     1       5.794   4.505  18.551  0.00  0.00    +0.000 A 
ATOM     24  C   UNL     1       6.481   4.264  17.360  0.00  0.00    +0.000 A 
ATOM     25  C   UNL     1       6.187   5.005  16.200  0.00  0.00    +0.000 A 
BRANCH  25  26
ATOM     26  C   UNL     1       6.909   4.691  14.929  0.00  0.00    +0.000 C 
ATOM     27  O   UNL     1       7.838   5.348  14.495  0.00  0.00    +0.000 OA
BRANCH  26  28
ATOM     28  O   UNL     1       6.423   3.611  14.275  0.00  0.00    +0.000 OA
ATOM     29  H   UNL     1       6.757   2.746  14.573  0.00  0.00    +0.000 HD
ENDBRANCH  26  28
ENDBRANCH  25  26
ENDBRANCH  17  22
ENDBRANCH   1  17
TORSDOF 5
ENDMDL
MODEL 4
REMARK VINA RESULT:      -8.1      3.222      8.345
REMARK  Name = 
REMARK  6 active torsions:
REMARK  status: ('A' for Active; 'I' for Inactive)
REMARK    1  A    between atoms: C_1  and  C_2
REMARK    2  A    between atoms: C_4  and  N_5
REMARK    3  A    between atoms: N_5  and  S_6
REMARK    4  A    between atoms: S_6  and  C_9
REMARK    5  A    between atoms: C_24  and  C_25
REMARK    6  A    between atoms: C_25  and  O_27
REMARK                            x       y       z     vdW  Elec       q    Type
REMARK                         _______ _______ _______ _____ _____    ______ ____
ROOT
ATOM      1  S   UNL     1       2.457   5.422  19.877  0.00  0.00    +0.000 S 
ATOM      2  O   UNL     1       1.990   4.932  18.597  0.00  0.00    +0.000 OA
ATOM      3  O   UNL     1       2.198   4.711  21.107  0.00  0.00    +0.000 OA
ENDROOT
BRANCH   1   4
ATOM      4  C   UNL     1       1.842   7.078  20.105  0.00  0.00    +0.000 A 
ATOM      5  C   UNL     1       1.981   8.062  19.095  0.00  0.00    +0.000 A 
ATOM      6  C   UNL     1       1.450   9.352  19.292  0.00  0.00    +0.000 A 
ATOM      7  C   UNL     1       0.827   9.577  20.497  0.00  0.00    +0.000 A 
ATOM      8  C   UNL     1       0.691   8.619  21.493  0.00  0.00    +0.000 A 
ATOM      9  C   UNL     1       1.182   7.350  21.314  0.00  0.00    +0.000 A 
ATOM     10  C   UNL     1      -0.067   9.210  22.643  0.00  0.00    +0.000 C 
ATOM     11  C   UNL     1      -0.359  10.636  22.148  0.00  0.00    +0.000 C 
ATOM     12  O   UNL     1      -1.002  11.485  22.750  0.00  0.00    +0.000 OA
ATOM     13  N   UNL     1       0.230  10.759  20.888  0.00  0.00    +0.000 N 
ATOM     14  C   UNL     1       0.071  11.871  19.992  0.00  0.00    +0.000 C 
ATOM     15  C   UNL     1       0.906  11.805  18.706  0.00  0.00    +0.000 C 
ATOM     16  C   UNL     1       1.489  10.445  18.269  0.00  0.00    +0.000 C 
ENDBRANCH   1   4
BRANCH   1  17
ATOM     17  N   UNL     1       4.121   5.654  19.806  0.00  0.00    +0.000 N 
ATOM     18  H   UNL     1       4.603   5.879  20.675  0.00  0.00    +0.000 HD
BRANCH  17  22
ATOM     19  C   UNL     1       4.882   6.930  15.118  0.00  0.00    +0.000 C 
ATOM     20  C   UNL     1       5.236   6.045  16.284  0.00  0.00    +0.000 A 
ATOM     21  C   UNL     1       4.564   6.252  17.504  0.00  0.00    +0.000 A 
ATOM     22  C   UNL     1       4.829   5.445  18.606  0.00  0.00    +0.000 A 
ATOM     23  C   UNL     1       5.818   4.472  18.543  0.00  0.00    +0.000 A 
ATOM     24  C   UNL     1       6.510   4.264  17.349  0.00  0.00    +0.000 A 
ATOM     25  C   UNL     1       6.202   5.017  16.200  0.00  0.00    +0.000 A 
BRANCH  25  26
ATOM     26  C   UNL     1       6.930   4.738  14.925  0.00  0.00    +0.000 C 
ATOM     27  O   UNL     1       7.847   5.421  14.502  0.00  0.00    +0.000 OA
BRANCH  26  28
ATOM     28  O   UNL     1       6.467   3.659  14.254  0.00  0.00    +0.000 OA
ATOM     29  H   UNL     1       7.120   3.180  13.713  0.00  0.00    +0.000 HD
ENDBRANCH  26  28
ENDBRANCH  25  26
ENDBRANCH  17  22
ENDBRANCH   1  17
TORSDOF 5
ENDMDL
MODEL 5
REMARK VINA RESULT:      -8.1      1.024      2.555
REMARK  Name = 
REMARK  6 active torsions:
REMARK  status: ('A' for Active; 'I' for Inactive)
REMARK    1  A    between atoms: C_1  and  C_2
REMARK    2  A    between atoms: C_4  and  N_5
REMARK    3  A    between atoms: N_5  and  S_6
REMARK    4  A    between atoms: S_6  and  C_9
REMARK    5  A    between atoms: C_24  and  C_25
REMARK    6  A    between atoms: C_25  and  O_27
REMARK                            x       y       z     vdW  Elec       q    Type
REMARK                         _______ _______ _______ _____ _____    ______ ____
ROOT
ATOM      1  S   UNL     1       0.730   9.231  21.126  0.00  0.00    +0.000 S 
ATOM      2  O   UNL     1       1.605   9.763  22.150  0.00  0.00    +0.000 OA
ATOM      3  O   UNL     1      -0.615   8.797  21.421  0.00  0.00    +0.000 OA
ENDROOT
BRANCH   1   4
ATOM      4  C   UNL     1       1.550   7.857  20.342  0.00  0.00    +0.000 A 
ATOM      5  C   UNL     1       2.320   8.032  19.166  0.00  0.00    +0.000 A 
ATOM      6  C   UNL     1       2.987   6.931  18.592  0.00  0.00    +0.000 A 
ATOM      7  C   UNL     1       2.825   5.722  19.227  0.00  0.00    +0.000 A 
ATOM      8  C   UNL     1       2.069   5.543  20.378  0.00  0.00    +0.000 A 
ATOM      9  C   UNL     1       1.428   6.605  20.965  0.00  0.00    +0.000 A 
ATOM     10  C   UNL     1       2.148   4.107  20.800  0.00  0.00    +0.000 C 
ATOM     11  C   UNL     1       3.076   3.502  19.734  0.00  0.00    +0.000 C 
ATOM     12  O   UNL     1       3.463   2.341  19.698  0.00  0.00    +0.000 OA
ATOM     13  N   UNL     1       3.398   4.526  18.842  0.00  0.00    +0.000 N 
ATOM     14  C   UNL     1       4.365   4.445  17.783  0.00  0.00    +0.000 C 
ATOM     15  C   UNL     1       4.459   5.683  16.881  0.00  0.00    +0.000 C 
ATOM     16  C   UNL     1       3.872   7.017  17.388  0.00  0.00    +0.000 C 
ENDBRANCH   1   4
BRANCH   1  17
ATOM     17  N   UNL     1       0.603  10.347  19.874  0.00  0.00    +0.000 N 
ATOM     18  H   UNL     1       1.465  10.752  19.514  0.00  0.00    +0.000 HD
BRANCH  17  22
ATOM     19  C   UNL     1      -2.612   9.475  16.256  0.00  0.00    +0.000 C 
ATOM     20  C   UNL     1      -2.262  10.228  17.513  0.00  0.00    +0.000 A 
ATOM     21  C   UNL     1      -1.034   9.943  18.138  0.00  0.00    +0.000 A 
ATOM     22  C   UNL     1      -0.645  10.630  19.284  0.00  0.00    +0.000 A 
ATOM     23  C   UNL     1      -1.499  11.553  19.874  0.00  0.00    +0.000 A 
ATOM     24  C   UNL     1      -2.731  11.835  19.281  0.00  0.00    +0.000 A 
ATOM     25  C   UNL     1      -3.108  11.210  18.078  0.00  0.00    +0.000 A 
BRANCH  25  26
ATOM     26  C   UNL     1      -4.414  11.568  17.445  0.00  0.00    +0.000 C 
ATOM     27  O   UNL     1      -5.499  11.273  17.912  0.00  0.00    +0.000 OA
BRANCH  26  28
ATOM     28  O   UNL     1      -4.290  12.240  16.278  0.00  0.00    +0.000 OA
ATOM     29  H   UNL     1      -4.519  13.187  16.304  0.00  0.00    +0.000 HD
ENDBRANCH  26  28
ENDBRANCH  25  26
ENDBRANCH  17  22
ENDBRANCH   1  17
TORSDOF 5
ENDMDL
MODEL 6
REMARK VINA RESULT:      -8.1      0.454      1.359
REMARK  Name = 
REMARK  6 active torsions:
REMARK  status: ('A' for Active; 'I' for Inactive)
REMARK    1  A    between atoms: C_1  and  C_2
REMARK    2  A    between atoms: C_4  and  N_5
REMARK    3  A    between atoms: N_5  and  S_6
REMARK    4  A    between atoms: S_6  and  C_9
REMARK    5  A    between atoms: C_24  and  C_25
REMARK    6  A    between atoms: C_25  and  O_27
REMARK                            x       y       z     vdW  Elec       q    Type
REMARK                         _______ _______ _______ _____ _____    ______ ____
ROOT
ATOM      1  S   UNL     1       0.824   9.084  21.219  0.00  0.00    +0.000 S 
ATOM      2  O   UNL     1       1.761   9.616  22.186  0.00  0.00    +0.000 OA
ATOM      3  O   UNL     1      -0.534   8.748  21.577  0.00  0.00    +0.000 OA
ENDROOT
BRANCH   1   4
ATOM      4  C   UNL     1       1.537   7.624  20.488  0.00  0.00    +0.000 A 
ATOM      5  C   UNL     1       1.274   6.334  21.012  0.00  0.00    +0.000 A 
ATOM      6  C   UNL     1       1.824   5.196  20.388  0.00  0.00    +0.000 A 
ATOM      7  C   UNL     1       2.615   5.427  19.287  0.00  0.00    +0.000 A 
ATOM      8  C   UNL     1       2.880   6.689  18.771  0.00  0.00    +0.000 A 
ATOM      9  C   UNL     1       2.338   7.809  19.350  0.00  0.00    +0.000 A 
ATOM     10  C   UNL     1       3.746   6.551  17.556  0.00  0.00    +0.000 C 
ATOM     11  C   UNL     1       3.918   5.027  17.446  0.00  0.00    +0.000 C 
ATOM     12  O   UNL     1       4.528   4.437  16.563  0.00  0.00    +0.000 OA
ATOM     13  N   UNL     1       3.236   4.459  18.524  0.00  0.00    +0.000 N 
ATOM     14  C   UNL     1       3.001   3.056  18.724  0.00  0.00    +0.000 C 
ATOM     15  C   UNL     1       2.310   2.687  20.044  0.00  0.00    +0.000 C 
ATOM     16  C   UNL     1       1.562   3.788  20.823  0.00  0.00    +0.000 C 
ENDBRANCH   1   4
BRANCH   1  17
ATOM     17  N   UNL     1       0.722  10.137  19.911  0.00  0.00    +0.000 N 
ATOM     18  H   UNL     1       1.594  10.471  19.505  0.00  0.00    +0.000 HD
BRANCH  17  22
ATOM     19  C   UNL     1      -2.628   9.292  16.410  0.00  0.00    +0.000 C 
ATOM     20  C   UNL     1      -2.208  10.074  17.627  0.00  0.00    +0.000 A 
ATOM     21  C   UNL     1      -0.979   9.751  18.233  0.00  0.00    +0.000 A 
ATOM     22  C   UNL     1      -0.525  10.460  19.341  0.00  0.00    +0.000 A 
ATOM     23  C   UNL     1      -1.317  11.447  19.915  0.00  0.00    +0.000 A 
ATOM     24  C   UNL     1      -2.548  11.769  19.342  0.00  0.00    +0.000 A 
ATOM     25  C   UNL     1      -2.988  11.117  18.175  0.00  0.00    +0.000 A 
BRANCH  25  26
ATOM     26  C   UNL     1      -4.291  11.517  17.560  0.00  0.00    +0.000 C 
ATOM     27  O   UNL     1      -5.379  11.201  18.006  0.00  0.00    +0.000 OA
BRANCH  26  28
ATOM     28  O   UNL     1      -4.161  12.255  16.434  0.00  0.00    +0.000 OA
ATOM     29  H   UNL     1      -3.718  11.818  15.685  0.00  0.00    +0.000 HD
ENDBRANCH  26  28
ENDBRANCH  25  26
ENDBRANCH  17  22
ENDBRANCH   1  17
TORSDOF 5
ENDMDL
MODEL 7
REMARK VINA RESULT:      -8.1      5.752      8.699
REMARK  Name = 
REMARK  6 active torsions:
REMARK  status: ('A' for Active; 'I' for Inactive)
REMARK    1  A    between atoms: C_1  and  C_2
REMARK    2  A    between atoms: C_4  and  N_5
REMARK    3  A    between atoms: N_5  and  S_6
REMARK    4  A    between atoms: S_6  and  C_9
REMARK    5  A    between atoms: C_24  and  C_25
REMARK    6  A    between atoms: C_25  and  O_27
REMARK                            x       y       z     vdW  Elec       q    Type
REMARK                         _______ _______ _______ _____ _____    ______ ____
ROOT
ATOM      1  S   UNL     1       7.439   5.322  17.805  0.00  0.00    +0.000 S 
ATOM      2  O   UNL     1       8.187   4.103  17.574  0.00  0.00    +0.000 OA
ATOM      3  O   UNL     1       7.941   6.375  18.656  0.00  0.00    +0.000 OA
ENDROOT
BRANCH   1   4
ATOM      4  C   UNL     1       5.829   4.884  18.428  0.00  0.00    +0.000 A 
ATOM      5  C   UNL     1       4.980   5.851  19.022  0.00  0.00    +0.000 A 
ATOM      6  C   UNL     1       3.697   5.480  19.471  0.00  0.00    +0.000 A 
ATOM      7  C   UNL     1       3.353   4.158  19.309  0.00  0.00    +0.000 A 
ATOM      8  C   UNL     1       4.181   3.205  18.732  0.00  0.00    +0.000 A 
ATOM      9  C   UNL     1       5.427   3.549  18.269  0.00  0.00    +0.000 A 
ATOM     10  C   UNL     1       3.464   1.889  18.694  0.00  0.00    +0.000 C 
ATOM     11  C   UNL     1       2.102   2.239  19.315  0.00  0.00    +0.000 C 
ATOM     12  O   UNL     1       1.160   1.470  19.454  0.00  0.00    +0.000 OA
ATOM     13  N   UNL     1       2.147   3.590  19.666  0.00  0.00    +0.000 N 
ATOM     14  C   UNL     1       1.037   4.374  20.132  0.00  0.00    +0.000 C 
ATOM     15  C   UNL     1       1.375   5.813  20.545  0.00  0.00    +0.000 C 
ATOM     16  C   UNL     1       2.701   6.433  20.057  0.00  0.00    +0.000 C 
ENDBRANCH   1   4
BRANCH   1  17
ATOM     17  N   UNL     1       7.080   6.039  16.327  0.00  0.00    +0.000 N 
ATOM     18  H   UNL     1       7.279   7.032  16.224  0.00  0.00    +0.000 HD
BRANCH  17  22
ATOM     19  C   UNL     1       7.688   4.545  11.681  0.00  0.00    +0.000 C 
ATOM     20  C   UNL     1       6.879   4.503  12.950  0.00  0.00    +0.000 A 
ATOM     21  C   UNL     1       7.338   5.244  14.056  0.00  0.00    +0.000 A 
ATOM     22  C   UNL     1       6.614   5.267  15.245  0.00  0.00    +0.000 A 
ATOM     23  C   UNL     1       5.467   4.495  15.384  0.00  0.00    +0.000 A 
ATOM     24  C   UNL     1       5.006   3.738  14.306  0.00  0.00    +0.000 A 
ATOM     25  C   UNL     1       5.680   3.764  13.071  0.00  0.00    +0.000 A 
BRANCH  25  26
ATOM     26  C   UNL     1       5.134   2.978  11.922  0.00  0.00    +0.000 C 
ATOM     27  O   UNL     1       4.203   3.345  11.229  0.00  0.00    +0.000 OA
BRANCH  26  28
ATOM     28  O   UNL     1       5.756   1.793  11.725  0.00  0.00    +0.000 OA
ATOM     29  H   UNL     1       5.175   1.017  11.629  0.00  0.00    +0.000 HD
ENDBRANCH  26  28
ENDBRANCH  25  26
ENDBRANCH  17  22
ENDBRANCH   1  17
TORSDOF 5
ENDMDL
MODEL 8
REMARK VINA RESULT:      -8.1      3.296      8.003
REMARK  Name = 
REMARK  6 active torsions:
REMARK  status: ('A' for Active; 'I' for Inactive)
REMARK    1  A    between atoms: C_1  and  C_2
REMARK    2  A    between atoms: C_4  and  N_5
REMARK    3  A    between atoms: N_5  and  S_6
REMARK    4  A    between atoms: S_6  and  C_9
REMARK    5  A    between atoms: C_24  and  C_25
REMARK    6  A    between atoms: C_25  and  O_27
REMARK                            x       y       z     vdW  Elec       q    Type
REMARK                         _______ _______ _______ _____ _____    ______ ____
ROOT
ATOM      1  S   UNL     1       2.032   3.729  20.164  0.00  0.00    +0.000 S 
ATOM      2  O   UNL     1       1.400   3.144  19.000  0.00  0.00    +0.000 OA
ATOM      3  O   UNL     1       1.636   3.376  21.507  0.00  0.00    +0.000 OA
ENDROOT
BRANCH   1   4
ATOM      4  C   UNL     1       1.903   5.502  20.043  0.00  0.00    +0.000 A 
ATOM      5  C   UNL     1       2.271   6.189  18.860  0.00  0.00    +0.000 A 
ATOM      6  C   UNL     1       2.121   7.589  18.784  0.00  0.00    +0.000 A 
ATOM      7  C   UNL     1       1.625   8.210  19.906  0.00  0.00    +0.000 A 
ATOM      8  C   UNL     1       1.267   7.543  21.070  0.00  0.00    +0.000 A 
ATOM      9  C   UNL     1       1.385   6.179  21.158  0.00  0.00    +0.000 A 
ATOM     10  C   UNL     1       0.740   8.536  22.063  0.00  0.00    +0.000 C 
ATOM     11  C   UNL     1       0.833   9.859  21.285  0.00  0.00    +0.000 C 
ATOM     12  O   UNL     1       0.469  10.955  21.692  0.00  0.00    +0.000 OA
ATOM     13  N   UNL     1       1.389   9.564  20.039  0.00  0.00    +0.000 N 
ATOM     14  C   UNL     1       1.510  10.476  18.936  0.00  0.00    +0.000 C 
ATOM     15  C   UNL     1       2.250   9.929  17.708  0.00  0.00    +0.000 C 
ATOM     16  C   UNL     1       2.422   8.403  17.564  0.00  0.00    +0.000 C 
ENDBRANCH   1   4
BRANCH   1  17
ATOM     17  N   UNL     1       3.693   3.475  20.079  0.00  0.00    +0.000 N 
ATOM     18  H   UNL     1       4.129   2.951  20.836  0.00  0.00    +0.000 HD
BRANCH  17  22
ATOM     19  C   UNL     1       7.343   6.203  18.229  0.00  0.00    +0.000 C 
ATOM     20  C   UNL     1       6.225   5.220  17.996  0.00  0.00    +0.000 A 
ATOM     21  C   UNL     1       5.492   4.771  19.110  0.00  0.00    +0.000 A 
ATOM     22  C   UNL     1       4.429   3.887  18.951  0.00  0.00    +0.000 A 
ATOM     23  C   UNL     1       4.125   3.373  17.697  0.00  0.00    +0.000 A 
ATOM     24  C   UNL     1       4.852   3.790  16.581  0.00  0.00    +0.000 A 
ATOM     25  C   UNL     1       5.880   4.744  16.711  0.00  0.00    +0.000 A 
BRANCH  25  26
ATOM     26  C   UNL     1       6.609   5.204  15.490  0.00  0.00    +0.000 C 
ATOM     27  O   UNL     1       7.722   4.818  15.177  0.00  0.00    +0.000 OA
BRANCH  26  28
ATOM     28  O   UNL     1       5.931   6.116  14.758  0.00  0.00    +0.000 OA
ATOM     29  H   UNL     1       4.998   5.906  14.571  0.00  0.00    +0.000 HD
ENDBRANCH  26  28
ENDBRANCH  25  26
ENDBRANCH  17  22
ENDBRANCH   1  17
TORSDOF 5
ENDMDL
MODEL 9
REMARK VINA RESULT:      -8.1      3.291      8.340
REMARK  Name = 
REMARK  6 active torsions:
REMARK  status: ('A' for Active; 'I' for Inactive)
REMARK    1  A    between atoms: C_1  and  C_2
REMARK    2  A    between atoms: C_4  and  N_5
REMARK    3  A    between atoms: N_5  and  S_6
REMARK    4  A    between atoms: S_6  and  C_9
REMARK    5  A    between atoms: C_24  and  C_25
REMARK    6  A    between atoms: C_25  and  O_27
REMARK                            x       y       z     vdW  Elec       q    Type
REMARK                         _______ _______ _______ _____ _____    ______ ____
ROOT
ATOM      1  S   UNL     1       1.887   5.394  20.002  0.00  0.00    +0.000 S 
ATOM      2  O   UNL     1       0.739   4.602  20.389  0.00  0.00    +0.000 OA
ATOM      3  O   UNL     1       3.195   5.172  20.574  0.00  0.00    +0.000 OA
ENDROOT
BRANCH   1   4
ATOM      4  C   UNL     1       1.500   7.114  20.264  0.00  0.00    +0.000 A 
ATOM      5  C   UNL     1       1.739   8.084  19.261  0.00  0.00    +0.000 A 
ATOM      6  C   UNL     1       1.387   9.430  19.486  0.00  0.00    +0.000 A 
ATOM      7  C   UNL     1       0.831   9.718  20.710  0.00  0.00    +0.000 A 
ATOM      8  C   UNL     1       0.597   8.772  21.700  0.00  0.00    +0.000 A 
ATOM      9  C   UNL     1       0.914   7.453  21.494  0.00  0.00    +0.000 A 
ATOM     10  C   UNL     1      -0.046   9.441  22.877  0.00  0.00    +0.000 C 
ATOM     11  C   UNL     1      -0.162  10.899  22.404  0.00  0.00    +0.000 C 
ATOM     12  O   UNL     1      -0.672  11.817  23.034  0.00  0.00    +0.000 OA
ATOM     13  N   UNL     1       0.404  10.962  21.130  0.00  0.00    +0.000 N 
ATOM     14  C   UNL     1       0.368  12.098  20.250  0.00  0.00    +0.000 C 
ATOM     15  C   UNL     1       1.153  11.941  18.941  0.00  0.00    +0.000 C 
ATOM     16  C   UNL     1       1.541  10.522  18.473  0.00  0.00    +0.000 C 
ENDBRANCH   1   4
BRANCH   1  17
ATOM     17  N   UNL     1       2.080   5.311  18.334  0.00  0.00    +0.000 N 
ATOM     18  H   UNL     1       1.252   5.445  17.756  0.00  0.00    +0.000 HD
BRANCH  17  22
ATOM     19  C   UNL     1       6.466   7.285  17.305  0.00  0.00    +0.000 C 
ATOM     20  C   UNL     1       5.540   6.098  17.235  0.00  0.00    +0.000 A 
ATOM     21  C   UNL     1       4.267   6.213  17.823  0.00  0.00    +0.000 A 
ATOM     22  C   UNL     1       3.359   5.160  17.762  0.00  0.00    +0.000 A 
ATOM     23  C   UNL     1       3.725   3.950  17.187  0.00  0.00    +0.000 A 
ATOM     24  C   UNL     1       4.990   3.809  16.615  0.00  0.00    +0.000 A 
ATOM     25  C   UNL     1       5.893   4.888  16.597  0.00  0.00    +0.000 A 
BRANCH  25  26
ATOM     26  C   UNL     1       7.224   4.718  15.936  0.00  0.00    +0.000 C 
ATOM     27  O   UNL     1       7.458   5.045  14.786  0.00  0.00    +0.000 OA
BRANCH  26  28
ATOM     28  O   UNL     1       8.158   4.141  16.725  0.00  0.00    +0.000 OA
ATOM     29  H   UNL     1       9.082   4.235  16.432  0.00  0.00    +0.000 HD
ENDBRANCH  26  28
ENDBRANCH  25  26
ENDBRANCH  17  22
ENDBRANCH   1  17
TORSDOF 5
ENDMDL
