MODEL 1
REMARK VINA RESULT:      -8.9      0.000      0.000
REMARK  Name = 
REMARK  8 active torsions:
REMARK  status: ('A' for Active; 'I' for Inactive)
REMARK    1  A    between atoms: C_1  and  C_2
REMARK    2  A    between atoms: C_5  and  C_6
REMARK    3  A    between atoms: C_7  and  O_8
REMARK    4  A    between atoms: O_8  and  C_9
REMARK    5  A    between atoms: C_12  and  C_13
REMARK    6  A    between atoms: C_13  and  N_14
REMARK    7  A    between atoms: C_15  and  C_17
REMARK    8  A    between atoms: C_17  and  N_18
REMARK                            x       y       z     vdW  Elec       q    Type
REMARK                         _______ _______ _______ _____ _____    ______ ____
ROOT
ATOM      1  C   UNL     1       1.196   8.045  21.027  0.00  0.00    +0.000 C 
ENDROOT
BRANCH   1   5
ATOM      2  C   UNL     1       3.221   5.041  18.794  0.00  0.00    +0.000 A 
ATOM      3  C   UNL     1       3.045   6.280  18.190  0.00  0.00    +0.000 A 
ATOM      4  C   UNL     1       2.364   7.280  18.895  0.00  0.00    +0.000 A 
ATOM      5  C   UNL     1       1.870   7.008  20.174  0.00  0.00    +0.000 A 
ATOM      6  C   UNL     1       2.082   5.730  20.674  0.00  0.00    +0.000 A 
ATOM      7  N   UNL     1       2.782   4.760  20.033  0.00  0.00    +0.000 NA
BRANCH   2   8
ATOM      8  O   UNL     1       3.905   4.083  18.047  0.00  0.00    +0.000 OA
BRANCH   8  15
ATOM      9  C   UNL     1       5.994   3.885  13.640  0.00  0.00    +0.000 C 
ATOM     10  C   UNL     1       6.055   4.275  15.089  0.00  0.00    +0.000 A 
ATOM     11  C   UNL     1       7.233   4.795  15.616  0.00  0.00    +0.000 A 
ATOM     12  C   UNL     1       7.318   5.111  16.969  0.00  0.00    +0.000 A 
ATOM     13  C   UNL     1       6.237   4.905  17.844  0.00  0.00    +0.000 A 
ATOM     14  C   UNL     1       6.463   5.228  19.293  0.00  0.00    +0.000 C 
ATOM     15  C   UNL     1       5.023   4.433  17.312  0.00  0.00    +0.000 A 
ATOM     16  C   UNL     1       4.951   4.104  15.939  0.00  0.00    +0.000 A 
ENDBRANCH   8  15
ENDBRANCH   2   8
ENDBRANCH   1   5
BRANCH   1  17
ATOM     17  N   UNL     1       0.848   9.250  20.303  0.00  0.00    +0.000 N 
ATOM     18  C   UNL     1       0.719  10.470  20.939  0.00  0.00    +0.000 C 
ATOM     19  O   UNL     1       0.758  10.597  22.161  0.00  0.00    +0.000 OA
ATOM     20  H   UNL     1       0.723   9.195  19.297  0.00  0.00    +0.000 HD
BRANCH  18  21
ATOM     21  C   UNL     1       0.479  11.663  20.013  0.00  0.00    +0.000 C 
BRANCH  21  22
ATOM     22  N   UNL     1      -0.916  11.803  19.713  0.00  0.00    +0.000 N 
ATOM     23  C   UNL     1      -1.790  12.606  20.411  0.00  0.00    +0.000 A 
ATOM     24  O   UNL     1      -1.499  13.277  21.392  0.00  0.00    +0.000 OA
ATOM     25  O   UNL     1      -3.075  12.559  19.855  0.00  0.00    +0.000 OA
ATOM     26  C   UNL     1      -2.907  11.680  18.795  0.00  0.00    +0.000 A 
ATOM     27  C   UNL     1      -3.902  11.284  17.924  0.00  0.00    +0.000 A 
ATOM     28  C   UNL     1      -3.552  10.366  16.928  0.00  0.00    +0.000 A 
ATOM     29  C   UNL     1      -2.235   9.876  16.829  0.00  0.00    +0.000 A 
ATOM     30  C   UNL     1      -1.240  10.303  17.716  0.00  0.00    +0.000 A 
ATOM     31  C   UNL     1      -1.615  11.207  18.688  0.00  0.00    +0.000 A 
ENDBRANCH  21  22
ENDBRANCH  18  21
ENDBRANCH   1  17
TORSDOF 6
ENDMDL
MODEL 2
REMARK VINA RESULT:      -8.7      2.026      9.443
REMARK  Name = 
REMARK  8 active torsions:
REMARK  status: ('A' for Active; 'I' for Inactive)
REMARK    1  A    between atoms: C_1  and  C_2
REMARK    2  A    between atoms: C_5  and  C_6
REMARK    3  A    between atoms: C_7  and  O_8
REMARK    4  A    between atoms: O_8  and  C_9
REMARK    5  A    between atoms: C_12  and  C_13
REMARK    6  A    between atoms: C_13  and  N_14
REMARK    7  A    between atoms: C_15  and  C_17
REMARK    8  A    between atoms: C_17  and  N_18
REMARK                            x       y       z     vdW  Elec       q    Type
REMARK                         _______ _______ _______ _____ _____    ______ ____
ROOT
ATOM      1  C   UNL     1       1.842   7.566  21.082  0.00  0.00    +0.000 C 
ENDROOT
BRANCH   1   5
ATOM      2  C   UNL     1      -0.423  10.797  19.487  0.00  0.00    +0.000 A 
ATOM      3  C   UNL     1      -0.783  10.319  20.742  0.00  0.00    +0.000 A 
ATOM      4  C   UNL     1      -0.068   9.243  21.281  0.00  0.00    +0.000 A 
ATOM      5  C   UNL     1       0.976   8.672  20.547  0.00  0.00    +0.000 A 
ATOM      6  C   UNL     1       1.238   9.212  19.295  0.00  0.00    +0.000 A 
ATOM      7  N   UNL     1       0.593  10.286  18.771  0.00  0.00    +0.000 NA
BRANCH   2   8
ATOM      8  O   UNL     1      -1.170  11.869  18.999  0.00  0.00    +0.000 OA
BRANCH   8  15
ATOM      9  C   UNL     1      -3.453  10.507  14.906  0.00  0.00    +0.000 C 
ATOM     10  C   UNL     1      -3.513  11.004  16.322  0.00  0.00    +0.000 A 
ATOM     11  C   UNL     1      -4.739  11.354  16.880  0.00  0.00    +0.000 A 
ATOM     12  C   UNL     1      -4.801  11.864  18.174  0.00  0.00    +0.000 A 
ATOM     13  C   UNL     1      -3.643  12.058  18.947  0.00  0.00    +0.000 A 
ATOM     14  C   UNL     1      -3.826  12.670  20.306  0.00  0.00    +0.000 C 
ATOM     15  C   UNL     1      -2.404  11.655  18.414  0.00  0.00    +0.000 A 
ATOM     16  C   UNL     1      -2.351  11.149  17.096  0.00  0.00    +0.000 A 
ENDBRANCH   8  15
ENDBRANCH   2   8
ENDBRANCH   1   5
BRANCH   1  17
ATOM     17  N   UNL     1       2.391   6.713  20.049  0.00  0.00    +0.000 N 
ATOM     18  C   UNL     1       1.899   5.443  19.817  0.00  0.00    +0.000 C 
ATOM     19  O   UNL     1       1.065   4.902  20.541  0.00  0.00    +0.000 OA
ATOM     20  H   UNL     1       3.139   7.073  19.465  0.00  0.00    +0.000 HD
BRANCH  18  21
ATOM     21  C   UNL     1       2.498   4.725  18.607  0.00  0.00    +0.000 C 
BRANCH  21  22
ATOM     22  N   UNL     1       3.918   4.591  18.745  0.00  0.00    +0.000 N 
ATOM     23  C   UNL     1       4.545   3.596  19.462  0.00  0.00    +0.000 A 
ATOM     24  O   UNL     1       3.972   2.719  20.097  0.00  0.00    +0.000 OA
ATOM     25  O   UNL     1       5.938   3.712  19.379  0.00  0.00    +0.000 OA
ATOM     26  C   UNL     1       6.095   4.833  18.577  0.00  0.00    +0.000 A 
ATOM     27  C   UNL     1       7.305   5.379  18.199  0.00  0.00    +0.000 A 
ATOM     28  C   UNL     1       7.267   6.531  17.408  0.00  0.00    +0.000 A 
ATOM     29  C   UNL     1       6.038   7.098  17.017  0.00  0.00    +0.000 A 
ATOM     30  C   UNL     1       4.823   6.518  17.401  0.00  0.00    +0.000 A 
ATOM     31  C   UNL     1       4.892   5.384  18.182  0.00  0.00    +0.000 A 
ENDBRANCH  21  22
ENDBRANCH  18  21
ENDBRANCH   1  17
TORSDOF 6
ENDMDL
MODEL 3
REMARK VINA RESULT:      -8.6      1.904      9.044
REMARK  Name = 
REMARK  8 active torsions:
REMARK  status: ('A' for Active; 'I' for Inactive)
REMARK    1  A    between atoms: C_1  and  C_2
REMARK    2  A    between atoms: C_5  and  C_6
REMARK    3  A    between atoms: C_7  and  O_8
REMARK    4  A    between atoms: O_8  and  C_9
REMARK    5  A    between atoms: C_12  and  C_13
REMARK    6  A    between atoms: C_13  and  N_14
REMARK    7  A    between atoms: C_15  and  C_17
REMARK    8  A    between atoms: C_17  and  N_18
REMARK                            x       y       z     vdW  Elec       q    Type
REMARK                         _______ _______ _______ _____ _____    ______ ____
ROOT
ATOM      1  C   UNL     1       2.163   5.559  21.048  0.00  0.00    +0.000 C 
ENDROOT
BRANCH   1   5
ATOM      2  C   UNL     1       0.977   9.342  19.500  0.00  0.00    +0.000 A 
ATOM      3  C   UNL     1       1.820   8.563  18.715  0.00  0.00    +0.000 A 
ATOM      4  C   UNL     1       2.241   7.323  19.209  0.00  0.00    +0.000 A 
ATOM      5  C   UNL     1       1.819   6.905  20.475  0.00  0.00    +0.000 A 
ATOM      6  C   UNL     1       0.997   7.770  21.184  0.00  0.00    +0.000 A 
ATOM      7  N   UNL     1       0.533   8.954  20.707  0.00  0.00    +0.000 NA
BRANCH   2   8
ATOM      8  O   UNL     1       0.589  10.567  18.958  0.00  0.00    +0.000 OA
BRANCH   8  15
ATOM      9  C   UNL     1      -3.001   9.849  15.731  0.00  0.00    +0.000 C 
ATOM     10  C   UNL     1      -2.506  10.470  17.006  0.00  0.00    +0.000 A 
ATOM     11  C   UNL     1      -3.325  11.348  17.710  0.00  0.00    +0.000 A 
ATOM     12  C   UNL     1      -2.858  11.969  18.865  0.00  0.00    +0.000 A 
ATOM     13  C   UNL     1      -1.556  11.749  19.347  0.00  0.00    +0.000 A 
ATOM     14  C   UNL     1      -1.144  12.519  20.568  0.00  0.00    +0.000 C 
ATOM     15  C   UNL     1      -0.740  10.820  18.676  0.00  0.00    +0.000 A 
ATOM     16  C   UNL     1      -1.219  10.204  17.497  0.00  0.00    +0.000 A 
ENDBRANCH   8  15
ENDBRANCH   2   8
ENDBRANCH   1   5
BRANCH   1  17
ATOM     17  N   UNL     1       3.332   4.957  20.442  0.00  0.00    +0.000 N 
ATOM     18  C   UNL     1       3.325   3.653  19.984  0.00  0.00    +0.000 C 
ATOM     19  O   UNL     1       2.387   2.880  20.173  0.00  0.00    +0.000 OA
ATOM     20  H   UNL     1       4.169   5.521  20.329  0.00  0.00    +0.000 HD
BRANCH  18  21
ATOM     21  C   UNL     1       4.594   3.214  19.253  0.00  0.00    +0.000 C 
BRANCH  21  22
ATOM     22  N   UNL     1       4.945   4.154  18.230  0.00  0.00    +0.000 N 
ATOM     23  C   UNL     1       4.281   4.291  17.031  0.00  0.00    +0.000 A 
ATOM     24  O   UNL     1       3.329   3.610  16.672  0.00  0.00    +0.000 OA
ATOM     25  O   UNL     1       4.837   5.319  16.258  0.00  0.00    +0.000 OA
ATOM     26  C   UNL     1       5.867   5.774  17.068  0.00  0.00    +0.000 A 
ATOM     27  C   UNL     1       6.740   6.795  16.747  0.00  0.00    +0.000 A 
ATOM     28  C   UNL     1       7.737   7.099  17.680  0.00  0.00    +0.000 A 
ATOM     29  C   UNL     1       7.833   6.389  18.892  0.00  0.00    +0.000 A 
ATOM     30  C   UNL     1       6.926   5.367  19.201  0.00  0.00    +0.000 A 
ATOM     31  C   UNL     1       5.956   5.088  18.262  0.00  0.00    +0.000 A 
ENDBRANCH  21  22
ENDBRANCH  18  21
ENDBRANCH   1  17
TORSDOF 6
ENDMDL
MODEL 4
REMARK VINA RESULT:      -8.5      1.988      9.145
REMARK  Name = 
REMARK  8 active torsions:
REMARK  status: ('A' for Active; 'I' for Inactive)
REMARK    1  A    between atoms: C_1  and  C_2
REMARK    2  A    between atoms: C_5  and  C_6
REMARK    3  A    between atoms: C_7  and  O_8
REMARK    4  A    between atoms: O_8  and  C_9
REMARK    5  A    between atoms: C_12  and  C_13
REMARK    6  A    between atoms: C_13  and  N_14
REMARK    7  A    between atoms: C_15  and  C_17
REMARK    8  A    between atoms: C_17  and  N_18
REMARK                            x       y       z     vdW  Elec       q    Type
REMARK                         _______ _______ _______ _____ _____    ______ ____
ROOT
ATOM      1  C   UNL     1       2.443   4.424  19.659  0.00  0.00    +0.000 C 
ENDROOT
BRANCH   1   5
ATOM      2  C   UNL     1       1.665   8.603  19.446  0.00  0.00    +0.000 A 
ATOM      3  C   UNL     1       2.283   8.008  18.351  0.00  0.00    +0.000 A 
ATOM      4  C   UNL     1       2.568   6.638  18.404  0.00  0.00    +0.000 A 
ATOM      5  C   UNL     1       2.240   5.908  19.550  0.00  0.00    +0.000 A 
ATOM      6  C   UNL     1       1.647   6.605  20.594  0.00  0.00    +0.000 A 
ATOM      7  N   UNL     1       1.313   7.921  20.550  0.00  0.00    +0.000 NA
BRANCH   2   8
ATOM      8  O   UNL     1       1.405   9.968  19.339  0.00  0.00    +0.000 OA
BRANCH   8  15
ATOM      9  C   UNL     1      -2.498  10.057  16.410  0.00  0.00    +0.000 C 
ATOM     10  C   UNL     1      -1.818  10.481  17.681  0.00  0.00    +0.000 A 
ATOM     11  C   UNL     1      -2.443  11.393  18.527  0.00  0.00    +0.000 A 
ATOM     12  C   UNL     1      -1.799  11.833  19.682  0.00  0.00    +0.000 A 
ATOM     13  C   UNL     1      -0.509  11.391  20.021  0.00  0.00    +0.000 A 
ATOM     14  C   UNL     1       0.107  11.978  21.258  0.00  0.00    +0.000 C 
ATOM     15  C   UNL     1       0.108  10.427  19.203  0.00  0.00    +0.000 A 
ATOM     16  C   UNL     1      -0.547   9.996  18.027  0.00  0.00    +0.000 A 
ENDBRANCH   8  15
ENDBRANCH   2   8
ENDBRANCH   1   5
BRANCH   1  17
ATOM     17  N   UNL     1       3.606   3.947  18.942  0.00  0.00    +0.000 N 
ATOM     18  C   UNL     1       3.534   3.544  17.622  0.00  0.00    +0.000 C 
ATOM     19  O   UNL     1       2.472   3.436  17.011  0.00  0.00    +0.000 OA
ATOM     20  H   UNL     1       4.503   3.936  19.418  0.00  0.00    +0.000 HD
BRANCH  18  21
ATOM     21  C   UNL     1       4.874   3.195  16.974  0.00  0.00    +0.000 C 
BRANCH  21  22
ATOM     22  N   UNL     1       5.607   4.382  16.647  0.00  0.00    +0.000 N 
ATOM     23  C   UNL     1       5.603   4.990  15.412  0.00  0.00    +0.000 A 
ATOM     24  O   UNL     1       4.999   4.581  14.428  0.00  0.00    +0.000 OA
ATOM     25  O   UNL     1       6.386   6.152  15.415  0.00  0.00    +0.000 OA
ATOM     26  C   UNL     1       6.854   6.189  16.721  0.00  0.00    +0.000 A 
ATOM     27  C   UNL     1       7.695   7.154  17.238  0.00  0.00    +0.000 A 
ATOM     28  C   UNL     1       8.085   7.012  18.573  0.00  0.00    +0.000 A 
ATOM     29  C   UNL     1       7.632   5.926  19.347  0.00  0.00    +0.000 A 
ATOM     30  C   UNL     1       6.769   4.967  18.804  0.00  0.00    +0.000 A 
ATOM     31  C   UNL     1       6.402   5.132  17.485  0.00  0.00    +0.000 A 
ENDBRANCH  21  22
ENDBRANCH  18  21
ENDBRANCH   1  17
TORSDOF 6
ENDMDL
MODEL 5
REMARK VINA RESULT:      -8.4      1.237      1.546
REMARK  Name = 
REMARK  8 active torsions:
REMARK  status: ('A' for Active; 'I' for Inactive)
REMARK    1  A    between atoms: C_1  and  C_2
REMARK    2  A    between atoms: C_5  and  C_6
REMARK    3  A    between atoms: C_7  and  O_8
REMARK    4  A    between atoms: O_8  and  C_9
REMARK    5  A    between atoms: C_12  and  C_13
REMARK    6  A    between atoms: C_13  and  N_14
REMARK    7  A    between atoms: C_15  and  C_17
REMARK    8  A    between atoms: C_17  and  N_18
REMARK                            x       y       z     vdW  Elec       q    Type
REMARK                         _______ _______ _______ _____ _____    ______ ____
ROOT
ATOM      1  C   UNL     1       1.583   6.267  20.996  0.00  0.00    +0.000 C 
ENDROOT
BRANCH   1   5
ATOM      2  C   UNL     1       3.772   3.943  18.182  0.00  0.00    +0.000 A 
ATOM      3  C   UNL     1       3.122   5.077  17.710  0.00  0.00    +0.000 A 
ATOM      4  C   UNL     1       2.378   5.849  18.611  0.00  0.00    +0.000 A 
ATOM      5  C   UNL     1       2.296   5.458  19.951  0.00  0.00    +0.000 A 
ATOM      6  C   UNL     1       2.965   4.295  20.311  0.00  0.00    +0.000 A 
ATOM      7  N   UNL     1       3.734   3.558  19.469  0.00  0.00    +0.000 NA
BRANCH   2   8
ATOM      8  O   UNL     1       4.497   3.212  17.241  0.00  0.00    +0.000 OA
BRANCH   8  15
ATOM      9  C   UNL     1       5.913   3.608  12.587  0.00  0.00    +0.000 C 
ATOM     10  C   UNL     1       6.078   3.987  14.031  0.00  0.00    +0.000 A 
ATOM     11  C   UNL     1       7.145   4.793  14.416  0.00  0.00    +0.000 A 
ATOM     12  C   UNL     1       7.337   5.108  15.759  0.00  0.00    +0.000 A 
ATOM     13  C   UNL     1       6.483   4.618  16.762  0.00  0.00    +0.000 A 
ATOM     14  C   UNL     1       6.824   4.976  18.180  0.00  0.00    +0.000 C 
ATOM     15  C   UNL     1       5.369   3.850  16.379  0.00  0.00    +0.000 A 
ATOM     16  C   UNL     1       5.189   3.525  15.015  0.00  0.00    +0.000 A 
ENDBRANCH   8  15
ENDBRANCH   2   8
ENDBRANCH   1   5
BRANCH   1  17
ATOM     17  N   UNL     1       1.666   7.696  20.775  0.00  0.00    +0.000 N 
ATOM     18  C   UNL     1       0.662   8.555  21.178  0.00  0.00    +0.000 C 
ATOM     19  O   UNL     1      -0.415   8.166  21.625  0.00  0.00    +0.000 OA
ATOM     20  H   UNL     1       2.500   8.074  20.335  0.00  0.00    +0.000 HD
BRANCH  18  21
ATOM     21  C   UNL     1       0.964  10.042  20.990  0.00  0.00    +0.000 C 
BRANCH  21  22
ATOM     22  N   UNL     1      -0.243  10.782  20.765  0.00  0.00    +0.000 N 
ATOM     23  C   UNL     1      -0.835  11.614  21.688  0.00  0.00    +0.000 A 
ATOM     24  O   UNL     1      -0.427  11.805  22.827  0.00  0.00    +0.000 OA
ATOM     25  O   UNL     1      -1.981  12.224  21.161  0.00  0.00    +0.000 OA
ATOM     26  C   UNL     1      -2.030  11.700  19.877  0.00  0.00    +0.000 A 
ATOM     27  C   UNL     1      -3.000  11.987  18.937  0.00  0.00    +0.000 A 
ATOM     28  C   UNL     1      -2.901  11.340  17.701  0.00  0.00    +0.000 A 
ATOM     29  C   UNL     1      -1.851  10.439  17.438  0.00  0.00    +0.000 A 
ATOM     30  C   UNL     1      -0.871  10.176  18.403  0.00  0.00    +0.000 A 
ATOM     31  C   UNL     1      -0.995  10.826  19.612  0.00  0.00    +0.000 A 
ENDBRANCH  21  22
ENDBRANCH  18  21
ENDBRANCH   1  17
TORSDOF 6
ENDMDL
MODEL 6
REMARK VINA RESULT:      -8.4      1.996      9.839
REMARK  Name = 
REMARK  8 active torsions:
REMARK  status: ('A' for Active; 'I' for Inactive)
REMARK    1  A    between atoms: C_1  and  C_2
REMARK    2  A    between atoms: C_5  and  C_6
REMARK    3  A    between atoms: C_7  and  O_8
REMARK    4  A    between atoms: O_8  and  C_9
REMARK    5  A    between atoms: C_12  and  C_13
REMARK    6  A    between atoms: C_13  and  N_14
REMARK    7  A    between atoms: C_15  and  C_17
REMARK    8  A    between atoms: C_17  and  N_18
REMARK                            x       y       z     vdW  Elec       q    Type
REMARK                         _______ _______ _______ _____ _____    ______ ____
ROOT
ATOM      1  C   UNL     1       1.759   7.926  20.979  0.00  0.00    +0.000 C 
ENDROOT
BRANCH   1   5
ATOM      2  C   UNL     1      -0.559  11.137  19.419  0.00  0.00    +0.000 A 
ATOM      3  C   UNL     1      -0.807  10.744  20.730  0.00  0.00    +0.000 A 
ATOM      4  C   UNL     1      -0.072   9.677  21.261  0.00  0.00    +0.000 A 
ATOM      5  C   UNL     1       0.877   9.028  20.465  0.00  0.00    +0.000 A 
ATOM      6  C   UNL     1       1.028   9.486  19.162  0.00  0.00    +0.000 A 
ATOM      7  N   UNL     1       0.366  10.550  18.640  0.00  0.00    +0.000 NA
BRANCH   2   8
ATOM      8  O   UNL     1      -1.320  12.203  18.942  0.00  0.00    +0.000 OA
BRANCH   8  15
ATOM      9  C   UNL     1      -5.706  12.737  21.016  0.00  0.00    +0.000 C 
ATOM     10  C   UNL     1      -4.866  12.308  19.846  0.00  0.00    +0.000 A 
ATOM     11  C   UNL     1      -5.466  11.681  18.758  0.00  0.00    +0.000 A 
ATOM     12  C   UNL     1      -4.690  11.233  17.692  0.00  0.00    +0.000 A 
ATOM     13  C   UNL     1      -3.292  11.381  17.683  0.00  0.00    +0.000 A 
ATOM     14  C   UNL     1      -2.555  10.806  16.508  0.00  0.00    +0.000 C 
ATOM     15  C   UNL     1      -2.682  12.064  18.751  0.00  0.00    +0.000 A 
ATOM     16  C   UNL     1      -3.476  12.504  19.834  0.00  0.00    +0.000 A 
ENDBRANCH   8  15
ENDBRANCH   2   8
ENDBRANCH   1   5
BRANCH   1  17
ATOM     17  N   UNL     1       2.256   7.052  19.937  0.00  0.00    +0.000 N 
ATOM     18  C   UNL     1       1.880   5.725  19.859  0.00  0.00    +0.000 C 
ATOM     19  O   UNL     1       1.214   5.164  20.726  0.00  0.00    +0.000 OA
ATOM     20  H   UNL     1       2.877   7.438  19.231  0.00  0.00    +0.000 HD
BRANCH  18  21
ATOM     21  C   UNL     1       2.388   4.977  18.626  0.00  0.00    +0.000 C 
BRANCH  21  22
ATOM     22  N   UNL     1       3.790   4.703  18.738  0.00  0.00    +0.000 N 
ATOM     23  C   UNL     1       4.327   3.628  19.410  0.00  0.00    +0.000 A 
ATOM     24  O   UNL     1       3.681   2.786  20.022  0.00  0.00    +0.000 OA
ATOM     25  O   UNL     1       5.724   3.613  19.310  0.00  0.00    +0.000 OA
ATOM     26  C   UNL     1       5.978   4.742  18.546  0.00  0.00    +0.000 A 
ATOM     27  C   UNL     1       7.231   5.184  18.169  0.00  0.00    +0.000 A 
ATOM     28  C   UNL     1       7.294   6.363  17.419  0.00  0.00    +0.000 A 
ATOM     29  C   UNL     1       6.121   7.058  17.067  0.00  0.00    +0.000 A 
ATOM     30  C   UNL     1       4.860   6.583  17.449  0.00  0.00    +0.000 A 
ATOM     31  C   UNL     1       4.829   5.420  18.189  0.00  0.00    +0.000 A 
ENDBRANCH  21  22
ENDBRANCH  18  21
ENDBRANCH   1  17
TORSDOF 6
ENDMDL
MODEL 7
REMARK VINA RESULT:      -8.3      6.605      9.306
REMARK  Name = 
REMARK  8 active torsions:
REMARK  status: ('A' for Active; 'I' for Inactive)
REMARK    1  A    between atoms: C_1  and  C_2
REMARK    2  A    between atoms: C_5  and  C_6
REMARK    3  A    between atoms: C_7  and  O_8
REMARK    4  A    between atoms: O_8  and  C_9
REMARK    5  A    between atoms: C_12  and  C_13
REMARK    6  A    between atoms: C_13  and  N_14
REMARK    7  A    between atoms: C_15  and  C_17
REMARK    8  A    between atoms: C_17  and  N_18
REMARK                            x       y       z     vdW  Elec       q    Type
REMARK                         _______ _______ _______ _____ _____    ______ ____
ROOT
ATOM      1  C   UNL     1       8.150   8.546  17.607  0.00  0.00    +0.000 C 
ENDROOT
BRANCH   1   5
ATOM      2  C   UNL     1       6.064   4.977  18.620  0.00  0.00    +0.000 A 
ATOM      3  C   UNL     1       7.215   5.274  19.341  0.00  0.00    +0.000 A 
ATOM      4  C   UNL     1       7.932   6.432  19.014  0.00  0.00    +0.000 A 
ATOM      5  C   UNL     1       7.484   7.250  17.972  0.00  0.00    +0.000 A 
ATOM      6  C   UNL     1       6.336   6.847  17.303  0.00  0.00    +0.000 A 
ATOM      7  N   UNL     1       5.595   5.759  17.632  0.00  0.00    +0.000 NA
BRANCH   2   8
ATOM      8  O   UNL     1       5.391   3.813  18.988  0.00  0.00    +0.000 OA
BRANCH   8  15
ATOM      9  C   UNL     1       1.590   6.312  20.757  0.00  0.00    +0.000 C 
ATOM     10  C   UNL     1       2.139   5.086  20.084  0.00  0.00    +0.000 A 
ATOM     11  C   UNL     1       1.296   4.012  19.814  0.00  0.00    +0.000 A 
ATOM     12  C   UNL     1       1.803   2.850  19.238  0.00  0.00    +0.000 A 
ATOM     13  C   UNL     1       3.168   2.715  18.927  0.00  0.00    +0.000 A 
ATOM     14  C   UNL     1       3.610   1.395  18.364  0.00  0.00    +0.000 C 
ATOM     15  C   UNL     1       4.018   3.815  19.143  0.00  0.00    +0.000 A 
ATOM     16  C   UNL     1       3.496   4.986  19.739  0.00  0.00    +0.000 A 
ENDBRANCH   8  15
ENDBRANCH   2   8
ENDBRANCH   1   5
BRANCH   1  17
ATOM     17  N   UNL     1       8.796   9.198  18.726  0.00  0.00    +0.000 N 
ATOM     18  C   UNL     1       8.955  10.569  18.778  0.00  0.00    +0.000 C 
ATOM     19  O   UNL     1       8.687  11.312  17.835  0.00  0.00    +0.000 OA
ATOM     20  H   UNL     1       9.113   8.629  19.506  0.00  0.00    +0.000 HD
BRANCH  18  21
ATOM     21  C   UNL     1       9.536  11.108  20.086  0.00  0.00    +0.000 C 
BRANCH  21  22
ATOM     22  N   UNL     1      10.300  12.298  19.852  0.00  0.00    +0.000 N 
ATOM     23  C   UNL     1      11.618  12.317  19.454  0.00  0.00    +0.000 A 
ATOM     24  O   UNL     1      12.314  11.325  19.278  0.00  0.00    +0.000 OA
ATOM     25  O   UNL     1      12.075  13.629  19.273  0.00  0.00    +0.000 OA
ATOM     26  C   UNL     1      10.953  14.379  19.593  0.00  0.00    +0.000 A 
ATOM     27  C   UNL     1      10.888  15.758  19.581  0.00  0.00    +0.000 A 
ATOM     28  C   UNL     1       9.675  16.344  19.961  0.00  0.00    +0.000 A 
ATOM     29  C   UNL     1       8.575  15.548  20.334  0.00  0.00    +0.000 A 
ATOM     30  C   UNL     1       8.661  14.150  20.324  0.00  0.00    +0.000 A 
ATOM     31  C   UNL     1       9.868  13.602  19.948  0.00  0.00    +0.000 A 
ENDBRANCH  21  22
ENDBRANCH  18  21
ENDBRANCH   1  17
TORSDOF 6
ENDMDL
MODEL 8
REMARK VINA RESULT:      -8.2      2.300      3.726
REMARK  Name = 
REMARK  8 active torsions:
REMARK  status: ('A' for Active; 'I' for Inactive)
REMARK    1  A    between atoms: C_1  and  C_2
REMARK    2  A    between atoms: C_5  and  C_6
REMARK    3  A    between atoms: C_7  and  O_8
REMARK    4  A    between atoms: O_8  and  C_9
REMARK    5  A    between atoms: C_12  and  C_13
REMARK    6  A    between atoms: C_13  and  N_14
REMARK    7  A    between atoms: C_15  and  C_17
REMARK    8  A    between atoms: C_17  and  N_18
REMARK                            x       y       z     vdW  Elec       q    Type
REMARK                         _______ _______ _______ _____ _____    ______ ____
ROOT
ATOM      1  C   UNL     1       0.038  10.182  21.081  0.00  0.00    +0.000 C 
ENDROOT
BRANCH   1   5
ATOM      2  C   UNL     1       2.441   7.476  18.840  0.00  0.00    +0.000 A 
ATOM      3  C   UNL     1       1.964   8.606  18.185  0.00  0.00    +0.000 A 
ATOM      4  C   UNL     1       1.155   9.502  18.893  0.00  0.00    +0.000 A 
ATOM      5  C   UNL     1       0.837   9.237  20.229  0.00  0.00    +0.000 A 
ATOM      6  C   UNL     1       1.346   8.069  20.779  0.00  0.00    +0.000 A 
ATOM      7  N   UNL     1       2.175   7.210  20.131  0.00  0.00    +0.000 NA
BRANCH   2   8
ATOM      8  O   UNL     1       3.241   6.619  18.087  0.00  0.00    +0.000 OA
BRANCH   8  15
ATOM      9  C   UNL     1       0.746   2.476  18.744  0.00  0.00    +0.000 C 
ATOM     10  C   UNL     1       2.046   3.229  18.781  0.00  0.00    +0.000 A 
ATOM     11  C   UNL     1       3.189   2.609  19.275  0.00  0.00    +0.000 A 
ATOM     12  C   UNL     1       4.387   3.314  19.362  0.00  0.00    +0.000 A 
ATOM     13  C   UNL     1       4.480   4.662  18.975  0.00  0.00    +0.000 A 
ATOM     14  C   UNL     1       5.808   5.335  19.169  0.00  0.00    +0.000 C 
ATOM     15  C   UNL     1       3.345   5.281  18.420  0.00  0.00    +0.000 A 
ATOM     16  C   UNL     1       2.131   4.561  18.348  0.00  0.00    +0.000 A 
ENDBRANCH   8  15
ENDBRANCH   2   8
ENDBRANCH   1   5
BRANCH   1  17
ATOM     17  N   UNL     1      -0.808  11.073  20.316  0.00  0.00    +0.000 N 
ATOM     18  C   UNL     1      -1.706  11.928  20.927  0.00  0.00    +0.000 C 
ATOM     19  O   UNL     1      -1.944  11.901  22.133  0.00  0.00    +0.000 OA
ATOM     20  H   UNL     1      -0.716  11.086  19.305  0.00  0.00    +0.000 HD
BRANCH  18  21
ATOM     21  C   UNL     1      -2.427  12.894  19.987  0.00  0.00    +0.000 C 
BRANCH  21  22
ATOM     22  N   UNL     1      -3.476  12.226  19.275  0.00  0.00    +0.000 N 
ATOM     23  C   UNL     1      -3.323  11.606  18.055  0.00  0.00    +0.000 A 
ATOM     24  O   UNL     1      -2.283  11.571  17.409  0.00  0.00    +0.000 OA
ATOM     25  O   UNL     1      -4.519  11.011  17.634  0.00  0.00    +0.000 OA
ATOM     26  C   UNL     1      -5.385  11.322  18.673  0.00  0.00    +0.000 A 
ATOM     27  C   UNL     1      -6.717  10.964  18.733  0.00  0.00    +0.000 A 
ATOM     28  C   UNL     1      -7.443  11.390  19.850  0.00  0.00    +0.000 A 
ATOM     29  C   UNL     1      -6.828  12.150  20.864  0.00  0.00    +0.000 A 
ATOM     30  C   UNL     1      -5.472  12.488  20.788  0.00  0.00    +0.000 A 
ATOM     31  C   UNL     1      -4.782  12.056  19.675  0.00  0.00    +0.000 A 
ENDBRANCH  21  22
ENDBRANCH  18  21
ENDBRANCH   1  17
TORSDOF 6
ENDMDL
MODEL 9
REMARK VINA RESULT:      -8.2      1.192      2.079
REMARK  Name = 
REMARK  8 active torsions:
REMARK  status: ('A' for Active; 'I' for Inactive)
REMARK    1  A    between atoms: C_1  and  C_2
REMARK    2  A    between atoms: C_5  and  C_6
REMARK    3  A    between atoms: C_7  and  O_8
REMARK    4  A    between atoms: O_8  and  C_9
REMARK    5  A    between atoms: C_12  and  C_13
REMARK    6  A    between atoms: C_13  and  N_14
REMARK    7  A    between atoms: C_15  and  C_17
REMARK    8  A    between atoms: C_17  and  N_18
REMARK                            x       y       z     vdW  Elec       q    Type
REMARK                         _______ _______ _______ _____ _____    ______ ____
ROOT
ATOM      1  C   UNL     1       1.144   8.368  20.887  0.00  0.00    +0.000 C 
ENDROOT
BRANCH   1   5
ATOM      2  C   UNL     1       3.216   5.225  18.901  0.00  0.00    +0.000 A 
ATOM      3  C   UNL     1       3.007   6.404  18.193  0.00  0.00    +0.000 A 
ATOM      4  C   UNL     1       2.310   7.446  18.817  0.00  0.00    +0.000 A 
ATOM      5  C   UNL     1       1.834   7.276  20.120  0.00  0.00    +0.000 A 
ATOM      6  C   UNL     1       2.078   6.051  20.726  0.00  0.00    +0.000 A 
ATOM      7  N   UNL     1       2.795   5.044  20.164  0.00  0.00    +0.000 NA
BRANCH   2   8
ATOM      8  O   UNL     1       3.914   4.221  18.232  0.00  0.00    +0.000 OA
BRANCH   8  15
ATOM      9  C   UNL     1       5.835   3.897  13.756  0.00  0.00    +0.000 C 
ATOM     10  C   UNL     1       5.958   4.310  15.196  0.00  0.00    +0.000 A 
ATOM     11  C   UNL     1       7.168   4.809  15.670  0.00  0.00    +0.000 A 
ATOM     12  C   UNL     1       7.309   5.146  17.014  0.00  0.00    +0.000 A 
ATOM     13  C   UNL     1       6.256   4.981  17.931  0.00  0.00    +0.000 A 
ATOM     14  C   UNL     1       6.543   5.322  19.364  0.00  0.00    +0.000 C 
ATOM     15  C   UNL     1       5.012   4.531  17.451  0.00  0.00    +0.000 A 
ATOM     16  C   UNL     1       4.882   4.180  16.088  0.00  0.00    +0.000 A 
ENDBRANCH   8  15
ENDBRANCH   2   8
ENDBRANCH   1   5
BRANCH   1  17
ATOM     17  N   UNL     1       0.661   9.445  20.049  0.00  0.00    +0.000 N 
ATOM     18  C   UNL     1       0.607  10.750  20.499  0.00  0.00    +0.000 C 
ATOM     19  O   UNL     1       0.834  11.068  21.664  0.00  0.00    +0.000 OA
ATOM     20  H   UNL     1       0.381   9.233  19.095  0.00  0.00    +0.000 HD
BRANCH  18  21
ATOM     21  C   UNL     1       0.199  11.784  19.448  0.00  0.00    +0.000 C 
BRANCH  21  22
ATOM     22  N   UNL     1      -1.209  11.716  19.187  0.00  0.00    +0.000 N 
ATOM     23  C   UNL     1      -1.792  10.901  18.242  0.00  0.00    +0.000 A 
ATOM     24  O   UNL     1      -1.184  10.155  17.484  0.00  0.00    +0.000 OA
ATOM     25  O   UNL     1      -3.186  11.033  18.249  0.00  0.00    +0.000 OA
ATOM     26  C   UNL     1      -3.390  11.974  19.248  0.00  0.00    +0.000 A 
ATOM     27  C   UNL     1      -4.619  12.463  19.643  0.00  0.00    +0.000 A 
ATOM     28  C   UNL     1      -4.626  13.431  20.652  0.00  0.00    +0.000 A 
ATOM     29  C   UNL     1      -3.424  13.878  21.234  0.00  0.00    +0.000 A 
ATOM     30  C   UNL     1      -2.190  13.356  20.827  0.00  0.00    +0.000 A 
ATOM     31  C   UNL     1      -2.213  12.404  19.829  0.00  0.00    +0.000 A 
ENDBRANCH  21  22
ENDBRANCH  18  21
ENDBRANCH   1  17
TORSDOF 6
ENDMDL
