MODEL 1
REMARK VINA RESULT:      -8.3      0.000      0.000
REMARK  Name = 
REMARK  7 active torsions:
REMARK  status: ('A' for Active; 'I' for Inactive)
REMARK    1  A    between atoms: C_2  and  C_3
REMARK    2  A    between atoms: C_3  and  C_4
REMARK    3  A    between atoms: C_4  and  C_5
REMARK    4  A    between atoms: C_7  and  C_8
REMARK    5  A    between atoms: N_16  and  C_17
REMARK    6  A    between atoms: C_17  and  C_18
REMARK    7  A    between atoms: C_18  and  C_19
REMARK                            x       y       z     vdW  Elec       q    Type
REMARK                         _______ _______ _______ _____ _____    ______ ____
ROOT
ATOM      1  O   UNL     1       7.655   5.168  20.623  0.00  0.00    +0.000 OA
ATOM      2  C   UNL     1       7.297   5.651  19.552  0.00  0.00    +0.000 C 
ATOM      3  N   UNL     1       6.019   5.549  19.056  0.00  0.00    +0.000 N 
ATOM      4  H   UNL     1       5.878   5.814  18.090  0.00  0.00    +0.000 HD
ENDROOT
BRANCH   2   5
ATOM      5  C   UNL     1       8.221   6.488  18.686  0.00  0.00    +0.000 C 
BRANCH   5   6
ATOM      6  C   UNL     1       7.433   7.476  17.831  0.00  0.00    +0.000 C 
BRANCH   6   7
ATOM      7  C   UNL     1       6.790   6.796  16.682  0.00  0.00    +0.000 A 
ATOM      8  N   UNL     1       7.266   5.868  15.884  0.00  0.00    +0.000 NA
ATOM      9  C   UNL     1       6.244   5.711  14.971  0.00  0.00    +0.000 A 
ATOM     10  N   UNL     1       5.167   6.473  15.227  0.00  0.00    +0.000 NA
ATOM     11  O   UNL     1       5.531   7.198  16.356  0.00  0.00    +0.000 OA
BRANCH   9  12
ATOM     12  C   UNL     1       6.335   4.781  13.851  0.00  0.00    +0.000 A 
ATOM     13  C   UNL     1       5.311   3.852  13.612  0.00  0.00    +0.000 A 
ATOM     14  C   UNL     1       5.379   2.988  12.516  0.00  0.00    +0.000 A 
ATOM     15  C   UNL     1       6.474   3.037  11.655  0.00  0.00    +0.000 A 
ATOM     16  C   UNL     1       7.508   3.939  11.893  0.00  0.00    +0.000 A 
ATOM     17  C   UNL     1       7.442   4.804  12.988  0.00  0.00    +0.000 A 
ENDBRANCH   9  12
ENDBRANCH   6   7
ENDBRANCH   5   6
ENDBRANCH   2   5
BRANCH   3  18
ATOM     18  C   UNL     1       5.004   4.713  19.696  0.00  0.00    +0.000 C 
BRANCH  18  19
ATOM     19  C   UNL     1       3.657   4.648  18.923  0.00  0.00    +0.000 C 
ATOM     20  C   UNL     1       2.742   3.483  19.394  0.00  0.00    +0.000 C 
ATOM     21  C   UNL     1       1.843   3.149  18.200  0.00  0.00    +0.000 C 
ATOM     22  C   UNL     1       2.536   3.717  16.967  0.00  0.00    +0.000 C 
ATOM     23  C   UNL     1       3.894   4.200  17.456  0.00  0.00    +0.000 C 
BRANCH  19  24
ATOM     24  C   UNL     1       2.957   6.026  19.036  0.00  0.00    +0.000 A 
ATOM     25  C   UNL     1       2.251   6.393  20.198  0.00  0.00    +0.000 A 
ATOM     26  C   UNL     1       1.661   7.656  20.326  0.00  0.00    +0.000 A 
ATOM     27  C   UNL     1       1.735   8.576  19.289  0.00  0.00    +0.000 A 
ATOM     28  C   UNL     1       2.381   8.221  18.109  0.00  0.00    +0.000 A 
ATOM     29  C   UNL     1       2.967   6.957  17.978  0.00  0.00    +0.000 A 
ENDBRANCH  19  24
ENDBRANCH  18  19
ENDBRANCH   3  18
TORSDOF 7
ENDMDL
MODEL 2
REMARK VINA RESULT:      -8.1      2.328      7.136
REMARK  Name = 
REMARK  7 active torsions:
REMARK  status: ('A' for Active; 'I' for Inactive)
REMARK    1  A    between atoms: C_2  and  C_3
REMARK    2  A    between atoms: C_3  and  C_4
REMARK    3  A    between atoms: C_4  and  C_5
REMARK    4  A    between atoms: C_7  and  C_8
REMARK    5  A    between atoms: N_16  and  C_17
REMARK    6  A    between atoms: C_17  and  C_18
REMARK    7  A    between atoms: C_18  and  C_19
REMARK                            x       y       z     vdW  Elec       q    Type
REMARK                         _______ _______ _______ _____ _____    ______ ____
ROOT
ATOM      1  O   UNL     1       2.322   2.173  17.248  0.00  0.00    +0.000 OA
ATOM      2  C   UNL     1       3.335   2.299  17.931  0.00  0.00    +0.000 C 
ATOM      3  N   UNL     1       4.461   2.968  17.512  0.00  0.00    +0.000 N 
ATOM      4  H   UNL     1       5.298   2.853  18.069  0.00  0.00    +0.000 HD
ENDROOT
BRANCH   2   5
ATOM      5  C   UNL     1       3.425   1.789  19.358  0.00  0.00    +0.000 C 
BRANCH   5   6
ATOM      6  C   UNL     1       3.986   2.857  20.292  0.00  0.00    +0.000 C 
BRANCH   6   7
ATOM      7  C   UNL     1       3.154   4.082  20.269  0.00  0.00    +0.000 A 
ATOM      8  N   UNL     1       3.271   5.160  19.528  0.00  0.00    +0.000 NA
ATOM      9  C   UNL     1       2.272   5.970  20.026  0.00  0.00    +0.000 A 
ATOM     10  N   UNL     1       1.541   5.395  20.995  0.00  0.00    +0.000 NA
ATOM     11  O   UNL     1       2.128   4.147  21.162  0.00  0.00    +0.000 OA
BRANCH   9  12
ATOM     12  C   UNL     1       2.033   7.317  19.517  0.00  0.00    +0.000 A 
ATOM     13  C   UNL     1       2.432   7.667  18.218  0.00  0.00    +0.000 A 
ATOM     14  C   UNL     1       2.169   8.944  17.715  0.00  0.00    +0.000 A 
ATOM     15  C   UNL     1       1.514   9.885  18.508  0.00  0.00    +0.000 A 
ATOM     16  C   UNL     1       1.134   9.558  19.807  0.00  0.00    +0.000 A 
ATOM     17  C   UNL     1       1.396   8.281  20.312  0.00  0.00    +0.000 A 
ENDBRANCH   9  12
ENDBRANCH   6   7
ENDBRANCH   5   6
ENDBRANCH   2   5
BRANCH   3  18
ATOM     18  C   UNL     1       4.607   3.458  16.142  0.00  0.00    +0.000 C 
BRANCH  18  19
ATOM     19  C   UNL     1       5.655   4.595  15.983  0.00  0.00    +0.000 C 
ATOM     20  C   UNL     1       6.763   4.557  17.072  0.00  0.00    +0.000 C 
ATOM     21  C   UNL     1       7.280   5.994  17.193  0.00  0.00    +0.000 C 
ATOM     22  C   UNL     1       6.199   6.891  16.600  0.00  0.00    +0.000 C 
ATOM     23  C   UNL     1       5.019   5.970  16.323  0.00  0.00    +0.000 C 
BRANCH  19  24
ATOM     24  C   UNL     1       6.239   4.529  14.549  0.00  0.00    +0.000 A 
ATOM     25  C   UNL     1       7.344   5.317  14.174  0.00  0.00    +0.000 A 
ATOM     26  C   UNL     1       7.907   5.224  12.896  0.00  0.00    +0.000 A 
ATOM     27  C   UNL     1       7.368   4.363  11.950  0.00  0.00    +0.000 A 
ATOM     28  C   UNL     1       6.244   3.610  12.276  0.00  0.00    +0.000 A 
ATOM     29  C   UNL     1       5.677   3.707  13.552  0.00  0.00    +0.000 A 
ENDBRANCH  19  24
ENDBRANCH  18  19
ENDBRANCH   3  18
TORSDOF 7
ENDMDL
MODEL 3
REMARK VINA RESULT:      -8.1      4.597      8.256
REMARK  Name = 
REMARK  7 active torsions:
REMARK  status: ('A' for Active; 'I' for Inactive)
REMARK    1  A    between atoms: C_2  and  C_3
REMARK    2  A    between atoms: C_3  and  C_4
REMARK    3  A    between atoms: C_4  and  C_5
REMARK    4  A    between atoms: C_7  and  C_8
REMARK    5  A    between atoms: N_16  and  C_17
REMARK    6  A    between atoms: C_17  and  C_18
REMARK    7  A    between atoms: C_18  and  C_19
REMARK                            x       y       z     vdW  Elec       q    Type
REMARK                         _______ _______ _______ _____ _____    ______ ____
ROOT
ATOM      1  O   UNL     1       6.826   9.081  17.179  0.00  0.00    +0.000 OA
ATOM      2  C   UNL     1       7.805   8.723  17.828  0.00  0.00    +0.000 C 
ATOM      3  N   UNL     1       8.772   9.585  18.290  0.00  0.00    +0.000 N 
ATOM      4  H   UNL     1       9.624   9.172  18.645  0.00  0.00    +0.000 HD
ENDROOT
BRANCH   2   5
ATOM      5  C   UNL     1       8.018   7.283  18.258  0.00  0.00    +0.000 C 
BRANCH   5   6
ATOM      6  C   UNL     1       7.342   6.312  17.295  0.00  0.00    +0.000 C 
BRANCH   6   7
ATOM      7  C   UNL     1       6.362   5.453  17.999  0.00  0.00    +0.000 A 
ATOM      8  N   UNL     1       5.049   5.479  17.965  0.00  0.00    +0.000 NA
ATOM      9  C   UNL     1       4.711   4.509  18.886  0.00  0.00    +0.000 A 
ATOM     10  N   UNL     1       5.770   3.880  19.423  0.00  0.00    +0.000 NA
ATOM     11  O   UNL     1       6.864   4.509  18.842  0.00  0.00    +0.000 OA
BRANCH   9  12
ATOM     12  C   UNL     1       3.325   4.195  19.215  0.00  0.00    +0.000 A 
ATOM     13  C   UNL     1       2.707   4.786  20.328  0.00  0.00    +0.000 A 
ATOM     14  C   UNL     1       1.367   4.518  20.621  0.00  0.00    +0.000 A 
ATOM     15  C   UNL     1       0.637   3.649  19.812  0.00  0.00    +0.000 A 
ATOM     16  C   UNL     1       1.244   3.038  18.718  0.00  0.00    +0.000 A 
ATOM     17  C   UNL     1       2.583   3.306  18.423  0.00  0.00    +0.000 A 
ENDBRANCH   9  12
ENDBRANCH   6   7
ENDBRANCH   5   6
ENDBRANCH   2   5
BRANCH   3  18
ATOM     18  C   UNL     1       8.797  10.997  17.912  0.00  0.00    +0.000 C 
BRANCH  18  19
ATOM     19  C   UNL     1       9.864  11.838  18.667  0.00  0.00    +0.000 C 
ATOM     20  C   UNL     1      11.320  11.479  18.261  0.00  0.00    +0.000 C 
ATOM     21  C   UNL     1      12.194  11.856  19.461  0.00  0.00    +0.000 C 
ATOM     22  C   UNL     1      11.260  11.938  20.664  0.00  0.00    +0.000 C 
ATOM     23  C   UNL     1       9.915  11.431  20.164  0.00  0.00    +0.000 C 
BRANCH  19  24
ATOM     24  C   UNL     1       9.548  13.340  18.452  0.00  0.00    +0.000 A 
ATOM     25  C   UNL     1       8.421  13.941  19.045  0.00  0.00    +0.000 A 
ATOM     26  C   UNL     1       8.160  15.308  18.896  0.00  0.00    +0.000 A 
ATOM     27  C   UNL     1       8.999  16.107  18.131  0.00  0.00    +0.000 A 
ATOM     28  C   UNL     1      10.091  15.529  17.492  0.00  0.00    +0.000 A 
ATOM     29  C   UNL     1      10.351  14.161  17.636  0.00  0.00    +0.000 A 
ENDBRANCH  19  24
ENDBRANCH  18  19
ENDBRANCH   3  18
TORSDOF 7
ENDMDL
MODEL 4
REMARK VINA RESULT:      -8.1      4.405      8.331
REMARK  Name = 
REMARK  7 active torsions:
REMARK  status: ('A' for Active; 'I' for Inactive)
REMARK    1  A    between atoms: C_2  and  C_3
REMARK    2  A    between atoms: C_3  and  C_4
REMARK    3  A    between atoms: C_4  and  C_5
REMARK    4  A    between atoms: C_7  and  C_8
REMARK    5  A    between atoms: N_16  and  C_17
REMARK    6  A    between atoms: C_17  and  C_18
REMARK    7  A    between atoms: C_18  and  C_19
REMARK                            x       y       z     vdW  Elec       q    Type
REMARK                         _______ _______ _______ _____ _____    ______ ____
ROOT
ATOM      1  O   UNL     1       3.947   7.668  17.460  0.00  0.00    +0.000 OA
ATOM      2  C   UNL     1       2.905   7.434  18.068  0.00  0.00    +0.000 C 
ATOM      3  N   UNL     1       2.788   6.472  19.043  0.00  0.00    +0.000 N 
ATOM      4  H   UNL     1       1.852   6.233  19.343  0.00  0.00    +0.000 HD
ENDROOT
BRANCH   2   5
ATOM      5  C   UNL     1       1.639   8.245  17.857  0.00  0.00    +0.000 C 
BRANCH   5   6
ATOM      6  C   UNL     1       1.848   9.707  18.241  0.00  0.00    +0.000 C 
BRANCH   6   7
ATOM      7  C   UNL     1       0.556  10.379  18.514  0.00  0.00    +0.000 A 
ATOM      8  N   UNL     1      -0.606  10.233  17.921  0.00  0.00    +0.000 NA
ATOM      9  C   UNL     1      -1.381  11.183  18.553  0.00  0.00    +0.000 A 
ATOM     10  N   UNL     1      -0.736  11.848  19.526  0.00  0.00    +0.000 NA
ATOM     11  O   UNL     1       0.549  11.322  19.497  0.00  0.00    +0.000 OA
BRANCH   9  12
ATOM     12  C   UNL     1      -2.777  11.413  18.197  0.00  0.00    +0.000 A 
ATOM     13  C   UNL     1      -3.241  11.113  16.907  0.00  0.00    +0.000 A 
ATOM     14  C   UNL     1      -4.587  11.295  16.577  0.00  0.00    +0.000 A 
ATOM     15  C   UNL     1      -5.478  11.788  17.528  0.00  0.00    +0.000 A 
ATOM     16  C   UNL     1      -5.026  12.112  18.804  0.00  0.00    +0.000 A 
ATOM     17  C   UNL     1      -3.681  11.930  19.137  0.00  0.00    +0.000 A 
ENDBRANCH   9  12
ENDBRANCH   6   7
ENDBRANCH   5   6
ENDBRANCH   2   5
BRANCH   3  18
ATOM     18  C   UNL     1       3.866   5.528  19.334  0.00  0.00    +0.000 C 
BRANCH  18  19
ATOM     19  C   UNL     1       3.844   4.248  18.453  0.00  0.00    +0.000 C 
ATOM     20  C   UNL     1       2.442   3.943  17.857  0.00  0.00    +0.000 C 
ATOM     21  C   UNL     1       2.413   2.433  17.606  0.00  0.00    +0.000 C 
ATOM     22  C   UNL     1       3.513   1.832  18.473  0.00  0.00    +0.000 C 
ATOM     23  C   UNL     1       4.022   2.981  19.332  0.00  0.00    +0.000 C 
BRANCH  19  24
ATOM     24  C   UNL     1       4.930   4.388  17.356  0.00  0.00    +0.000 A 
ATOM     25  C   UNL     1       6.295   4.485  17.688  0.00  0.00    +0.000 A 
ATOM     26  C   UNL     1       7.283   4.560  16.700  0.00  0.00    +0.000 A 
ATOM     27  C   UNL     1       6.936   4.567  15.356  0.00  0.00    +0.000 A 
ATOM     28  C   UNL     1       5.592   4.524  15.000  0.00  0.00    +0.000 A 
ATOM     29  C   UNL     1       4.603   4.455  15.987  0.00  0.00    +0.000 A 
ENDBRANCH  19  24
ENDBRANCH  18  19
ENDBRANCH   3  18
TORSDOF 7
ENDMDL
MODEL 5
REMARK VINA RESULT:      -8.1      0.901      1.752
REMARK  Name = 
REMARK  7 active torsions:
REMARK  status: ('A' for Active; 'I' for Inactive)
REMARK    1  A    between atoms: C_2  and  C_3
REMARK    2  A    between atoms: C_3  and  C_4
REMARK    3  A    between atoms: C_4  and  C_5
REMARK    4  A    between atoms: C_7  and  C_8
REMARK    5  A    between atoms: N_16  and  C_17
REMARK    6  A    between atoms: C_17  and  C_18
REMARK    7  A    between atoms: C_18  and  C_19
REMARK                            x       y       z     vdW  Elec       q    Type
REMARK                         _______ _______ _______ _____ _____    ______ ____
ROOT
ATOM      1  O   UNL     1       7.170   4.005  18.423  0.00  0.00    +0.000 OA
ATOM      2  C   UNL     1       6.652   5.029  18.858  0.00  0.00    +0.000 C 
ATOM      3  N   UNL     1       5.310   5.150  19.133  0.00  0.00    +0.000 N 
ATOM      4  H   UNL     1       4.958   6.083  19.305  0.00  0.00    +0.000 HD
ENDROOT
BRANCH   2   5
ATOM      5  C   UNL     1       7.460   6.265  19.214  0.00  0.00    +0.000 C 
BRANCH   5   6
ATOM      6  C   UNL     1       7.687   7.148  17.992  0.00  0.00    +0.000 C 
BRANCH   6   7
ATOM      7  C   UNL     1       6.998   6.602  16.799  0.00  0.00    +0.000 A 
ATOM      8  N   UNL     1       7.416   5.718  15.922  0.00  0.00    +0.000 NA
ATOM      9  C   UNL     1       6.380   5.693  15.012  0.00  0.00    +0.000 A 
ATOM     10  N   UNL     1       5.349   6.489  15.342  0.00  0.00    +0.000 NA
ATOM     11  O   UNL     1       5.760   7.097  16.522  0.00  0.00    +0.000 OA
BRANCH   9  12
ATOM     12  C   UNL     1       6.411   4.856  13.818  0.00  0.00    +0.000 A 
ATOM     13  C   UNL     1       7.449   4.988  12.882  0.00  0.00    +0.000 A 
ATOM     14  C   UNL     1       7.501   4.160  11.758  0.00  0.00    +0.000 A 
ATOM     15  C   UNL     1       6.514   3.198  11.554  0.00  0.00    +0.000 A 
ATOM     16  C   UNL     1       5.466   3.071  12.462  0.00  0.00    +0.000 A 
ATOM     17  C   UNL     1       5.411   3.898  13.587  0.00  0.00    +0.000 A 
ENDBRANCH   9  12
ENDBRANCH   6   7
ENDBRANCH   5   6
ENDBRANCH   2   5
BRANCH   3  18
ATOM     18  C   UNL     1       4.349   4.106  18.781  0.00  0.00    +0.000 C 
BRANCH  18  19
ATOM     19  C   UNL     1       2.929   4.323  19.373  0.00  0.00    +0.000 C 
ATOM     20  C   UNL     1       2.794   3.807  20.833  0.00  0.00    +0.000 C 
ATOM     21  C   UNL     1       1.308   3.489  21.028  0.00  0.00    +0.000 C 
ATOM     22  C   UNL     1       0.715   3.334  19.632  0.00  0.00    +0.000 C 
ATOM     23  C   UNL     1       1.903   3.387  18.682  0.00  0.00    +0.000 C 
BRANCH  19  24
ATOM     24  C   UNL     1       2.568   5.825  19.247  0.00  0.00    +0.000 A 
ATOM     25  C   UNL     1       2.636   6.490  18.007  0.00  0.00    +0.000 A 
ATOM     26  C   UNL     1       2.262   7.832  17.877  0.00  0.00    +0.000 A 
ATOM     27  C   UNL     1       1.838   8.555  18.984  0.00  0.00    +0.000 A 
ATOM     28  C   UNL     1       1.811   7.939  20.230  0.00  0.00    +0.000 A 
ATOM     29  C   UNL     1       2.189   6.598  20.362  0.00  0.00    +0.000 A 
ENDBRANCH  19  24
ENDBRANCH  18  19
ENDBRANCH   3  18
TORSDOF 7
ENDMDL
MODEL 6
REMARK VINA RESULT:      -8.0      4.444      7.875
REMARK  Name = 
REMARK  7 active torsions:
REMARK  status: ('A' for Active; 'I' for Inactive)
REMARK    1  A    between atoms: C_2  and  C_3
REMARK    2  A    between atoms: C_3  and  C_4
REMARK    3  A    between atoms: C_4  and  C_5
REMARK    4  A    between atoms: C_7  and  C_8
REMARK    5  A    between atoms: N_16  and  C_17
REMARK    6  A    between atoms: C_17  and  C_18
REMARK    7  A    between atoms: C_18  and  C_19
REMARK                            x       y       z     vdW  Elec       q    Type
REMARK                         _______ _______ _______ _____ _____    ______ ____
ROOT
ATOM      1  O   UNL     1       8.678   7.403  19.107  0.00  0.00    +0.000 OA
ATOM      2  C   UNL     1       8.288   8.219  18.277  0.00  0.00    +0.000 C 
ATOM      3  N   UNL     1       8.589   9.560  18.323  0.00  0.00    +0.000 N 
ATOM      4  H   UNL     1       8.068  10.169  17.706  0.00  0.00    +0.000 HD
ENDROOT
BRANCH   2   5
ATOM      5  C   UNL     1       7.484   7.817  17.053  0.00  0.00    +0.000 C 
BRANCH   5   6
ATOM      6  C   UNL     1       7.139   6.332  17.081  0.00  0.00    +0.000 C 
BRANCH   6   7
ATOM      7  C   UNL     1       5.739   6.115  17.517  0.00  0.00    +0.000 A 
ATOM      8  N   UNL     1       5.189   5.058  18.070  0.00  0.00    +0.000 NA
ATOM      9  C   UNL     1       3.862   5.427  18.155  0.00  0.00    +0.000 A 
ATOM     10  N   UNL     1       3.618   6.674  17.719  0.00  0.00    +0.000 NA
ATOM     11  O   UNL     1       4.859   7.128  17.289  0.00  0.00    +0.000 OA
BRANCH   9  12
ATOM     12  C   UNL     1       2.838   4.538  18.692  0.00  0.00    +0.000 A 
ATOM     13  C   UNL     1       2.000   4.965  19.733  0.00  0.00    +0.000 A 
ATOM     14  C   UNL     1       0.993   4.128  20.222  0.00  0.00    +0.000 A 
ATOM     15  C   UNL     1       0.821   2.855  19.682  0.00  0.00    +0.000 A 
ATOM     16  C   UNL     1       1.660   2.410  18.664  0.00  0.00    +0.000 A 
ATOM     17  C   UNL     1       2.668   3.245  18.174  0.00  0.00    +0.000 A 
ENDBRANCH   9  12
ENDBRANCH   6   7
ENDBRANCH   5   6
ENDBRANCH   2   5
BRANCH   3  18
ATOM     18  C   UNL     1       9.278  10.161  19.464  0.00  0.00    +0.000 C 
BRANCH  18  19
ATOM     19  C   UNL     1       9.971  11.515  19.145  0.00  0.00    +0.000 C 
ATOM     20  C   UNL     1       9.874  11.910  17.645  0.00  0.00    +0.000 C 
ATOM     21  C   UNL     1      11.071  12.825  17.375  0.00  0.00    +0.000 C 
ATOM     22  C   UNL     1      12.075  12.561  18.492  0.00  0.00    +0.000 C 
ATOM     23  C   UNL     1      11.512  11.378  19.267  0.00  0.00    +0.000 C 
BRANCH  19  24
ATOM     24  C   UNL     1       9.379  12.602  20.078  0.00  0.00    +0.000 A 
ATOM     25  C   UNL     1       8.618  13.670  19.562  0.00  0.00    +0.000 A 
ATOM     26  C   UNL     1       8.038  14.626  20.404  0.00  0.00    +0.000 A 
ATOM     27  C   UNL     1       8.222  14.559  21.778  0.00  0.00    +0.000 A 
ATOM     28  C   UNL     1       9.012  13.545  22.311  0.00  0.00    +0.000 A 
ATOM     29  C   UNL     1       9.597  12.591  21.469  0.00  0.00    +0.000 A 
ENDBRANCH  19  24
ENDBRANCH  18  19
ENDBRANCH   3  18
TORSDOF 7
ENDMDL
MODEL 7
REMARK VINA RESULT:      -8.0      4.246      8.462
REMARK  Name = 
REMARK  7 active torsions:
REMARK  status: ('A' for Active; 'I' for Inactive)
REMARK    1  A    between atoms: C_2  and  C_3
REMARK    2  A    between atoms: C_3  and  C_4
REMARK    3  A    between atoms: C_4  and  C_5
REMARK    4  A    between atoms: C_7  and  C_8
REMARK    5  A    between atoms: N_16  and  C_17
REMARK    6  A    between atoms: C_17  and  C_18
REMARK    7  A    between atoms: C_18  and  C_19
REMARK                            x       y       z     vdW  Elec       q    Type
REMARK                         _______ _______ _______ _____ _____    ______ ____
ROOT
ATOM      1  O   UNL     1       3.990   7.560  17.658  0.00  0.00    +0.000 OA
ATOM      2  C   UNL     1       2.911   7.313  18.189  0.00  0.00    +0.000 C 
ATOM      3  N   UNL     1       2.731   6.329  19.132  0.00  0.00    +0.000 N 
ATOM      4  H   UNL     1       1.778   6.083  19.364  0.00  0.00    +0.000 HD
ENDROOT
BRANCH   2   5
ATOM      5  C   UNL     1       1.660   8.127  17.913  0.00  0.00    +0.000 C 
BRANCH   5   6
ATOM      6  C   UNL     1       1.969   9.621  17.877  0.00  0.00    +0.000 C 
BRANCH   6   7
ATOM      7  C   UNL     1       0.867  10.412  18.473  0.00  0.00    +0.000 A 
ATOM      8  N   UNL     1      -0.427  10.332  18.267  0.00  0.00    +0.000 NA
ATOM      9  C   UNL     1      -0.912  11.374  19.029  0.00  0.00    +0.000 A 
ATOM     10  N   UNL     1       0.038  12.033  19.713  0.00  0.00    +0.000 NA
ATOM     11  O   UNL     1       1.218  11.401  19.340  0.00  0.00    +0.000 OA
BRANCH   9  12
ATOM     12  C   UNL     1      -2.333  11.701  19.090  0.00  0.00    +0.000 A 
ATOM     13  C   UNL     1      -2.838  12.489  20.136  0.00  0.00    +0.000 A 
ATOM     14  C   UNL     1      -4.191  12.835  20.174  0.00  0.00    +0.000 A 
ATOM     15  C   UNL     1      -5.053  12.389  19.174  0.00  0.00    +0.000 A 
ATOM     16  C   UNL     1      -4.570  11.588  18.143  0.00  0.00    +0.000 A 
ATOM     17  C   UNL     1      -3.217  11.241  18.103  0.00  0.00    +0.000 A 
ENDBRANCH   9  12
ENDBRANCH   6   7
ENDBRANCH   5   6
ENDBRANCH   2   5
BRANCH   3  18
ATOM     18  C   UNL     1       3.789   5.378  19.473  0.00  0.00    +0.000 C 
BRANCH  18  19
ATOM     19  C   UNL     1       3.815   4.109  18.578  0.00  0.00    +0.000 C 
ATOM     20  C   UNL     1       2.436   3.786  17.939  0.00  0.00    +0.000 C 
ATOM     21  C   UNL     1       2.441   2.279  17.670  0.00  0.00    +0.000 C 
ATOM     22  C   UNL     1       3.527   1.687  18.561  0.00  0.00    +0.000 C 
ATOM     23  C   UNL     1       3.991   2.835  19.447  0.00  0.00    +0.000 C 
BRANCH  19  24
ATOM     24  C   UNL     1       4.929   4.281  17.513  0.00  0.00    +0.000 A 
ATOM     25  C   UNL     1       4.628   4.286  16.137  0.00  0.00    +0.000 A 
ATOM     26  C   UNL     1       5.622   4.492  15.174  0.00  0.00    +0.000 A 
ATOM     27  C   UNL     1       6.945   4.671  15.554  0.00  0.00    +0.000 A 
ATOM     28  C   UNL     1       7.279   4.618  16.903  0.00  0.00    +0.000 A 
ATOM     29  C   UNL     1       6.286   4.407  17.867  0.00  0.00    +0.000 A 
ENDBRANCH  19  24
ENDBRANCH  18  19
ENDBRANCH   3  18
TORSDOF 7
ENDMDL
MODEL 8
REMARK VINA RESULT:      -8.0      3.974      8.571
REMARK  Name = 
REMARK  7 active torsions:
REMARK  status: ('A' for Active; 'I' for Inactive)
REMARK    1  A    between atoms: C_2  and  C_3
REMARK    2  A    between atoms: C_3  and  C_4
REMARK    3  A    between atoms: C_4  and  C_5
REMARK    4  A    between atoms: C_7  and  C_8
REMARK    5  A    between atoms: N_16  and  C_17
REMARK    6  A    between atoms: C_17  and  C_18
REMARK    7  A    between atoms: C_18  and  C_19
REMARK                            x       y       z     vdW  Elec       q    Type
REMARK                         _______ _______ _______ _____ _____    ______ ____
ROOT
ATOM      1  O   UNL     1       3.945   7.596  17.722  0.00  0.00    +0.000 OA
ATOM      2  C   UNL     1       2.886   7.315  18.276  0.00  0.00    +0.000 C 
ATOM      3  N   UNL     1       2.751   6.303  19.198  0.00  0.00    +0.000 N 
ATOM      4  H   UNL     1       1.810   6.033  19.449  0.00  0.00    +0.000 HD
ENDROOT
BRANCH   2   5
ATOM      5  C   UNL     1       1.613   8.111  18.056  0.00  0.00    +0.000 C 
BRANCH   5   6
ATOM      6  C   UNL     1       1.922   9.564  17.710  0.00  0.00    +0.000 C 
BRANCH   6   7
ATOM      7  C   UNL     1       1.294  10.492  18.680  0.00  0.00    +0.000 A 
ATOM      8  N   UNL     1       0.257  10.307  19.464  0.00  0.00    +0.000 NA
ATOM      9  C   UNL     1       0.107  11.547  20.051  0.00  0.00    +0.000 A 
ATOM     10  N   UNL     1       1.041  12.438  19.681  0.00  0.00    +0.000 NA
ATOM     11  O   UNL     1       1.824  11.743  18.767  0.00  0.00    +0.000 OA
BRANCH   9  12
ATOM     12  C   UNL     1      -0.963  11.835  21.001  0.00  0.00    +0.000 A 
ATOM     13  C   UNL     1      -2.103  12.545  20.595  0.00  0.00    +0.000 A 
ATOM     14  C   UNL     1      -3.145  12.788  21.493  0.00  0.00    +0.000 A 
ATOM     15  C   UNL     1      -3.054  12.331  22.807  0.00  0.00    +0.000 A 
ATOM     16  C   UNL     1      -1.919  11.645  23.229  0.00  0.00    +0.000 A 
ATOM     17  C   UNL     1      -0.875  11.401  22.332  0.00  0.00    +0.000 A 
ENDBRANCH   9  12
ENDBRANCH   6   7
ENDBRANCH   5   6
ENDBRANCH   2   5
BRANCH   3  18
ATOM     18  C   UNL     1       3.836   5.366  19.485  0.00  0.00    +0.000 C 
BRANCH  18  19
ATOM     19  C   UNL     1       3.853   4.113  18.566  0.00  0.00    +0.000 C 
ATOM     20  C   UNL     1       2.466   3.801  17.937  0.00  0.00    +0.000 C 
ATOM     21  C   UNL     1       2.470   2.299  17.640  0.00  0.00    +0.000 C 
ATOM     22  C   UNL     1       3.567   1.692  18.507  0.00  0.00    +0.000 C 
ATOM     23  C   UNL     1       4.040   2.823  19.409  0.00  0.00    +0.000 C 
BRANCH  19  24
ATOM     24  C   UNL     1       4.954   4.306  17.491  0.00  0.00    +0.000 A 
ATOM     25  C   UNL     1       6.305   4.468  17.853  0.00  0.00    +0.000 A 
ATOM     26  C   UNL     1       7.309   4.591  16.885  0.00  0.00    +0.000 A 
ATOM     27  C   UNL     1       6.991   4.585  15.534  0.00  0.00    +0.000 A 
ATOM     28  C   UNL     1       5.658   4.479  15.150  0.00  0.00    +0.000 A 
ATOM     29  C   UNL     1       4.652   4.361  16.116  0.00  0.00    +0.000 A 
ENDBRANCH  19  24
ENDBRANCH  18  19
ENDBRANCH   3  18
TORSDOF 7
ENDMDL
MODEL 9
REMARK VINA RESULT:      -8.0      4.700      8.607
REMARK  Name = 
REMARK  7 active torsions:
REMARK  status: ('A' for Active; 'I' for Inactive)
REMARK    1  A    between atoms: C_2  and  C_3
REMARK    2  A    between atoms: C_3  and  C_4
REMARK    3  A    between atoms: C_4  and  C_5
REMARK    4  A    between atoms: C_7  and  C_8
REMARK    5  A    between atoms: N_16  and  C_17
REMARK    6  A    between atoms: C_17  and  C_18
REMARK    7  A    between atoms: C_18  and  C_19
REMARK                            x       y       z     vdW  Elec       q    Type
REMARK                         _______ _______ _______ _____ _____    ______ ____
ROOT
ATOM      1  O   UNL     1       1.870   8.051  20.028  0.00  0.00    +0.000 OA
ATOM      2  C   UNL     1       2.148   7.939  18.837  0.00  0.00    +0.000 C 
ATOM      3  N   UNL     1       2.861   6.886  18.315  0.00  0.00    +0.000 N 
ATOM      4  H   UNL     1       3.197   6.984  17.365  0.00  0.00    +0.000 HD
ENDROOT
BRANCH   2   5
ATOM      5  C   UNL     1       1.664   8.925  17.790  0.00  0.00    +0.000 C 
BRANCH   5   6
ATOM      6  C   UNL     1       1.695  10.355  18.321  0.00  0.00    +0.000 C 
BRANCH   6   7
ATOM      7  C   UNL     1       0.339  10.818  18.696  0.00  0.00    +0.000 A 
ATOM      8  N   UNL     1      -0.787  10.744  18.024  0.00  0.00    +0.000 NA
ATOM      9  C   UNL     1      -1.666  11.417  18.847  0.00  0.00    +0.000 A 
ATOM     10  N   UNL     1      -1.115  11.842  19.996  0.00  0.00    +0.000 NA
ATOM     11  O   UNL     1       0.215  11.452  19.894  0.00  0.00    +0.000 OA
BRANCH   9  12
ATOM     12  C   UNL     1      -3.067  11.619  18.492  0.00  0.00    +0.000 A 
ATOM     13  C   UNL     1      -3.966  12.161  19.424  0.00  0.00    +0.000 A 
ATOM     14  C   UNL     1      -5.299  12.391  19.072  0.00  0.00    +0.000 A 
ATOM     15  C   UNL     1      -5.747  12.075  17.791  0.00  0.00    +0.000 A 
ATOM     16  C   UNL     1      -4.871  11.516  16.865  0.00  0.00    +0.000 A 
ATOM     17  C   UNL     1      -3.538  11.285  17.214  0.00  0.00    +0.000 A 
ENDBRANCH   9  12
ENDBRANCH   6   7
ENDBRANCH   5   6
ENDBRANCH   2   5
BRANCH   3  18
ATOM     18  C   UNL     1       3.490   5.876  19.166  0.00  0.00    +0.000 C 
BRANCH  18  19
ATOM     19  C   UNL     1       3.638   4.483  18.494  0.00  0.00    +0.000 C 
ATOM     20  C   UNL     1       2.340   4.010  17.782  0.00  0.00    +0.000 C 
ATOM     21  C   UNL     1       2.407   2.481  17.762  0.00  0.00    +0.000 C 
ATOM     22  C   UNL     1       3.406   2.080  18.841  0.00  0.00    +0.000 C 
ATOM     23  C   UNL     1       3.749   3.370  19.572  0.00  0.00    +0.000 C 
BRANCH  19  24
ATOM     24  C   UNL     1       4.852   4.526  17.533  0.00  0.00    +0.000 A 
ATOM     25  C   UNL     1       6.169   4.616  18.025  0.00  0.00    +0.000 A 
ATOM     26  C   UNL     1       7.272   4.604  17.163  0.00  0.00    +0.000 A 
ATOM     27  C   UNL     1       7.092   4.530  15.789  0.00  0.00    +0.000 A 
ATOM     28  C   UNL     1       5.800   4.492  15.273  0.00  0.00    +0.000 A 
ATOM     29  C   UNL     1       4.697   4.510  16.133  0.00  0.00    +0.000 A 
ENDBRANCH  19  24
ENDBRANCH  18  19
ENDBRANCH   3  18
TORSDOF 7
ENDMDL
